MODEL 1
REMARK VINA RESULT:      -9.4      0.000      0.000
REMARK  7 active torsions:
REMARK  status: ('A' for Active; 'I' for Inactive)
REMARK    1  A    between atoms: C_9  and  C_10 
REMARK       I    between atoms: C_10  and  N_11 
REMARK    2  A    between atoms: N_11  and  C_12 
REMARK    3  A    between atoms: C_12  and  C_13 
REMARK    4  A    between atoms: C_12  and  C_22 
REMARK       I    between atoms: C_13  and  N_14 
REMARK    5  A    between atoms: N_14  and  C_15 
REMARK    6  A    between atoms: C_15  and  C_16 
REMARK    7  A    between atoms: C_22  and  C_23 
ROOT
HETATM    1  C   UNL     1     -42.723  57.513 -55.623  1.00  0.00     0.180 C 
ENDROOT
BRANCH   1   2
HETATM    2  N   UNL     1     -42.109  56.459 -54.788  1.00  0.00    -0.346 N 
HETATM    3  C   UNL     1     -42.813  55.835 -53.787  1.00  0.00     0.249 C 
HETATM    4  O   UNL     1     -43.914  56.194 -53.368  1.00  0.00    -0.271 OA
HETATM    5  H   UNL     1     -41.404  55.923 -55.278  1.00  0.00     0.163 HD
BRANCH   3   6
HETATM    6  C   UNL     1     -42.193  54.554 -53.218  1.00  0.00     0.281 C 
HETATM    7  N   UNL     1     -41.083  54.932 -52.254  1.00  0.00    -0.058 N 
HETATM    8  C   UNL     1     -40.553  53.774 -51.506  1.00  0.00     0.272 C 
HETATM    9  H   UNL     1     -40.337  55.392 -52.792  1.00  0.00     0.278 HD
HETATM   10  H   UNL     1     -41.443  55.673 -51.633  1.00  0.00     0.278 HD
HETATM   11  C   UNL     1     -40.275  52.590 -52.393  1.00  0.00    -0.026 A 
HETATM   12  C   UNL     1     -40.793  52.514 -53.703  1.00  0.00    -0.048 A 
HETATM   13  C   UNL     1     -39.526  51.517 -51.886  1.00  0.00     0.009 A 
HETATM   14  C   UNL     1     -40.523  51.385 -54.489  1.00  0.00     0.008 A 
HETATM   15  C   UNL     1     -41.601  53.648 -54.295  1.00  0.00     0.082 C 
HETATM   16  C   UNL     1     -39.773  50.330 -53.973  1.00  0.00     0.001 A 
HETATM   17  C   UNL     1     -39.278  50.395 -52.675  1.00  0.00     0.001 A 
ENDBRANCH   3   6
ENDBRANCH   1   2
BRANCH   1  18
HETATM   18  C   UNL     1     -42.339  58.871 -54.991  1.00  0.00     0.241 C 
HETATM   19  N   UNL     1     -42.898  59.162 -53.775  1.00  0.00    -0.353 N 
HETATM   20  H   UNL     1     -43.516  58.518 -53.293  1.00  0.00     0.162 HD
HETATM   21  O   UNL     1     -41.497  59.606 -55.517  1.00  0.00    -0.271 OA
BRANCH  19  22
HETATM   22  C   UNL     1     -42.490  60.333 -53.033  1.00  0.00     0.187 C 
BRANCH  22  23
HETATM   23  C   UNL     1     -41.609  59.956 -51.898  1.00  0.00     0.070 A 
HETATM   24  O   UNL     1     -40.356  59.489 -52.186  1.00  0.00    -0.325 OA
HETATM   25  C   UNL     1     -39.755  59.209 -51.001  1.00  0.00     0.142 A 
HETATM   26  C   UNL     1     -40.597  59.499 -49.953  1.00  0.00     0.027 A 
HETATM   27  C   UNL     1     -41.794  59.984 -50.530  1.00  0.00     0.036 A 
ENDBRANCH  22  23
ENDBRANCH  19  22
ENDBRANCH   1  18
BRANCH   1  28
HETATM   28  C   UNL     1     -42.449  57.396 -57.132  1.00  0.00     0.075 C 
BRANCH  28  29
HETATM   29  C   UNL     1     -43.696  57.577 -57.952  1.00  0.00    -0.028 A 
HETATM   30  C   UNL     1     -44.219  56.686 -58.946  1.00  0.00    -0.002 A 
HETATM   31  C   UNL     1     -45.409  57.244 -59.421  1.00  0.00     0.042 A 
HETATM   32  C   UNL     1     -43.793  55.458 -59.496  1.00  0.00     0.014 A 
HETATM   33  C   UNL     1     -46.198  56.630 -60.400  1.00  0.00     0.030 A 
HETATM   34  N   UNL     1     -45.583  58.443 -58.773  1.00  0.00    -0.365 N 
HETATM   35  C   UNL     1     -45.754  55.411 -60.922  1.00  0.00     0.002 A 
HETATM   36  C   UNL     1     -44.567  54.835 -60.482  1.00  0.00     0.001 A 
HETATM   37  H   UNL     1     -46.349  59.080 -58.945  1.00  0.00     0.165 HD
HETATM   38  C   UNL     1     -44.563  58.653 -57.885  1.00  0.00     0.096 A 
ENDBRANCH  28  29
ENDBRANCH   1  28
TORSDOF 7
ENDMDL
MODEL 2
REMARK VINA RESULT:      -9.2      2.339      8.363
REMARK  7 active torsions:
REMARK  status: ('A' for Active; 'I' for Inactive)
REMARK    1  A    between atoms: C_9  and  C_10 
REMARK       I    between atoms: C_10  and  N_11 
REMARK    2  A    between atoms: N_11  and  C_12 
REMARK    3  A    between atoms: C_12  and  C_13 
REMARK    4  A    between atoms: C_12  and  C_22 
REMARK       I    between atoms: C_13  and  N_14 
REMARK    5  A    between atoms: N_14  and  C_15 
REMARK    6  A    between atoms: C_15  and  C_16 
REMARK    7  A    between atoms: C_22  and  C_23 
ROOT
HETATM    1  C   UNL     1     -42.312  55.067 -53.885  1.00  0.00     0.180 C 
ENDROOT
BRANCH   1   2
HETATM    2  N   UNL     1     -42.789  56.408 -53.489  1.00  0.00    -0.346 N 
HETATM    3  C   UNL     1     -43.030  56.725 -52.174  1.00  0.00     0.249 C 
HETATM    4  O   UNL     1     -43.057  55.916 -51.246  1.00  0.00    -0.271 OA
HETATM    5  H   UNL     1     -42.464  57.145 -54.102  1.00  0.00     0.163 HD
BRANCH   3   6
HETATM    6  C   UNL     1     -43.201  58.214 -51.854  1.00  0.00     0.281 C 
HETATM    7  N   UNL     1     -42.198  58.606 -50.784  1.00  0.00    -0.058 N 
HETATM    8  C   UNL     1     -42.152  60.062 -50.546  1.00  0.00     0.272 C 
HETATM    9  H   UNL     1     -42.441  58.102 -49.921  1.00  0.00     0.278 HD
HETATM   10  H   UNL     1     -41.281  58.220 -51.055  1.00  0.00     0.278 HD
HETATM   11  C   UNL     1     -43.521  60.671 -50.412  1.00  0.00    -0.026 A 
HETATM   12  C   UNL     1     -44.680  59.973 -50.817  1.00  0.00    -0.048 A 
HETATM   13  C   UNL     1     -43.643  61.980 -49.922  1.00  0.00     0.009 A 
HETATM   14  C   UNL     1     -45.934  60.585 -50.690  1.00  0.00     0.008 A 
HETATM   15  C   UNL     1     -44.599  58.558 -51.345  1.00  0.00     0.082 C 
HETATM   16  C   UNL     1     -46.040  61.883 -50.196  1.00  0.00     0.001 A 
HETATM   17  C   UNL     1     -44.897  62.581 -49.816  1.00  0.00     0.001 A 
ENDBRANCH   3   6
ENDBRANCH   1   2
BRANCH   1  18
HETATM   18  C   UNL     1     -42.921  54.763 -55.274  1.00  0.00     0.241 C 
HETATM   19  N   UNL     1     -42.786  55.736 -56.229  1.00  0.00    -0.353 N 
HETATM   20  H   UNL     1     -42.294  56.605 -56.054  1.00  0.00     0.162 HD
HETATM   21  O   UNL     1     -43.418  53.661 -55.528  1.00  0.00    -0.271 OA
BRANCH  19  22
HETATM   22  C   UNL     1     -43.186  55.492 -57.597  1.00  0.00     0.187 C 
BRANCH  22  23
HETATM   23  C   UNL     1     -42.689  56.569 -58.490  1.00  0.00     0.070 A 
HETATM   24  O   UNL     1     -42.334  57.762 -57.921  1.00  0.00    -0.325 OA
HETATM   25  C   UNL     1     -41.924  58.575 -58.929  1.00  0.00     0.142 A 
HETATM   26  C   UNL     1     -41.999  57.922 -60.137  1.00  0.00     0.027 A 
HETATM   27  C   UNL     1     -42.490  56.626 -59.855  1.00  0.00     0.036 A 
ENDBRANCH  22  23
ENDBRANCH  19  22
ENDBRANCH   1  18
BRANCH   1  28
HETATM   28  C   UNL     1     -40.792  54.856 -53.782  1.00  0.00     0.075 C 
BRANCH  28  29
HETATM   29  C   UNL     1     -40.436  53.745 -52.833  1.00  0.00    -0.028 A 
HETATM   30  C   UNL     1     -40.213  52.365 -53.153  1.00  0.00    -0.002 A 
HETATM   31  C   UNL     1     -39.876  51.711 -51.967  1.00  0.00     0.042 A 
HETATM   32  C   UNL     1     -40.273  51.605 -54.340  1.00  0.00     0.014 A 
HETATM   33  C   UNL     1     -39.580  50.344 -51.911  1.00  0.00     0.030 A 
HETATM   34  N   UNL     1     -39.929  52.643 -50.959  1.00  0.00    -0.365 N 
HETATM   35  C   UNL     1     -39.641  49.617 -53.103  1.00  0.00     0.002 A 
HETATM   36  C   UNL     1     -39.987  50.235 -54.301  1.00  0.00     0.001 A 
HETATM   37  H   UNL     1     -39.761  52.440 -49.982  1.00  0.00     0.165 HD
HETATM   38  C   UNL     1     -40.260  53.870 -51.467  1.00  0.00     0.096 A 
ENDBRANCH  28  29
ENDBRANCH   1  28
TORSDOF 7
ENDMDL
MODEL 3
REMARK VINA RESULT:      -9.1      2.807      6.973
REMARK  7 active torsions:
REMARK  status: ('A' for Active; 'I' for Inactive)
REMARK    1  A    between atoms: C_9  and  C_10 
REMARK       I    between atoms: C_10  and  N_11 
REMARK    2  A    between atoms: N_11  and  C_12 
REMARK    3  A    between atoms: C_12  and  C_13 
REMARK    4  A    between atoms: C_12  and  C_22 
REMARK       I    between atoms: C_13  and  N_14 
REMARK    5  A    between atoms: N_14  and  C_15 
REMARK    6  A    between atoms: C_15  and  C_16 
REMARK    7  A    between atoms: C_22  and  C_23 
ROOT
HETATM    1  C   UNL     1     -43.688  57.186 -51.318  1.00  0.00     0.180 C 
ENDROOT
BRANCH   1   2
HETATM    2  N   UNL     1     -43.439  57.478 -52.744  1.00  0.00    -0.346 N 
HETATM    3  C   UNL     1     -42.207  57.891 -53.189  1.00  0.00     0.249 C 
HETATM    4  O   UNL     1     -41.271  58.229 -52.463  1.00  0.00    -0.271 OA
HETATM    5  H   UNL     1     -44.007  56.920 -53.371  1.00  0.00     0.163 HD
BRANCH   3   6
HETATM    6  C   UNL     1     -41.981  57.846 -54.704  1.00  0.00     0.281 C 
HETATM    7  N   UNL     1     -42.410  59.172 -55.305  1.00  0.00    -0.058 N 
HETATM    8  C   UNL     1     -42.052  59.299 -56.732  1.00  0.00     0.272 C 
HETATM    9  H   UNL     1     -43.426  59.266 -55.173  1.00  0.00     0.278 HD
HETATM   10  H   UNL     1     -42.008  59.925 -54.727  1.00  0.00     0.278 HD
HETATM   11  C   UNL     1     -42.408  58.074 -57.529  1.00  0.00    -0.026 A 
HETATM   12  C   UNL     1     -42.719  56.850 -56.899  1.00  0.00    -0.048 A 
HETATM   13  C   UNL     1     -42.379  58.138 -58.931  1.00  0.00     0.009 A 
HETATM   14  C   UNL     1     -43.028  55.729 -57.682  1.00  0.00     0.008 A 
HETATM   15  C   UNL     1     -42.769  56.733 -55.392  1.00  0.00     0.082 C 
HETATM   16  C   UNL     1     -43.001  55.810 -59.073  1.00  0.00     0.001 A 
HETATM   17  C   UNL     1     -42.674  57.010 -59.696  1.00  0.00     0.001 A 
ENDBRANCH   3   6
ENDBRANCH   1   2
BRANCH   1  18
HETATM   18  C   UNL     1     -44.771  58.179 -50.835  1.00  0.00     0.241 C 
HETATM   19  N   UNL     1     -44.353  59.454 -50.558  1.00  0.00    -0.353 N 
HETATM   20  H   UNL     1     -43.391  59.749 -50.680  1.00  0.00     0.162 HD
HETATM   21  O   UNL     1     -45.963  57.858 -50.797  1.00  0.00    -0.271 OA
BRANCH  19  22
HETATM   22  C   UNL     1     -45.306  60.495 -50.245  1.00  0.00     0.187 C 
BRANCH  22  23
HETATM   23  C   UNL     1     -45.314  60.780 -48.788  1.00  0.00     0.070 A 
HETATM   24  O   UNL     1     -46.087  59.988 -47.983  1.00  0.00    -0.325 OA
HETATM   25  C   UNL     1     -45.934  60.445 -46.713  1.00  0.00     0.142 A 
HETATM   26  C   UNL     1     -45.067  61.512 -46.685  1.00  0.00     0.027 A 
HETATM   27  C   UNL     1     -44.664  61.728 -48.024  1.00  0.00     0.036 A 
ENDBRANCH  22  23
ENDBRANCH  19  22
ENDBRANCH   1  18
BRANCH   1  28
HETATM   28  C   UNL     1     -43.968  55.709 -50.990  1.00  0.00     0.075 C 
BRANCH  28  29
HETATM   29  C   UNL     1     -42.708  54.891 -50.929  1.00  0.00    -0.028 A 
HETATM   30  C   UNL     1     -42.086  54.170 -52.001  1.00  0.00    -0.002 A 
HETATM   31  C   UNL     1     -40.923  53.587 -51.493  1.00  0.00     0.042 A 
HETATM   32  C   UNL     1     -42.405  53.948 -53.358  1.00  0.00     0.014 A 
HETATM   33  C   UNL     1     -40.057  52.814 -52.274  1.00  0.00     0.030 A 
HETATM   34  N   UNL     1     -40.859  53.907 -50.158  1.00  0.00    -0.365 N 
HETATM   35  C   UNL     1     -40.394  52.616 -53.616  1.00  0.00     0.002 A 
HETATM   36  C   UNL     1     -41.553  53.170 -54.151  1.00  0.00     0.001 A 
HETATM   37  H   UNL     1     -40.133  53.589 -49.528  1.00  0.00     0.165 HD
HETATM   38  C   UNL     1     -41.923  54.693 -49.808  1.00  0.00     0.096 A 
ENDBRANCH  28  29
ENDBRANCH   1  28
TORSDOF 7
ENDMDL
MODEL 4
REMARK VINA RESULT:      -9.0      2.116      6.476
REMARK  7 active torsions:
REMARK  status: ('A' for Active; 'I' for Inactive)
REMARK    1  A    between atoms: C_9  and  C_10 
REMARK       I    between atoms: C_10  and  N_11 
REMARK    2  A    between atoms: N_11  and  C_12 
REMARK    3  A    between atoms: C_12  and  C_13 
REMARK    4  A    between atoms: C_12  and  C_22 
REMARK       I    between atoms: C_13  and  N_14 
REMARK    5  A    between atoms: N_14  and  C_15 
REMARK    6  A    between atoms: C_15  and  C_16 
REMARK    7  A    between atoms: C_22  and  C_23 
ROOT
HETATM    1  C   UNL     1     -43.391  57.266 -54.712  1.00  0.00     0.180 C 
ENDROOT
BRANCH   1   2
HETATM    2  N   UNL     1     -42.928  55.902 -54.381  1.00  0.00    -0.346 N 
HETATM    3  C   UNL     1     -41.665  55.672 -53.892  1.00  0.00     0.249 C 
HETATM    4  O   UNL     1     -40.759  56.505 -53.855  1.00  0.00    -0.271 OA
HETATM    5  H   UNL     1     -43.674  55.291 -54.073  1.00  0.00     0.163 HD
BRANCH   3   6
HETATM    6  C   UNL     1     -41.414  54.288 -53.284  1.00  0.00     0.281 C 
HETATM    7  N   UNL     1     -40.496  54.436 -52.084  1.00  0.00    -0.058 N 
HETATM    8  C   UNL     1     -40.350  53.185 -51.314  1.00  0.00     0.272 C 
HETATM    9  H   UNL     1     -39.582  54.766 -52.421  1.00  0.00     0.278 HD
HETATM   10  H   UNL     1     -40.852  55.215 -51.509  1.00  0.00     0.278 HD
HETATM   11  C   UNL     1     -40.089  51.991 -52.192  1.00  0.00    -0.026 A 
HETATM   12  C   UNL     1     -40.310  52.040 -53.586  1.00  0.00    -0.048 A 
HETATM   13  C   UNL     1     -39.665  50.789 -51.606  1.00  0.00     0.009 A 
HETATM   14  C   UNL     1     -40.070  50.900 -54.364  1.00  0.00     0.008 A 
HETATM   15  C   UNL     1     -40.761  53.315 -54.265  1.00  0.00     0.082 C 
HETATM   16  C   UNL     1     -39.644  49.715 -53.768  1.00  0.00     0.001 A 
HETATM   17  C   UNL     1     -39.444  49.659 -52.392  1.00  0.00     0.001 A 
ENDBRANCH   3   6
ENDBRANCH   1   2
BRANCH   1  18
HETATM   18  C   UNL     1     -43.294  57.414 -56.249  1.00  0.00     0.241 C 
HETATM   19  N   UNL     1     -44.479  57.500 -56.932  1.00  0.00    -0.353 N 
HETATM   20  H   UNL     1     -45.378  57.491 -56.464  1.00  0.00     0.162 HD
HETATM   21  O   UNL     1     -42.203  57.544 -56.812  1.00  0.00    -0.271 OA
BRANCH  19  22
HETATM   22  C   UNL     1     -44.498  57.790 -58.348  1.00  0.00     0.187 C 
BRANCH  22  23
HETATM   23  C   UNL     1     -44.647  56.541 -59.138  1.00  0.00     0.070 A 
HETATM   24  O   UNL     1     -45.833  56.328 -59.784  1.00  0.00    -0.325 OA
HETATM   25  C   UNL     1     -45.728  55.134 -60.422  1.00  0.00     0.142 A 
HETATM   26  C   UNL     1     -44.489  54.579 -60.207  1.00  0.00     0.027 A 
HETATM   27  C   UNL     1     -43.788  55.487 -59.380  1.00  0.00     0.036 A 
ENDBRANCH  22  23
ENDBRANCH  19  22
ENDBRANCH   1  18
BRANCH   1  28
HETATM   28  C   UNL     1     -44.747  57.663 -54.104  1.00  0.00     0.075 C 
BRANCH  28  29
HETATM   29  C   UNL     1     -44.605  58.226 -52.717  1.00  0.00    -0.028 A 
HETATM   30  C   UNL     1     -44.166  59.541 -52.353  1.00  0.00    -0.002 A 
HETATM   31  C   UNL     1     -44.223  59.630 -50.961  1.00  0.00     0.042 A 
HETATM   32  C   UNL     1     -43.716  60.668 -53.075  1.00  0.00     0.014 A 
HETATM   33  C   UNL     1     -43.873  60.788 -50.258  1.00  0.00     0.030 A 
HETATM   34  N   UNL     1     -44.642  58.407 -50.492  1.00  0.00    -0.365 N 
HETATM   35  C   UNL     1     -43.437  61.891 -50.998  1.00  0.00     0.002 A 
HETATM   36  C   UNL     1     -43.354  61.832 -52.386  1.00  0.00     0.001 A 
HETATM   37  H   UNL     1     -44.743  58.174 -49.513  1.00  0.00     0.165 HD
HETATM   38  C   UNL     1     -44.878  57.556 -51.538  1.00  0.00     0.096 A 
ENDBRANCH  28  29
ENDBRANCH   1  28
TORSDOF 7
ENDMDL
MODEL 5
REMARK VINA RESULT:      -9.0      2.805      8.490
REMARK  7 active torsions:
REMARK  status: ('A' for Active; 'I' for Inactive)
REMARK    1  A    between atoms: C_9  and  C_10 
REMARK       I    between atoms: C_10  and  N_11 
REMARK    2  A    between atoms: N_11  and  C_12 
REMARK    3  A    between atoms: C_12  and  C_13 
REMARK    4  A    between atoms: C_12  and  C_22 
REMARK       I    between atoms: C_13  and  N_14 
REMARK    5  A    between atoms: N_14  and  C_15 
REMARK    6  A    between atoms: C_15  and  C_16 
REMARK    7  A    between atoms: C_22  and  C_23 
ROOT
HETATM    1  C   UNL     1     -42.370  54.442 -55.404  1.00  0.00     0.180 C 
ENDROOT
BRANCH   1   2
HETATM    2  N   UNL     1     -42.200  55.569 -56.344  1.00  0.00    -0.346 N 
HETATM    3  C   UNL     1     -42.938  55.657 -57.500  1.00  0.00     0.249 C 
HETATM    4  O   UNL     1     -43.648  54.760 -57.954  1.00  0.00    -0.271 OA
HETATM    5  H   UNL     1     -41.927  56.432 -55.889  1.00  0.00     0.163 HD
BRANCH   3   6
HETATM    6  C   UNL     1     -42.915  57.010 -58.219  1.00  0.00     0.281 C 
HETATM    7  N   UNL     1     -42.162  56.859 -59.528  1.00  0.00    -0.058 N 
HETATM    8  C   UNL     1     -42.251  58.059 -60.385  1.00  0.00     0.272 C 
HETATM    9  H   UNL     1     -41.181  56.640 -59.308  1.00  0.00     0.278 HD
HETATM   10  H   UNL     1     -42.513  56.011 -59.998  1.00  0.00     0.278 HD
HETATM   11  C   UNL     1     -41.994  59.332 -59.626  1.00  0.00    -0.026 A 
HETATM   12  C   UNL     1     -42.015  59.366 -58.215  1.00  0.00    -0.048 A 
HETATM   13  C   UNL     1     -41.779  60.522 -60.338  1.00  0.00     0.009 A 
HETATM   14  C   UNL     1     -41.787  60.577 -57.549  1.00  0.00     0.008 A 
HETATM   15  C   UNL     1     -42.236  58.108 -57.403  1.00  0.00     0.082 C 
HETATM   16  C   UNL     1     -41.569  61.749 -58.270  1.00  0.00     0.001 A 
HETATM   17  C   UNL     1     -41.568  61.722 -59.662  1.00  0.00     0.001 A 
ENDBRANCH   3   6
ENDBRANCH   1   2
BRANCH   1  18
HETATM   18  C   UNL     1     -40.956  54.040 -54.922  1.00  0.00     0.241 C 
HETATM   19  N   UNL     1     -40.802  52.752 -54.484  1.00  0.00    -0.353 N 
HETATM   20  H   UNL     1     -41.561  52.080 -54.491  1.00  0.00     0.162 HD
HETATM   21  O   UNL     1     -40.001  54.817 -55.020  1.00  0.00    -0.271 OA
BRANCH  19  22
HETATM   22  C   UNL     1     -39.493  52.233 -54.154  1.00  0.00     0.187 C 
BRANCH  22  23
HETATM   23  C   UNL     1     -39.590  51.197 -53.094  1.00  0.00     0.070 A 
HETATM   24  O   UNL     1     -39.533  51.606 -51.790  1.00  0.00    -0.325 OA
HETATM   25  C   UNL     1     -39.634  50.492 -51.020  1.00  0.00     0.142 A 
HETATM   26  C   UNL     1     -39.766  49.372 -51.808  1.00  0.00     0.027 A 
HETATM   27  C   UNL     1     -39.740  49.826 -53.147  1.00  0.00     0.036 A 
ENDBRANCH  22  23
ENDBRANCH  19  22
ENDBRANCH   1  18
BRANCH   1  28
HETATM   28  C   UNL     1     -43.398  54.673 -54.283  1.00  0.00     0.075 C 
BRANCH  28  29
HETATM   29  C   UNL     1     -42.874  55.589 -53.211  1.00  0.00    -0.028 A 
HETATM   30  C   UNL     1     -42.305  55.214 -51.950  1.00  0.00    -0.002 A 
HETATM   31  C   UNL     1     -41.929  56.390 -51.296  1.00  0.00     0.042 A 
HETATM   32  C   UNL     1     -42.078  53.985 -51.294  1.00  0.00     0.014 A 
HETATM   33  C   UNL     1     -41.324  56.397 -50.035  1.00  0.00     0.030 A 
HETATM   34  N   UNL     1     -42.290  57.439 -52.107  1.00  0.00    -0.365 N 
HETATM   35  C   UNL     1     -41.105  55.165 -49.411  1.00  0.00     0.002 A 
HETATM   36  C   UNL     1     -41.480  53.975 -50.028  1.00  0.00     0.001 A 
HETATM   37  H   UNL     1     -42.166  58.414 -51.870  1.00  0.00     0.165 HD
HETATM   38  C   UNL     1     -42.855  56.971 -53.262  1.00  0.00     0.096 A 
ENDBRANCH  28  29
ENDBRANCH   1  28
TORSDOF 7
ENDMDL
MODEL 6
REMARK VINA RESULT:      -8.7      1.765      7.081
REMARK  7 active torsions:
REMARK  status: ('A' for Active; 'I' for Inactive)
REMARK    1  A    between atoms: C_9  and  C_10 
REMARK       I    between atoms: C_10  and  N_11 
REMARK    2  A    between atoms: N_11  and  C_12 
REMARK    3  A    between atoms: C_12  and  C_13 
REMARK    4  A    between atoms: C_12  and  C_22 
REMARK       I    between atoms: C_13  and  N_14 
REMARK    5  A    between atoms: N_14  and  C_15 
REMARK    6  A    between atoms: C_15  and  C_16 
REMARK    7  A    between atoms: C_22  and  C_23 
ROOT
HETATM    1  C   UNL     1     -41.448  56.969 -53.370  1.00  0.00     0.180 C 
ENDROOT
BRANCH   1   2
HETATM    2  N   UNL     1     -42.015  57.321 -54.689  1.00  0.00    -0.346 N 
HETATM    3  C   UNL     1     -41.924  56.467 -55.761  1.00  0.00     0.249 C 
HETATM    4  O   UNL     1     -41.232  55.450 -55.796  1.00  0.00    -0.271 OA
HETATM    5  H   UNL     1     -42.831  57.919 -54.626  1.00  0.00     0.163 HD
BRANCH   3   6
HETATM    6  C   UNL     1     -42.818  56.788 -56.964  1.00  0.00     0.281 C 
HETATM    7  N   UNL     1     -44.158  57.291 -56.460  1.00  0.00    -0.058 N 
HETATM    8  C   UNL     1     -45.020  57.810 -57.541  1.00  0.00     0.272 C 
HETATM    9  H   UNL     1     -44.621  56.520 -55.962  1.00  0.00     0.278 HD
HETATM   10  H   UNL     1     -43.976  57.995 -55.728  1.00  0.00     0.278 HD
HETATM   11  C   UNL     1     -45.073  56.891 -58.731  1.00  0.00    -0.026 A 
HETATM   12  C   UNL     1     -44.133  55.851 -58.900  1.00  0.00    -0.048 A 
HETATM   13  C   UNL     1     -46.046  57.106 -59.719  1.00  0.00     0.009 A 
HETATM   14  C   UNL     1     -44.209  55.029 -60.033  1.00  0.00     0.008 A 
HETATM   15  C   UNL     1     -43.070  55.577 -57.859  1.00  0.00     0.082 C 
HETATM   16  C   UNL     1     -45.185  55.251 -61.002  1.00  0.00     0.001 A 
HETATM   17  C   UNL     1     -46.099  56.289 -60.847  1.00  0.00     0.001 A 
ENDBRANCH   3   6
ENDBRANCH   1   2
BRANCH   1  18
HETATM   18  C   UNL     1     -41.179  58.298 -52.626  1.00  0.00     0.241 C 
HETATM   19  N   UNL     1     -41.814  58.466 -51.424  1.00  0.00    -0.353 N 
HETATM   20  H   UNL     1     -42.414  57.755 -51.022  1.00  0.00     0.162 HD
HETATM   21  O   UNL     1     -40.358  59.116 -53.053  1.00  0.00    -0.271 OA
BRANCH  19  22
HETATM   22  C   UNL     1     -41.515  59.602 -50.580  1.00  0.00     0.187 C 
BRANCH  22  23
HETATM   23  C   UNL     1     -42.579  60.631 -50.687  1.00  0.00     0.070 A 
HETATM   24  O   UNL     1     -43.343  60.881 -49.581  1.00  0.00    -0.325 OA
HETATM   25  C   UNL     1     -44.238  61.843 -49.926  1.00  0.00     0.142 A 
HETATM   26  C   UNL     1     -44.056  62.224 -51.235  1.00  0.00     0.027 A 
HETATM   27  C   UNL     1     -42.983  61.444 -51.727  1.00  0.00     0.036 A 
ENDBRANCH  22  23
ENDBRANCH  19  22
ENDBRANCH   1  18
BRANCH   1  28
HETATM   28  C   UNL     1     -42.248  55.926 -52.571  1.00  0.00     0.075 C 
BRANCH  28  29
HETATM   29  C   UNL     1     -41.362  54.874 -51.963  1.00  0.00    -0.028 A 
HETATM   30  C   UNL     1     -40.897  53.666 -52.580  1.00  0.00    -0.002 A 
HETATM   31  C   UNL     1     -40.076  53.016 -51.656  1.00  0.00     0.042 A 
HETATM   32  C   UNL     1     -41.102  53.056 -53.836  1.00  0.00     0.014 A 
HETATM   33  C   UNL     1     -39.438  51.801 -51.930  1.00  0.00     0.030 A 
HETATM   34  N   UNL     1     -40.072  53.775 -50.511  1.00  0.00    -0.365 N 
HETATM   35  C   UNL     1     -39.653  51.222 -53.184  1.00  0.00     0.002 A 
HETATM   36  C   UNL     1     -40.477  51.836 -54.123  1.00  0.00     0.001 A 
HETATM   37  H   UNL     1     -39.583  53.525 -49.661  1.00  0.00     0.165 HD
HETATM   38  C   UNL     1     -40.837  54.896 -50.684  1.00  0.00     0.096 A 
ENDBRANCH  28  29
ENDBRANCH   1  28
TORSDOF 7
ENDMDL
MODEL 7
REMARK VINA RESULT:      -8.7      2.356      6.814
REMARK  7 active torsions:
REMARK  status: ('A' for Active; 'I' for Inactive)
REMARK    1  A    between atoms: C_9  and  C_10 
REMARK       I    between atoms: C_10  and  N_11 
REMARK    2  A    between atoms: N_11  and  C_12 
REMARK    3  A    between atoms: C_12  and  C_13 
REMARK    4  A    between atoms: C_12  and  C_22 
REMARK       I    between atoms: C_13  and  N_14 
REMARK    5  A    between atoms: N_14  and  C_15 
REMARK    6  A    between atoms: C_15  and  C_16 
REMARK    7  A    between atoms: C_22  and  C_23 
ROOT
HETATM    1  C   UNL     1     -43.561  56.920 -51.400  1.00  0.00     0.180 C 
ENDROOT
BRANCH   1   2
HETATM    2  N   UNL     1     -43.386  57.152 -52.848  1.00  0.00    -0.346 N 
HETATM    3  C   UNL     1     -42.426  58.010 -53.328  1.00  0.00     0.249 C 
HETATM    4  O   UNL     1     -41.765  58.786 -52.638  1.00  0.00    -0.271 OA
HETATM    5  H   UNL     1     -43.627  56.347 -53.413  1.00  0.00     0.163 HD
BRANCH   3   6
HETATM    6  C   UNL     1     -42.123  57.921 -54.827  1.00  0.00     0.281 C 
HETATM    7  N   UNL     1     -42.504  59.234 -55.485  1.00  0.00    -0.058 N 
HETATM    8  C   UNL     1     -42.072  59.318 -56.895  1.00  0.00     0.272 C 
HETATM    9  H   UNL     1     -43.525  59.344 -55.409  1.00  0.00     0.278 HD
HETATM   10  H   UNL     1     -42.122  59.999 -54.908  1.00  0.00     0.278 HD
HETATM   11  C   UNL     1     -42.402  58.076 -57.677  1.00  0.00    -0.026 A 
HETATM   12  C   UNL     1     -42.761  56.873 -57.031  1.00  0.00    -0.048 A 
HETATM   13  C   UNL     1     -42.300  58.101 -59.076  1.00  0.00     0.009 A 
HETATM   14  C   UNL     1     -43.044  55.735 -57.798  1.00  0.00     0.008 A 
HETATM   15  C   UNL     1     -42.890  56.799 -55.525  1.00  0.00     0.082 C 
HETATM   16  C   UNL     1     -42.945  55.777 -59.187  1.00  0.00     0.001 A 
HETATM   17  C   UNL     1     -42.571  56.956 -59.824  1.00  0.00     0.001 A 
ENDBRANCH   3   6
ENDBRANCH   1   2
BRANCH   1  18
HETATM   18  C   UNL     1     -44.621  57.932 -50.905  1.00  0.00     0.241 C 
HETATM   19  N   UNL     1     -44.165  59.174 -50.551  1.00  0.00    -0.353 N 
HETATM   20  H   UNL     1     -43.188  59.436 -50.626  1.00  0.00     0.162 HD
HETATM   21  O   UNL     1     -45.825  57.657 -50.923  1.00  0.00    -0.271 OA
BRANCH  19  22
HETATM   22  C   UNL     1     -45.088  60.236 -50.219  1.00  0.00     0.187 C 
BRANCH  22  23
HETATM   23  C   UNL     1     -44.378  61.535 -50.111  1.00  0.00     0.070 A 
HETATM   24  O   UNL     1     -43.477  61.858 -51.088  1.00  0.00    -0.325 OA
HETATM   25  C   UNL     1     -42.962  63.073 -50.767  1.00  0.00     0.142 A 
HETATM   26  C   UNL     1     -43.524  63.543 -49.603  1.00  0.00     0.027 A 
HETATM   27  C   UNL     1     -44.440  62.553 -49.179  1.00  0.00     0.036 A 
ENDBRANCH  22  23
ENDBRANCH  19  22
ENDBRANCH   1  18
BRANCH   1  28
HETATM   28  C   UNL     1     -43.819  55.458 -50.996  1.00  0.00     0.075 C 
BRANCH  28  29
HETATM   29  C   UNL     1     -42.555  54.644 -50.970  1.00  0.00    -0.028 A 
HETATM   30  C   UNL     1     -41.950  53.942 -52.064  1.00  0.00    -0.002 A 
HETATM   31  C   UNL     1     -40.776  53.356 -51.585  1.00  0.00     0.042 A 
HETATM   32  C   UNL     1     -42.292  53.739 -53.418  1.00  0.00     0.014 A 
HETATM   33  C   UNL     1     -39.922  52.597 -52.393  1.00  0.00     0.030 A 
HETATM   34  N   UNL     1     -40.688  53.656 -50.247  1.00  0.00    -0.365 N 
HETATM   35  C   UNL     1     -40.282  52.418 -53.732  1.00  0.00     0.002 A 
HETATM   36  C   UNL     1     -41.452  52.976 -54.238  1.00  0.00     0.001 A 
HETATM   37  H   UNL     1     -39.951  53.331 -49.635  1.00  0.00     0.165 HD
HETATM   38  C   UNL     1     -41.749  54.432 -49.866  1.00  0.00     0.096 A 
ENDBRANCH  28  29
ENDBRANCH   1  28
TORSDOF 7
ENDMDL
MODEL 8
REMARK VINA RESULT:      -8.7      2.178      7.384
REMARK  7 active torsions:
REMARK  status: ('A' for Active; 'I' for Inactive)
REMARK    1  A    between atoms: C_9  and  C_10 
REMARK       I    between atoms: C_10  and  N_11 
REMARK    2  A    between atoms: N_11  and  C_12 
REMARK    3  A    between atoms: C_12  and  C_13 
REMARK    4  A    between atoms: C_12  and  C_22 
REMARK       I    between atoms: C_13  and  N_14 
REMARK    5  A    between atoms: N_14  and  C_15 
REMARK    6  A    between atoms: C_15  and  C_16 
REMARK    7  A    between atoms: C_22  and  C_23 
ROOT
HETATM    1  C   UNL     1     -41.018  56.893 -52.950  1.00  0.00     0.180 C 
ENDROOT
BRANCH   1   2
HETATM    2  N   UNL     1     -41.455  56.985 -54.358  1.00  0.00    -0.346 N 
HETATM    3  C   UNL     1     -42.625  57.617 -54.707  1.00  0.00     0.249 C 
HETATM    4  O   UNL     1     -43.489  57.990 -53.914  1.00  0.00    -0.271 OA
HETATM    5  H   UNL     1     -40.684  57.018 -55.014  1.00  0.00     0.163 HD
BRANCH   3   6
HETATM    6  C   UNL     1     -42.807  57.934 -56.195  1.00  0.00     0.281 C 
HETATM    7  N   UNL     1     -42.294  56.765 -57.015  1.00  0.00    -0.058 N 
HETATM    8  C   UNL     1     -42.603  56.892 -58.453  1.00  0.00     0.272 C 
HETATM    9  H   UNL     1     -41.279  56.692 -56.864  1.00  0.00     0.278 HD
HETATM   10  H   UNL     1     -42.675  55.900 -56.603  1.00  0.00     0.278 HD
HETATM   11  C   UNL     1     -42.285  58.259 -58.996  1.00  0.00    -0.026 A 
HETATM   12  C   UNL     1     -42.054  59.356 -58.137  1.00  0.00    -0.048 A 
HETATM   13  C   UNL     1     -42.269  58.457 -60.384  1.00  0.00     0.009 A 
HETATM   14  C   UNL     1     -41.778  60.616 -58.686  1.00  0.00     0.008 A 
HETATM   15  C   UNL     1     -42.055  59.190 -56.634  1.00  0.00     0.082 C 
HETATM   16  C   UNL     1     -41.760  60.796 -60.067  1.00  0.00     0.001 A 
HETATM   17  C   UNL     1     -42.007  59.720 -60.915  1.00  0.00     0.001 A 
ENDBRANCH   3   6
ENDBRANCH   1   2
BRANCH   1  18
HETATM   18  C   UNL     1     -40.881  58.340 -52.423  1.00  0.00     0.241 C 
HETATM   19  N   UNL     1     -41.634  58.668 -51.327  1.00  0.00    -0.353 N 
HETATM   20  H   UNL     1     -42.237  57.998 -50.862  1.00  0.00     0.162 HD
HETATM   21  O   UNL     1     -40.062  59.124 -52.913  1.00  0.00    -0.271 OA
BRANCH  19  22
HETATM   22  C   UNL     1     -41.468  59.944 -50.668  1.00  0.00     0.187 C 
BRANCH  22  23
HETATM   23  C   UNL     1     -42.731  60.722 -50.704  1.00  0.00     0.070 A 
HETATM   24  O   UNL     1     -43.866  60.085 -51.126  1.00  0.00    -0.325 OA
HETATM   25  C   UNL     1     -44.873  60.996 -51.077  1.00  0.00     0.142 A 
HETATM   26  C   UNL     1     -44.408  62.206 -50.620  1.00  0.00     0.027 A 
HETATM   27  C   UNL     1     -43.026  62.031 -50.376  1.00  0.00     0.036 A 
ENDBRANCH  22  23
ENDBRANCH  19  22
ENDBRANCH   1  18
BRANCH   1  28
HETATM   28  C   UNL     1     -41.857  55.955 -52.064  1.00  0.00     0.075 C 
BRANCH  28  29
HETATM   29  C   UNL     1     -41.088  54.733 -51.643  1.00  0.00    -0.028 A 
HETATM   30  C   UNL     1     -40.694  53.628 -52.466  1.00  0.00    -0.002 A 
HETATM   31  C   UNL     1     -39.973  52.743 -51.660  1.00  0.00     0.042 A 
HETATM   32  C   UNL     1     -40.886  53.287 -53.823  1.00  0.00     0.014 A 
HETATM   33  C   UNL     1     -39.422  51.551 -52.144  1.00  0.00     0.030 A 
HETATM   34  N   UNL     1     -39.962  53.268 -50.390  1.00  0.00    -0.365 N 
HETATM   35  C   UNL     1     -39.623  51.243 -53.492  1.00  0.00     0.002 A 
HETATM   36  C   UNL     1     -40.348  52.094 -54.321  1.00  0.00     0.001 A 
HETATM   37  H   UNL     1     -39.537  52.819 -49.589  1.00  0.00     0.165 HD
HETATM   38  C   UNL     1     -40.626  54.465 -50.367  1.00  0.00     0.096 A 
ENDBRANCH  28  29
ENDBRANCH   1  28
TORSDOF 7
ENDMDL
MODEL 9
REMARK VINA RESULT:      -8.6      2.705      7.536
REMARK  7 active torsions:
REMARK  status: ('A' for Active; 'I' for Inactive)
REMARK    1  A    between atoms: C_9  and  C_10 
REMARK       I    between atoms: C_10  and  N_11 
REMARK    2  A    between atoms: N_11  and  C_12 
REMARK    3  A    between atoms: C_12  and  C_13 
REMARK    4  A    between atoms: C_12  and  C_22 
REMARK       I    between atoms: C_13  and  N_14 
REMARK    5  A    between atoms: N_14  and  C_15 
REMARK    6  A    between atoms: C_15  and  C_16 
REMARK    7  A    between atoms: C_22  and  C_23 
ROOT
HETATM    1  C   UNL     1     -43.439  56.604 -52.499  1.00  0.00     0.180 C 
ENDROOT
BRANCH   1   2
HETATM    2  N   UNL     1     -43.485  57.353 -53.772  1.00  0.00    -0.346 N 
HETATM    3  C   UNL     1     -42.390  57.434 -54.598  1.00  0.00     0.249 C 
HETATM    4  O   UNL     1     -41.252  57.073 -54.298  1.00  0.00    -0.271 OA
HETATM    5  H   UNL     1     -44.403  57.357 -54.200  1.00  0.00     0.163 HD
BRANCH   3   6
HETATM    6  C   UNL     1     -42.647  57.948 -56.018  1.00  0.00     0.281 C 
HETATM    7  N   UNL     1     -42.214  56.886 -57.012  1.00  0.00    -0.058 N 
HETATM    8  C   UNL     1     -42.599  57.206 -58.401  1.00  0.00     0.272 C 
HETATM    9  H   UNL     1     -41.194  56.773 -56.932  1.00  0.00     0.278 HD
HETATM   10  H   UNL     1     -42.596  55.982 -56.694  1.00  0.00     0.278 HD
HETATM   11  C   UNL     1     -42.274  58.626 -58.779  1.00  0.00    -0.026 A 
HETATM   12  C   UNL     1     -41.965  59.596 -57.801  1.00  0.00    -0.048 A 
HETATM   13  C   UNL     1     -42.331  59.005 -60.129  1.00  0.00     0.009 A 
HETATM   14  C   UNL     1     -41.685  60.911 -58.196  1.00  0.00     0.008 A 
HETATM   15  C   UNL     1     -41.886  59.234 -56.334  1.00  0.00     0.082 C 
HETATM   16  C   UNL     1     -41.739  61.270 -59.541  1.00  0.00     0.001 A 
HETATM   17  C   UNL     1     -42.064  60.320 -60.505  1.00  0.00     0.001 A 
ENDBRANCH   3   6
ENDBRANCH   1   2
BRANCH   1  18
HETATM   18  C   UNL     1     -44.445  57.282 -51.539  1.00  0.00     0.241 C 
HETATM   19  N   UNL     1     -44.891  58.526 -51.898  1.00  0.00    -0.353 N 
HETATM   20  H   UNL     1     -44.602  58.980 -52.757  1.00  0.00     0.162 HD
HETATM   21  O   UNL     1     -44.890  56.686 -50.553  1.00  0.00    -0.271 OA
BRANCH  19  22
HETATM   22  C   UNL     1     -45.941  59.181 -51.151  1.00  0.00     0.187 C 
BRANCH  22  23
HETATM   23  C   UNL     1     -45.370  60.140 -50.172  1.00  0.00     0.070 A 
HETATM   24  O   UNL     1     -45.871  60.132 -48.899  1.00  0.00    -0.325 OA
HETATM   25  C   UNL     1     -45.203  61.089 -48.204  1.00  0.00     0.142 A 
HETATM   26  C   UNL     1     -44.272  61.706 -49.006  1.00  0.00     0.027 A 
HETATM   27  C   UNL     1     -44.377  61.093 -50.277  1.00  0.00     0.036 A 
ENDBRANCH  22  23
ENDBRANCH  19  22
ENDBRANCH   1  18
BRANCH   1  28
HETATM   28  C   UNL     1     -43.592  55.079 -52.631  1.00  0.00     0.075 C 
BRANCH  28  29
HETATM   29  C   UNL     1     -42.446  54.336 -52.002  1.00  0.00    -0.028 A 
HETATM   30  C   UNL     1     -41.532  53.440 -52.647  1.00  0.00    -0.002 A 
HETATM   31  C   UNL     1     -40.616  53.013 -51.684  1.00  0.00     0.042 A 
HETATM   32  C   UNL     1     -41.397  52.944 -53.961  1.00  0.00     0.014 A 
HETATM   33  C   UNL     1     -39.567  52.132 -51.970  1.00  0.00     0.030 A 
HETATM   34  N   UNL     1     -40.980  53.592 -50.492  1.00  0.00    -0.365 N 
HETATM   35  C   UNL     1     -39.454  51.661 -53.281  1.00  0.00     0.002 A 
HETATM   36  C   UNL     1     -40.357  52.056 -54.263  1.00  0.00     0.001 A 
HETATM   37  H   UNL     1     -40.510  53.432 -49.610  1.00  0.00     0.165 HD
HETATM   38  C   UNL     1     -42.076  54.392 -50.670  1.00  0.00     0.096 A 
ENDBRANCH  28  29
ENDBRANCH   1  28
TORSDOF 7
ENDMDL
MODEL 10
REMARK VINA RESULT:      -8.5      2.623      7.819
REMARK  7 active torsions:
REMARK  status: ('A' for Active; 'I' for Inactive)
REMARK    1  A    between atoms: C_9  and  C_10 
REMARK       I    between atoms: C_10  and  N_11 
REMARK    2  A    between atoms: N_11  and  C_12 
REMARK    3  A    between atoms: C_12  and  C_13 
REMARK    4  A    between atoms: C_12  and  C_22 
REMARK       I    between atoms: C_13  and  N_14 
REMARK    5  A    between atoms: N_14  and  C_15 
REMARK    6  A    between atoms: C_15  and  C_16 
REMARK    7  A    between atoms: C_22  and  C_23 
ROOT
HETATM    1  C   UNL     1     -42.776  55.509 -54.192  1.00  0.00     0.180 C 
ENDROOT
BRANCH   1   2
HETATM    2  N   UNL     1     -42.553  56.311 -55.413  1.00  0.00    -0.346 N 
HETATM    3  C   UNL     1     -42.905  55.842 -56.655  1.00  0.00     0.249 C 
HETATM    4  O   UNL     1     -43.254  54.687 -56.901  1.00  0.00    -0.271 OA
HETATM    5  H   UNL     1     -42.606  57.309 -55.250  1.00  0.00     0.163 HD
BRANCH   3   6
HETATM    6  C   UNL     1     -42.930  56.873 -57.789  1.00  0.00     0.281 C 
HETATM    7  N   UNL     1     -42.179  56.311 -58.982  1.00  0.00    -0.058 N 
HETATM    8  C   UNL     1     -42.312  57.148 -60.191  1.00  0.00     0.272 C 
HETATM    9  H   UNL     1     -41.191  56.208 -58.716  1.00  0.00     0.278 HD
HETATM   10  H   UNL     1     -42.505  55.344 -59.133  1.00  0.00     0.278 HD
HETATM   11  C   UNL     1     -42.091  58.610 -59.910  1.00  0.00    -0.026 A 
HETATM   12  C   UNL     1     -42.106  59.117 -58.592  1.00  0.00    -0.048 A 
HETATM   13  C   UNL     1     -41.919  59.495 -60.985  1.00  0.00     0.009 A 
HETATM   14  C   UNL     1     -41.913  60.488 -58.378  1.00  0.00     0.008 A 
HETATM   15  C   UNL     1     -42.282  58.201 -57.401  1.00  0.00     0.082 C 
HETATM   16  C   UNL     1     -41.737  61.354 -59.455  1.00  0.00     0.001 A 
HETATM   17  C   UNL     1     -41.743  60.859 -60.756  1.00  0.00     0.001 A 
ENDBRANCH   3   6
ENDBRANCH   1   2
BRANCH   1  18
HETATM   18  C   UNL     1     -41.394  54.988 -53.734  1.00  0.00     0.241 C 
HETATM   19  N   UNL     1     -41.395  53.972 -52.816  1.00  0.00    -0.353 N 
HETATM   20  H   UNL     1     -42.252  53.558 -52.465  1.00  0.00     0.162 HD
HETATM   21  O   UNL     1     -40.351  55.407 -54.246  1.00  0.00    -0.271 OA
BRANCH  19  22
HETATM   22  C   UNL     1     -40.165  53.315 -52.436  1.00  0.00     0.187 C 
BRANCH  22  23
HETATM   23  C   UNL     1     -40.073  51.970 -53.058  1.00  0.00     0.070 A 
HETATM   24  O   UNL     1     -39.671  50.925 -52.272  1.00  0.00    -0.325 OA
HETATM   25  C   UNL     1     -39.659  49.818 -53.059  1.00  0.00     0.142 A 
HETATM   26  C   UNL     1     -40.058  50.131 -54.337  1.00  0.00     0.027 A 
HETATM   27  C   UNL     1     -40.328  51.519 -54.338  1.00  0.00     0.036 A 
ENDBRANCH  22  23
ENDBRANCH  19  22
ENDBRANCH   1  18
BRANCH   1  28
HETATM   28  C   UNL     1     -43.607  56.200 -53.098  1.00  0.00     0.075 C 
BRANCH  28  29
HETATM   29  C   UNL     1     -43.202  57.634 -52.897  1.00  0.00    -0.028 A 
HETATM   30  C   UNL     1     -43.748  58.790 -53.546  1.00  0.00    -0.002 A 
HETATM   31  C   UNL     1     -43.092  59.909 -53.026  1.00  0.00     0.042 A 
HETATM   32  C   UNL     1     -44.735  58.996 -54.534  1.00  0.00     0.014 A 
HETATM   33  C   UNL     1     -43.384  61.216 -53.430  1.00  0.00     0.030 A 
HETATM   34  N   UNL     1     -42.159  59.451 -52.127  1.00  0.00    -0.365 N 
HETATM   35  C   UNL     1     -44.370  61.391 -54.405  1.00  0.00     0.002 A 
HETATM   36  C   UNL     1     -45.034  60.297 -54.954  1.00  0.00     0.001 A 
HETATM   37  H   UNL     1     -41.514  60.044 -51.621  1.00  0.00     0.165 HD
HETATM   38  C   UNL     1     -42.218  58.087 -52.038  1.00  0.00     0.096 A 
ENDBRANCH  28  29
ENDBRANCH   1  28
TORSDOF 7
ENDMDL
