MODEL 1
REMARK VINA RESULT:      -8.0      0.000      0.000
REMARK  3 active torsions:
REMARK  status: ('A' for Active; 'I' for Inactive)
REMARK    1  A    between atoms: C_9  and  C_10 
REMARK    2  A    between atoms: C_16  and  C_17 
REMARK       I    between atoms: C_17  and  N_18 
REMARK    3  A    between atoms: N_18  and  C_19 
ROOT
HETATM    1  C   UNL     1     -41.073  56.255 -49.905  1.00  0.00     0.070 C 
HETATM    2  C   UNL     1     -42.043  56.805 -50.920  1.00  0.00     0.037 C 
HETATM    3  N   UNL     1     -42.390  58.143 -50.756  1.00  0.00    -0.192 N 
HETATM    4  C   UNL     1     -43.418  58.716 -51.411  1.00  0.00     0.725 A 
HETATM    5  N   UNL     1     -44.054  58.020 -52.405  1.00  0.00    -0.082 N 
HETATM    6  N   UNL     1     -45.148  58.684 -52.845  1.00  0.00    -0.149 NA
HETATM    7  C   UNL     1     -45.057  59.809 -52.124  1.00  0.00     0.275 A 
HETATM    8  N   UNL     1     -44.015  59.868 -51.235  1.00  0.00    -0.054 NA
HETATM    9  C   UNL     1     -43.673  56.675 -52.838  1.00  0.00     0.221 C 
HETATM   10  C   UNL     1     -42.626  56.079 -51.906  1.00  0.00     0.064 C 
HETATM   11  H   UNL     1     -41.999  58.637 -49.959  1.00  0.00     0.184 HD
ENDROOT
BRANCH  10  12
HETATM   12  C   UNL     1     -42.404  54.626 -52.125  1.00  0.00     0.257 C 
HETATM   13  N   UNL     1     -41.186  54.341 -52.691  1.00  0.00    -0.308 N 
HETATM   14  H   UNL     1     -40.615  55.116 -52.994  1.00  0.00     0.170 HD
HETATM   15  O   UNL     1     -43.309  53.857 -51.830  1.00  0.00    -0.267 OA
BRANCH  13  16
HETATM   16  C   UNL     1     -40.664  53.052 -52.866  1.00  0.00     0.129 A 
HETATM   17  N   UNL     1     -40.007  52.437 -51.869  1.00  0.00    -0.243 NA
HETATM   18  C   UNL     1     -39.496  51.210 -52.103  1.00  0.00     0.119 A 
HETATM   19  C   UNL     1     -39.596  50.555 -53.318  1.00  0.00     0.019 A 
HETATM   20  C   UNL     1     -40.269  51.200 -54.346  1.00  0.00     0.005 A 
HETATM   21  C   UNL     1     -40.816  52.463 -54.119  1.00  0.00     0.050 A 
ENDBRANCH  13  16
ENDBRANCH  10  12
BRANCH   9  22
HETATM   22  C   UNL     1     -43.198  56.747 -54.285  1.00  0.00     0.064 A 
HETATM   23  N   UNL     1     -42.608  57.897 -54.720  1.00  0.00    -0.263 NA
HETATM   24  C   UNL     1     -42.262  57.964 -56.026  1.00  0.00     0.117 A 
HETATM   25  C   UNL     1     -42.459  56.936 -56.931  1.00  0.00     0.019 A 
HETATM   26  C   UNL     1     -43.048  55.764 -56.476  1.00  0.00     0.003 A 
HETATM   27  C   UNL     1     -43.426  55.665 -55.140  1.00  0.00     0.030 A 
ENDBRANCH   9  22
TORSDOF 3
ENDMDL
MODEL 2
REMARK VINA RESULT:      -7.8      2.168      5.564
REMARK  3 active torsions:
REMARK  status: ('A' for Active; 'I' for Inactive)
REMARK    1  A    between atoms: C_9  and  C_10 
REMARK    2  A    between atoms: C_16  and  C_17 
REMARK       I    between atoms: C_17  and  N_18 
REMARK    3  A    between atoms: N_18  and  C_19 
ROOT
HETATM    1  C   UNL     1     -40.666  52.932 -54.518  1.00  0.00     0.070 C 
HETATM    2  C   UNL     1     -40.968  53.777 -53.306  1.00  0.00     0.037 C 
HETATM    3  N   UNL     1     -40.192  53.515 -52.181  1.00  0.00    -0.192 N 
HETATM    4  C   UNL     1     -40.492  53.996 -50.959  1.00  0.00     0.725 A 
HETATM    5  N   UNL     1     -41.498  54.915 -50.826  1.00  0.00    -0.082 N 
HETATM    6  N   UNL     1     -41.760  55.170 -49.523  1.00  0.00    -0.149 NA
HETATM    7  C   UNL     1     -40.814  54.427 -48.935  1.00  0.00     0.275 A 
HETATM    8  N   UNL     1     -40.020  53.692 -49.776  1.00  0.00    -0.054 NA
HETATM    9  C   UNL     1     -42.275  55.448 -51.945  1.00  0.00     0.221 C 
HETATM   10  C   UNL     1     -41.962  54.698 -53.233  1.00  0.00     0.064 C 
HETATM   11  H   UNL     1     -39.511  52.763 -52.243  1.00  0.00     0.184 HD
ENDROOT
BRANCH  10  12
HETATM   12  C   UNL     1     -42.910  55.002 -54.336  1.00  0.00     0.257 C 
HETATM   13  N   UNL     1     -42.427  55.925 -55.231  1.00  0.00    -0.308 N 
HETATM   14  H   UNL     1     -41.552  56.377 -55.014  1.00  0.00     0.170 HD
HETATM   15  O   UNL     1     -44.004  54.453 -54.319  1.00  0.00    -0.267 OA
BRANCH  13  16
HETATM   16  C   UNL     1     -43.050  56.278 -56.436  1.00  0.00     0.129 A 
HETATM   17  N   UNL     1     -43.792  57.394 -56.523  1.00  0.00    -0.243 NA
HETATM   18  C   UNL     1     -44.396  57.669 -57.699  1.00  0.00     0.119 A 
HETATM   19  C   UNL     1     -44.308  56.857 -58.815  1.00  0.00     0.019 A 
HETATM   20  C   UNL     1     -43.547  55.700 -58.715  1.00  0.00     0.005 A 
HETATM   21  C   UNL     1     -42.903  55.407 -57.513  1.00  0.00     0.050 A 
ENDBRANCH  13  16
ENDBRANCH  10  12
BRANCH   9  22
HETATM   22  C   UNL     1     -42.002  56.945 -52.057  1.00  0.00     0.064 A 
HETATM   23  N   UNL     1     -40.882  57.355 -52.718  1.00  0.00    -0.263 NA
HETATM   24  C   UNL     1     -40.623  58.682 -52.739  1.00  0.00     0.117 A 
HETATM   25  C   UNL     1     -41.429  59.637 -52.146  1.00  0.00     0.019 A 
HETATM   26  C   UNL     1     -42.575  59.211 -51.488  1.00  0.00     0.003 A 
HETATM   27  C   UNL     1     -42.867  57.851 -51.437  1.00  0.00     0.030 A 
ENDBRANCH   9  22
TORSDOF 3
ENDMDL
MODEL 3
REMARK VINA RESULT:      -7.6      2.184      4.031
REMARK  3 active torsions:
REMARK  status: ('A' for Active; 'I' for Inactive)
REMARK    1  A    between atoms: C_9  and  C_10 
REMARK    2  A    between atoms: C_16  and  C_17 
REMARK       I    between atoms: C_17  and  N_18 
REMARK    3  A    between atoms: N_18  and  C_19 
ROOT
HETATM    1  C   UNL     1     -43.526  54.268 -55.915  1.00  0.00     0.070 C 
HETATM    2  C   UNL     1     -42.990  55.622 -55.524  1.00  0.00     0.037 C 
HETATM    3  N   UNL     1     -43.781  56.710 -55.883  1.00  0.00    -0.192 N 
HETATM    4  C   UNL     1     -43.340  57.981 -55.834  1.00  0.00     0.725 A 
HETATM    5  N   UNL     1     -42.129  58.252 -55.255  1.00  0.00    -0.082 N 
HETATM    6  N   UNL     1     -41.781  59.548 -55.429  1.00  0.00    -0.149 NA
HETATM    7  C   UNL     1     -42.871  60.011 -56.052  1.00  0.00     0.275 A 
HETATM    8  N   UNL     1     -43.847  59.086 -56.320  1.00  0.00    -0.054 NA
HETATM    9  C   UNL     1     -41.267  57.239 -54.644  1.00  0.00     0.221 C 
HETATM   10  C   UNL     1     -41.792  55.836 -54.924  1.00  0.00     0.064 C 
HETATM   11  H   UNL     1     -44.633  56.521 -56.404  1.00  0.00     0.184 HD
ENDROOT
BRANCH  10  12
HETATM   12  C   UNL     1     -40.822  54.766 -54.573  1.00  0.00     0.257 C 
HETATM   13  N   UNL     1     -41.312  53.867 -53.658  1.00  0.00    -0.308 N 
HETATM   14  H   UNL     1     -42.209  54.062 -53.239  1.00  0.00     0.170 HD
HETATM   15  O   UNL     1     -39.711  54.810 -55.084  1.00  0.00    -0.267 OA
BRANCH  13  16
HETATM   16  C   UNL     1     -40.667  52.685 -53.269  1.00  0.00     0.129 A 
HETATM   17  N   UNL     1     -40.128  52.569 -52.043  1.00  0.00    -0.243 NA
HETATM   18  C   UNL     1     -39.490  51.420 -51.734  1.00  0.00     0.119 A 
HETATM   19  C   UNL     1     -39.344  50.362 -52.612  1.00  0.00     0.019 A 
HETATM   20  C   UNL     1     -39.896  50.492 -53.879  1.00  0.00     0.005 A 
HETATM   21  C   UNL     1     -40.571  51.665 -54.213  1.00  0.00     0.050 A 
ENDBRANCH  13  16
ENDBRANCH  10  12
BRANCH   9  22
HETATM   22  C   UNL     1     -41.151  57.535 -53.153  1.00  0.00     0.064 A 
HETATM   23  N   UNL     1     -41.937  56.835 -52.286  1.00  0.00    -0.263 NA
HETATM   24  C   UNL     1     -41.869  57.167 -50.977  1.00  0.00     0.117 A 
HETATM   25  C   UNL     1     -41.046  58.158 -50.472  1.00  0.00     0.019 A 
HETATM   26  C   UNL     1     -40.238  58.855 -51.360  1.00  0.00     0.003 A 
HETATM   27  C   UNL     1     -40.290  58.547 -52.716  1.00  0.00     0.030 A 
ENDBRANCH   9  22
TORSDOF 3
ENDMDL
MODEL 4
REMARK VINA RESULT:      -7.5     15.654     18.457
REMARK  3 active torsions:
REMARK  status: ('A' for Active; 'I' for Inactive)
REMARK    1  A    between atoms: C_9  and  C_10 
REMARK    2  A    between atoms: C_16  and  C_17 
REMARK       I    between atoms: C_17  and  N_18 
REMARK    3  A    between atoms: N_18  and  C_19 
ROOT
HETATM    1  C   UNL     1     -36.836  39.961 -50.579  1.00  0.00     0.070 C 
HETATM    2  C   UNL     1     -35.330  39.887 -50.591  1.00  0.00     0.037 C 
HETATM    3  N   UNL     1     -34.753  39.183 -49.538  1.00  0.00    -0.192 N 
HETATM    4  C   UNL     1     -33.436  39.231 -49.262  1.00  0.00     0.725 A 
HETATM    5  N   UNL     1     -32.587  39.856 -50.136  1.00  0.00    -0.082 N 
HETATM    6  N   UNL     1     -31.336  39.940 -49.629  1.00  0.00    -0.149 NA
HETATM    7  C   UNL     1     -31.493  39.270 -48.480  1.00  0.00     0.275 A 
HETATM    8  N   UNL     1     -32.761  38.821 -48.217  1.00  0.00    -0.054 NA
HETATM    9  C   UNL     1     -33.012  40.470 -51.395  1.00  0.00     0.221 C 
HETATM   10  C   UNL     1     -34.532  40.504 -51.498  1.00  0.00     0.064 C 
HETATM   11  H   UNL     1     -35.375  38.802 -48.830  1.00  0.00     0.184 HD
ENDROOT
BRANCH  10  12
HETATM   12  C   UNL     1     -35.025  41.356 -52.612  1.00  0.00     0.257 C 
HETATM   13  N   UNL     1     -35.166  40.675 -53.797  1.00  0.00    -0.308 N 
HETATM   14  H   UNL     1     -34.835  39.722 -53.834  1.00  0.00     0.170 HD
HETATM   15  O   UNL     1     -35.212  42.544 -52.386  1.00  0.00    -0.267 OA
BRANCH  13  16
HETATM   16  C   UNL     1     -35.750  41.197 -54.958  1.00  0.00     0.129 A 
HETATM   17  N   UNL     1     -37.086  41.257 -55.087  1.00  0.00    -0.243 NA
HETATM   18  C   UNL     1     -37.595  41.739 -56.240  1.00  0.00     0.119 A 
HETATM   19  C   UNL     1     -36.820  42.160 -57.305  1.00  0.00     0.019 A 
HETATM   20  C   UNL     1     -35.440  42.088 -57.169  1.00  0.00     0.005 A 
HETATM   21  C   UNL     1     -34.895  41.606 -55.979  1.00  0.00     0.050 A 
ENDBRANCH  13  16
ENDBRANCH  10  12
BRANCH   9  22
HETATM   22  C   UNL     1     -32.363  39.712 -52.548  1.00  0.00     0.064 A 
HETATM   23  N   UNL     1     -31.997  40.409 -53.662  1.00  0.00    -0.263 NA
HETATM   24  C   UNL     1     -31.491  39.704 -54.699  1.00  0.00     0.117 A 
HETATM   25  C   UNL     1     -31.313  38.332 -54.688  1.00  0.00     0.019 A 
HETATM   26  C   UNL     1     -31.674  37.633 -53.544  1.00  0.00     0.003 A 
HETATM   27  C   UNL     1     -32.208  38.325 -52.461  1.00  0.00     0.030 A 
ENDBRANCH   9  22
TORSDOF 3
ENDMDL
MODEL 5
REMARK VINA RESULT:      -7.4      2.387      4.991
REMARK  3 active torsions:
REMARK  status: ('A' for Active; 'I' for Inactive)
REMARK    1  A    between atoms: C_9  and  C_10 
REMARK    2  A    between atoms: C_16  and  C_17 
REMARK       I    between atoms: C_17  and  N_18 
REMARK    3  A    between atoms: N_18  and  C_19 
ROOT
HETATM    1  C   UNL     1     -43.498  55.448 -58.588  1.00  0.00     0.070 C 
HETATM    2  C   UNL     1     -43.082  56.754 -57.961  1.00  0.00     0.037 C 
HETATM    3  N   UNL     1     -43.051  57.850 -58.819  1.00  0.00    -0.192 N 
HETATM    4  C   UNL     1     -42.472  59.020 -58.488  1.00  0.00     0.725 A 
HETATM    5  N   UNL     1     -42.038  59.217 -57.204  1.00  0.00    -0.082 N 
HETATM    6  N   UNL     1     -41.352  60.378 -57.091  1.00  0.00    -0.149 NA
HETATM    7  C   UNL     1     -41.487  60.862 -58.332  1.00  0.00     0.275 A 
HETATM    8  N   UNL     1     -42.162  60.063 -59.217  1.00  0.00    -0.054 NA
HETATM    9  C   UNL     1     -42.185  58.235 -56.129  1.00  0.00     0.221 C 
HETATM   10  C   UNL     1     -42.686  56.903 -56.672  1.00  0.00     0.064 C 
HETATM   11  H   UNL     1     -43.274  57.689 -59.797  1.00  0.00     0.184 HD
ENDROOT
BRANCH  10  12
HETATM   12  C   UNL     1     -42.592  55.795 -55.687  1.00  0.00     0.257 C 
HETATM   13  N   UNL     1     -41.302  55.386 -55.449  1.00  0.00    -0.308 N 
HETATM   14  H   UNL     1     -40.570  55.783 -56.019  1.00  0.00     0.170 HD
HETATM   15  O   UNL     1     -43.634  55.343 -55.231  1.00  0.00    -0.267 OA
BRANCH  13  16
HETATM   16  C   UNL     1     -40.920  54.468 -54.462  1.00  0.00     0.129 A 
HETATM   17  N   UNL     1     -40.934  54.811 -53.164  1.00  0.00    -0.243 NA
HETATM   18  C   UNL     1     -40.524  53.898 -52.257  1.00  0.00     0.119 A 
HETATM   19  C   UNL     1     -40.075  52.634 -52.591  1.00  0.00     0.019 A 
HETATM   20  C   UNL     1     -40.055  52.288 -53.935  1.00  0.00     0.005 A 
HETATM   21  C   UNL     1     -40.488  53.213 -54.885  1.00  0.00     0.050 A 
ENDBRANCH  13  16
ENDBRANCH  10  12
BRANCH   9  22
HETATM   22  C   UNL     1     -43.106  58.817 -55.062  1.00  0.00     0.064 A 
HETATM   23  N   UNL     1     -42.624  58.964 -53.795  1.00  0.00    -0.263 NA
HETATM   24  C   UNL     1     -43.481  59.413 -52.850  1.00  0.00     0.117 A 
HETATM   25  C   UNL     1     -44.803  59.741 -53.099  1.00  0.00     0.019 A 
HETATM   26  C   UNL     1     -45.281  59.602 -54.395  1.00  0.00     0.003 A 
HETATM   27  C   UNL     1     -44.428  59.133 -55.390  1.00  0.00     0.030 A 
ENDBRANCH   9  22
TORSDOF 3
ENDMDL
MODEL 6
REMARK VINA RESULT:      -7.4      2.076      3.214
REMARK  3 active torsions:
REMARK  status: ('A' for Active; 'I' for Inactive)
REMARK    1  A    between atoms: C_9  and  C_10 
REMARK    2  A    between atoms: C_16  and  C_17 
REMARK       I    between atoms: C_17  and  N_18 
REMARK    3  A    between atoms: N_18  and  C_19 
ROOT
HETATM    1  C   UNL     1     -44.384  54.889 -50.235  1.00  0.00     0.070 C 
HETATM    2  C   UNL     1     -43.927  56.104 -51.002  1.00  0.00     0.037 C 
HETATM    3  N   UNL     1     -44.866  57.124 -51.129  1.00  0.00    -0.192 N 
HETATM    4  C   UNL     1     -44.713  58.155 -51.981  1.00  0.00     0.725 A 
HETATM    5  N   UNL     1     -43.521  58.316 -52.636  1.00  0.00    -0.082 N 
HETATM    6  N   UNL     1     -43.597  59.305 -53.557  1.00  0.00    -0.149 NA
HETATM    7  C   UNL     1     -44.843  59.745 -53.338  1.00  0.00     0.275 A 
HETATM    8  N   UNL     1     -45.559  59.069 -52.386  1.00  0.00    -0.054 NA
HETATM    9  C   UNL     1     -42.361  57.443 -52.455  1.00  0.00     0.221 C 
HETATM   10  C   UNL     1     -42.721  56.226 -51.612  1.00  0.00     0.064 C 
HETATM   11  H   UNL     1     -45.788  56.967 -50.731  1.00  0.00     0.184 HD
ENDROOT
BRANCH  10  12
HETATM   12  C   UNL     1     -41.673  55.173 -51.624  1.00  0.00     0.257 C 
HETATM   13  N   UNL     1     -41.945  54.144 -52.492  1.00  0.00    -0.308 N 
HETATM   14  H   UNL     1     -42.845  54.138 -52.949  1.00  0.00     0.170 HD
HETATM   15  O   UNL     1     -40.726  55.298 -50.859  1.00  0.00    -0.267 OA
BRANCH  13  16
HETATM   16  C   UNL     1     -41.060  53.105 -52.808  1.00  0.00     0.129 A 
HETATM   17  N   UNL     1     -40.319  52.520 -51.851  1.00  0.00    -0.243 NA
HETATM   18  C   UNL     1     -39.458  51.546 -52.216  1.00  0.00     0.119 A 
HETATM   19  C   UNL     1     -39.283  51.127 -53.523  1.00  0.00     0.019 A 
HETATM   20  C   UNL     1     -40.046  51.740 -54.507  1.00  0.00     0.005 A 
HETATM   21  C   UNL     1     -40.951  52.738 -54.147  1.00  0.00     0.050 A 
ENDBRANCH  13  16
ENDBRANCH  10  12
BRANCH   9  22
HETATM   22  C   UNL     1     -41.227  58.262 -51.848  1.00  0.00     0.064 A 
HETATM   23  N   UNL     1     -40.082  58.425 -52.570  1.00  0.00    -0.263 NA
HETATM   24  C   UNL     1     -39.064  59.092 -51.981  1.00  0.00     0.117 A 
HETATM   25  C   UNL     1     -39.124  59.625 -50.705  1.00  0.00     0.019 A 
HETATM   26  C   UNL     1     -40.299  59.467 -49.983  1.00  0.00     0.003 A 
HETATM   27  C   UNL     1     -41.363  58.776 -50.555  1.00  0.00     0.030 A 
ENDBRANCH   9  22
TORSDOF 3
ENDMDL
MODEL 7
REMARK VINA RESULT:      -7.3      2.231      5.730
REMARK  3 active torsions:
REMARK  status: ('A' for Active; 'I' for Inactive)
REMARK    1  A    between atoms: C_9  and  C_10 
REMARK    2  A    between atoms: C_16  and  C_17 
REMARK       I    between atoms: C_17  and  N_18 
REMARK    3  A    between atoms: N_18  and  C_19 
ROOT
HETATM    1  C   UNL     1     -44.161  56.590 -51.564  1.00  0.00     0.070 C 
HETATM    2  C   UNL     1     -42.921  55.766 -51.326  1.00  0.00     0.037 C 
HETATM    3  N   UNL     1     -42.791  55.228 -50.049  1.00  0.00    -0.192 N 
HETATM    4  C   UNL     1     -41.644  54.685 -49.598  1.00  0.00     0.725 A 
HETATM    5  N   UNL     1     -40.603  54.493 -50.467  1.00  0.00    -0.082 N 
HETATM    6  N   UNL     1     -39.490  54.083 -49.816  1.00  0.00    -0.149 NA
HETATM    7  C   UNL     1     -39.965  53.973 -48.569  1.00  0.00     0.275 A 
HETATM    8  N   UNL     1     -41.275  54.333 -48.392  1.00  0.00    -0.054 NA
HETATM    9  C   UNL     1     -40.654  54.818 -51.893  1.00  0.00     0.221 C 
HETATM   10  C   UNL     1     -41.928  55.583 -52.232  1.00  0.00     0.064 C 
HETATM   11  H   UNL     1     -43.512  55.451 -49.369  1.00  0.00     0.184 HD
ENDROOT
BRANCH  10  12
HETATM   12  C   UNL     1     -41.909  56.179 -53.593  1.00  0.00     0.257 C 
HETATM   13  N   UNL     1     -42.896  55.691 -54.415  1.00  0.00    -0.308 N 
HETATM   14  H   UNL     1     -43.457  54.925 -54.073  1.00  0.00     0.170 HD
HETATM   15  O   UNL     1     -41.027  56.986 -53.854  1.00  0.00    -0.267 OA
BRANCH  13  16
HETATM   16  C   UNL     1     -43.196  56.186 -55.691  1.00  0.00     0.129 A 
HETATM   17  N   UNL     1     -43.850  57.350 -55.838  1.00  0.00    -0.243 NA
HETATM   18  C   UNL     1     -44.144  57.763 -57.090  1.00  0.00     0.119 A 
HETATM   19  C   UNL     1     -43.823  57.048 -58.229  1.00  0.00     0.019 A 
HETATM   20  C   UNL     1     -43.154  55.842 -58.069  1.00  0.00     0.005 A 
HETATM   21  C   UNL     1     -42.830  55.406 -56.785  1.00  0.00     0.050 A 
ENDBRANCH  13  16
ENDBRANCH  10  12
BRANCH   9  22
HETATM   22  C   UNL     1     -40.516  53.526 -52.691  1.00  0.00     0.064 A 
HETATM   23  N   UNL     1     -41.290  53.360 -53.801  1.00  0.00    -0.263 NA
HETATM   24  C   UNL     1     -41.203  52.176 -54.450  1.00  0.00     0.117 A 
HETATM   25  C   UNL     1     -40.370  51.141 -54.061  1.00  0.00     0.019 A 
HETATM   26  C   UNL     1     -39.575  51.325 -52.938  1.00  0.00     0.003 A 
HETATM   27  C   UNL     1     -39.647  52.528 -52.241  1.00  0.00     0.030 A 
ENDBRANCH   9  22
TORSDOF 3
ENDMDL
MODEL 8
REMARK VINA RESULT:      -7.3      2.804      5.731
REMARK  3 active torsions:
REMARK  status: ('A' for Active; 'I' for Inactive)
REMARK    1  A    between atoms: C_9  and  C_10 
REMARK    2  A    between atoms: C_16  and  C_17 
REMARK       I    between atoms: C_17  and  N_18 
REMARK    3  A    between atoms: N_18  and  C_19 
ROOT
HETATM    1  C   UNL     1     -45.149  59.367 -54.899  1.00  0.00     0.070 C 
HETATM    2  C   UNL     1     -43.932  58.764 -54.243  1.00  0.00     0.037 C 
HETATM    3  N   UNL     1     -43.805  59.002 -52.877  1.00  0.00    -0.192 N 
HETATM    4  C   UNL     1     -42.670  58.754 -52.196  1.00  0.00     0.725 A 
HETATM    5  N   UNL     1     -41.646  58.088 -52.814  1.00  0.00    -0.082 N 
HETATM    6  N   UNL     1     -40.539  58.061 -52.037  1.00  0.00    -0.149 NA
HETATM    7  C   UNL     1     -41.002  58.661 -50.933  1.00  0.00     0.275 A 
HETATM    8  N   UNL     1     -42.298  59.102 -50.989  1.00  0.00    -0.054 NA
HETATM    9  C   UNL     1     -41.703  57.588 -54.188  1.00  0.00     0.221 C 
HETATM   10  C   UNL     1     -42.956  58.087 -54.897  1.00  0.00     0.064 C 
HETATM   11  H   UNL     1     -44.510  59.583 -52.433  1.00  0.00     0.184 HD
ENDROOT
BRANCH  10  12
HETATM   12  C   UNL     1     -42.935  57.847 -56.364  1.00  0.00     0.257 C 
HETATM   13  N   UNL     1     -43.847  56.906 -56.775  1.00  0.00    -0.308 N 
HETATM   14  H   UNL     1     -44.356  56.402 -56.064  1.00  0.00     0.170 HD
HETATM   15  O   UNL     1     -42.112  58.458 -57.033  1.00  0.00    -0.267 OA
BRANCH  13  16
HETATM   16  C   UNL     1     -44.139  56.600 -58.111  1.00  0.00     0.129 A 
HETATM   17  N   UNL     1     -44.990  57.361 -58.819  1.00  0.00    -0.243 NA
HETATM   18  C   UNL     1     -45.261  57.001 -60.091  1.00  0.00     0.119 A 
HETATM   19  C   UNL     1     -44.723  55.884 -60.704  1.00  0.00     0.019 A 
HETATM   20  C   UNL     1     -43.850  55.098 -59.964  1.00  0.00     0.005 A 
HETATM   21  C   UNL     1     -43.547  55.461 -58.653  1.00  0.00     0.050 A 
ENDBRANCH  13  16
ENDBRANCH  10  12
BRANCH   9  22
HETATM   22  C   UNL     1     -41.614  56.066 -54.156  1.00  0.00     0.064 A 
HETATM   23  N   UNL     1     -42.555  55.373 -53.452  1.00  0.00    -0.263 NA
HETATM   24  C   UNL     1     -42.413  54.031 -53.377  1.00  0.00     0.117 A 
HETATM   25  C   UNL     1     -41.384  53.327 -53.978  1.00  0.00     0.019 A 
HETATM   26  C   UNL     1     -40.439  54.040 -54.704  1.00  0.00     0.003 A 
HETATM   27  C   UNL     1     -40.549  55.424 -54.794  1.00  0.00     0.030 A 
ENDBRANCH   9  22
TORSDOF 3
ENDMDL
MODEL 9
REMARK VINA RESULT:      -7.2      2.089      5.346
REMARK  3 active torsions:
REMARK  status: ('A' for Active; 'I' for Inactive)
REMARK    1  A    between atoms: C_9  and  C_10 
REMARK    2  A    between atoms: C_16  and  C_17 
REMARK       I    between atoms: C_17  and  N_18 
REMARK    3  A    between atoms: N_18  and  C_19 
ROOT
HETATM    1  C   UNL     1     -45.334  59.121 -52.117  1.00  0.00     0.070 C 
HETATM    2  C   UNL     1     -43.878  58.733 -52.069  1.00  0.00     0.037 C 
HETATM    3  N   UNL     1     -43.151  59.253 -51.002  1.00  0.00    -0.192 N 
HETATM    4  C   UNL     1     -41.806  59.212 -50.945  1.00  0.00     0.725 A 
HETATM    5  N   UNL     1     -41.115  58.489 -51.880  1.00  0.00    -0.082 N 
HETATM    6  N   UNL     1     -39.781  58.683 -51.761  1.00  0.00    -0.149 NA
HETATM    7  C   UNL     1     -39.745  59.471 -50.680  1.00  0.00     0.275 A 
HETATM    8  N   UNL     1     -40.961  59.820 -50.151  1.00  0.00    -0.054 NA
HETATM    9  C   UNL     1     -41.746  57.716 -52.950  1.00  0.00     0.221 C 
HETATM   10  C   UNL     1     -43.244  57.989 -53.010  1.00  0.00     0.064 C 
HETATM   11  H   UNL     1     -43.636  59.873 -50.359  1.00  0.00     0.184 HD
ENDROOT
BRANCH  10  12
HETATM   12  C   UNL     1     -43.889  57.455 -54.237  1.00  0.00     0.257 C 
HETATM   13  N   UNL     1     -43.325  57.924 -55.398  1.00  0.00    -0.308 N 
HETATM   14  H   UNL     1     -42.621  58.643 -55.322  1.00  0.00     0.170 HD
HETATM   15  O   UNL     1     -44.850  56.709 -54.101  1.00  0.00    -0.267 OA
BRANCH  13  16
HETATM   16  C   UNL     1     -43.640  57.470 -56.685  1.00  0.00     0.129 A 
HETATM   17  N   UNL     1     -44.560  58.104 -57.431  1.00  0.00    -0.243 NA
HETATM   18  C   UNL     1     -44.849  57.603 -58.651  1.00  0.00     0.119 A 
HETATM   19  C   UNL     1     -44.262  56.464 -59.171  1.00  0.00     0.019 A 
HETATM   20  C   UNL     1     -43.318  55.809 -58.392  1.00  0.00     0.005 A 
HETATM   21  C   UNL     1     -42.996  56.319 -57.135  1.00  0.00     0.050 A 
ENDBRANCH  13  16
ENDBRANCH  10  12
BRANCH   9  22
HETATM   22  C   UNL     1     -41.427  56.240 -52.735  1.00  0.00     0.064 A 
HETATM   23  N   UNL     1     -41.646  55.699 -51.502  1.00  0.00    -0.263 NA
HETATM   24  C   UNL     1     -41.287  54.409 -51.315  1.00  0.00     0.117 A 
HETATM   25  C   UNL     1     -40.728  53.612 -52.299  1.00  0.00     0.019 A 
HETATM   26  C   UNL     1     -40.522  54.167 -53.554  1.00  0.00     0.003 A 
HETATM   27  C   UNL     1     -40.871  55.495 -53.779  1.00  0.00     0.030 A 
ENDBRANCH   9  22
TORSDOF 3
ENDMDL
MODEL 10
REMARK VINA RESULT:      -7.2      2.727      3.773
REMARK  3 active torsions:
REMARK  status: ('A' for Active; 'I' for Inactive)
REMARK    1  A    between atoms: C_9  and  C_10 
REMARK    2  A    between atoms: C_16  and  C_17 
REMARK       I    between atoms: C_17  and  N_18 
REMARK    3  A    between atoms: N_18  and  C_19 
ROOT
HETATM    1  C   UNL     1     -40.986  59.146 -53.406  1.00  0.00     0.070 C 
HETATM    2  C   UNL     1     -41.871  59.249 -54.622  1.00  0.00     0.037 C 
HETATM    3  N   UNL     1     -42.038  60.530 -55.139  1.00  0.00    -0.192 N 
HETATM    4  C   UNL     1     -42.978  60.831 -56.055  1.00  0.00     0.725 A 
HETATM    5  N   UNL     1     -43.698  59.822 -56.638  1.00  0.00    -0.082 N 
HETATM    6  N   UNL     1     -44.692  60.314 -57.413  1.00  0.00    -0.149 NA
HETATM    7  C   UNL     1     -44.454  61.627 -57.310  1.00  0.00     0.275 A 
HETATM    8  N   UNL     1     -43.417  61.986 -56.489  1.00  0.00    -0.054 NA
HETATM    9  C   UNL     1     -43.498  58.401 -56.351  1.00  0.00     0.221 C 
HETATM   10  C   UNL     1     -42.543  58.210 -55.180  1.00  0.00     0.064 C 
HETATM   11  H   UNL     1     -41.586  61.298 -54.650  1.00  0.00     0.184 HD
ENDROOT
BRANCH  10  12
HETATM   12  C   UNL     1     -42.516  56.816 -54.665  1.00  0.00     0.257 C 
HETATM   13  N   UNL     1     -41.275  56.232 -54.740  1.00  0.00    -0.308 N 
HETATM   14  H   UNL     1     -40.544  56.740 -55.216  1.00  0.00     0.170 HD
HETATM   15  O   UNL     1     -43.569  56.328 -54.277  1.00  0.00    -0.267 OA
BRANCH  13  16
HETATM   16  C   UNL     1     -40.939  54.988 -54.191  1.00  0.00     0.129 A 
HETATM   17  N   UNL     1     -40.930  54.805 -52.860  1.00  0.00    -0.243 NA
HETATM   18  C   UNL     1     -40.567  53.595 -52.384  1.00  0.00     0.119 A 
HETATM   19  C   UNL     1     -40.186  52.537 -53.189  1.00  0.00     0.019 A 
HETATM   20  C   UNL     1     -40.190  52.735 -54.563  1.00  0.00     0.005 A 
HETATM   21  C   UNL     1     -40.576  53.973 -55.074  1.00  0.00     0.050 A 
ENDBRANCH  13  16
ENDBRANCH  10  12
BRANCH   9  22
HETATM   22  C   UNL     1     -43.013  57.713 -57.622  1.00  0.00     0.064 A 
HETATM   23  N   UNL     1     -42.099  58.356 -58.403  1.00  0.00    -0.263 NA
HETATM   24  C   UNL     1     -41.739  57.759 -59.562  1.00  0.00     0.117 A 
HETATM   25  C   UNL     1     -42.233  56.538 -59.988  1.00  0.00     0.019 A 
HETATM   26  C   UNL     1     -43.153  55.884 -59.180  1.00  0.00     0.003 A 
HETATM   27  C   UNL     1     -43.553  56.475 -57.985  1.00  0.00     0.030 A 
ENDBRANCH   9  22
TORSDOF 3
ENDMDL
