MODEL 1
REMARK VINA RESULT:      -6.8      0.000      0.000
REMARK  3 active torsions:
REMARK  status: ('A' for Active; 'I' for Inactive)
REMARK    1  A    between atoms: C_2  and  N_3 
REMARK    2  A    between atoms: C_2  and  C_14 
REMARK       I    between atoms: N_3  and  C_4 
REMARK    3  A    between atoms: C_4  and  C_5 
ROOT
HETATM    1  N   UNL     1     -42.325  54.843 -54.717  1.00  0.00    -0.347 N 
HETATM    2  C   UNL     1     -42.378  56.122 -55.212  1.00  0.00     0.268 C 
HETATM    3  O   UNL     1     -42.174  57.117 -54.526  1.00  0.00    -0.266 OA
HETATM    4  H   UNL     1     -42.405  54.064 -55.352  1.00  0.00     0.163 HD
ENDROOT
BRANCH   1   5
HETATM    5  C   UNL     1     -41.955  54.550 -53.341  1.00  0.00     0.114 C 
HETATM    6  C   UNL     1     -43.235  54.412 -52.512  1.00  0.00     0.037 C 
BRANCH   5   7
HETATM    7  C   UNL     1     -41.077  53.314 -53.209  1.00  0.00    -0.033 A 
HETATM    8  C   UNL     1     -40.381  52.986 -52.039  1.00  0.00     0.028 A 
HETATM    9  C   UNL     1     -39.604  51.836 -52.015  1.00  0.00     0.116 A 
HETATM   10  N   UNL     1     -39.465  50.997 -53.062  1.00  0.00    -0.273 NA
HETATM   11  C   UNL     1     -40.148  51.315 -54.179  1.00  0.00     0.116 A 
HETATM   12  C   UNL     1     -40.955  52.438 -54.298  1.00  0.00     0.028 A 
ENDBRANCH   5   7
ENDBRANCH   1   5
BRANCH   2  13
HETATM   13  C   UNL     1     -42.688  56.222 -56.622  1.00  0.00     0.103 A 
HETATM   14  N   UNL     1     -43.368  55.210 -57.275  1.00  0.00    -0.341 N 
HETATM   15  H   UNL     1     -43.688  54.358 -56.830  1.00  0.00     0.167 HD
HETATM   16  C   UNL     1     -43.532  55.538 -58.583  1.00  0.00     0.126 A 
HETATM   17 CL   UNL     1     -44.350  54.433 -59.578  1.00  0.00    -0.063 Cl
HETATM   18  C   UNL     1     -42.962  56.757 -58.818  1.00  0.00     0.074 A 
HETATM   19 CL   UNL     1     -42.876  57.623 -60.273  1.00  0.00    -0.081 Cl
HETATM   20  C   UNL     1     -42.424  57.196 -57.579  1.00  0.00     0.062 A 
ENDBRANCH   2  13
TORSDOF 3
ENDMDL
MODEL 2
REMARK VINA RESULT:      -6.6      4.733      5.918
REMARK  3 active torsions:
REMARK  status: ('A' for Active; 'I' for Inactive)
REMARK    1  A    between atoms: C_2  and  N_3 
REMARK    2  A    between atoms: C_2  and  C_14 
REMARK       I    between atoms: N_3  and  C_4 
REMARK    3  A    between atoms: C_4  and  C_5 
ROOT
HETATM    1  N   UNL     1     -42.065  55.801 -52.562  1.00  0.00    -0.347 N 
HETATM    2  C   UNL     1     -42.622  56.462 -51.495  1.00  0.00     0.268 C 
HETATM    3  O   UNL     1     -43.618  56.064 -50.903  1.00  0.00    -0.266 OA
HETATM    4  H   UNL     1     -41.190  56.126 -52.942  1.00  0.00     0.163 HD
ENDROOT
BRANCH   1   5
HETATM    5  C   UNL     1     -42.575  54.528 -53.046  1.00  0.00     0.114 C 
HETATM    6  C   UNL     1     -43.175  54.743 -54.439  1.00  0.00     0.037 C 
BRANCH   5   7
HETATM    7  C   UNL     1     -41.519  53.431 -53.065  1.00  0.00    -0.033 A 
HETATM    8  C   UNL     1     -41.269  52.623 -54.181  1.00  0.00     0.028 A 
HETATM    9  C   UNL     1     -40.285  51.648 -54.103  1.00  0.00     0.116 A 
HETATM   10  N   UNL     1     -39.541  51.414 -53.002  1.00  0.00    -0.273 NA
HETATM   11  C   UNL     1     -39.781  52.204 -51.937  1.00  0.00     0.116 A 
HETATM   12  C   UNL     1     -40.737  53.209 -51.922  1.00  0.00     0.028 A 
ENDBRANCH   5   7
ENDBRANCH   1   5
BRANCH   2  13
HETATM   13  C   UNL     1     -41.939  57.675 -51.101  1.00  0.00     0.103 A 
HETATM   14  N   UNL     1     -42.632  58.861 -50.936  1.00  0.00    -0.341 N 
HETATM   15  H   UNL     1     -43.630  58.962 -51.072  1.00  0.00     0.167 HD
HETATM   16  C   UNL     1     -41.771  59.847 -50.570  1.00  0.00     0.126 A 
HETATM   17 CL   UNL     1     -42.412  61.397 -50.308  1.00  0.00    -0.063 Cl
HETATM   18  C   UNL     1     -40.506  59.338 -50.496  1.00  0.00     0.074 A 
HETATM   19 CL   UNL     1     -39.065  60.136 -50.093  1.00  0.00    -0.081 Cl
HETATM   20  C   UNL     1     -40.605  57.962 -50.831  1.00  0.00     0.062 A 
ENDBRANCH   2  13
TORSDOF 3
ENDMDL
MODEL 3
REMARK VINA RESULT:      -6.6      4.350      6.587
REMARK  3 active torsions:
REMARK  status: ('A' for Active; 'I' for Inactive)
REMARK    1  A    between atoms: C_2  and  N_3 
REMARK    2  A    between atoms: C_2  and  C_14 
REMARK       I    between atoms: N_3  and  C_4 
REMARK    3  A    between atoms: C_4  and  C_5 
ROOT
HETATM    1  N   UNL     1     -41.764  55.108 -52.936  1.00  0.00    -0.347 N 
HETATM    2  C   UNL     1     -40.806  54.540 -53.739  1.00  0.00     0.268 C 
HETATM    3  O   UNL     1     -40.322  55.108 -54.711  1.00  0.00    -0.266 OA
HETATM    4  H   UNL     1     -42.050  54.629 -52.096  1.00  0.00     0.163 HD
ENDROOT
BRANCH   1   5
HETATM    5  C   UNL     1     -42.244  56.467 -53.130  1.00  0.00     0.114 C 
HETATM    6  C   UNL     1     -43.682  56.553 -52.611  1.00  0.00     0.037 C 
BRANCH   5   7
HETATM    7  C   UNL     1     -41.357  57.512 -52.470  1.00  0.00    -0.033 A 
HETATM    8  C   UNL     1     -40.390  58.251 -53.164  1.00  0.00     0.028 A 
HETATM    9  C   UNL     1     -39.627  59.183 -52.475  1.00  0.00     0.116 A 
HETATM   10  N   UNL     1     -39.750  59.430 -51.154  1.00  0.00    -0.273 NA
HETATM   11  C   UNL     1     -40.690  58.723 -50.497  1.00  0.00     0.116 A 
HETATM   12  C   UNL     1     -41.506  57.776 -51.100  1.00  0.00     0.028 A 
ENDBRANCH   5   7
ENDBRANCH   1   5
BRANCH   2  13
HETATM   13  C   UNL     1     -40.393  53.208 -53.353  1.00  0.00     0.103 A 
HETATM   14  N   UNL     1     -40.212  52.216 -54.300  1.00  0.00    -0.341 N 
HETATM   15  H   UNL     1     -40.349  52.345 -55.295  1.00  0.00     0.167 HD
HETATM   16  C   UNL     1     -39.829  51.065 -53.689  1.00  0.00     0.126 A 
HETATM   17 CL   UNL     1     -39.546  49.707 -54.668  1.00  0.00    -0.063 Cl
HETATM   18  C   UNL     1     -39.759  51.270 -52.340  1.00  0.00     0.074 A 
HETATM   19 CL   UNL     1     -39.341  50.169 -51.121  1.00  0.00    -0.081 Cl
HETATM   20  C   UNL     1     -40.115  52.627 -52.120  1.00  0.00     0.062 A 
ENDBRANCH   2  13
TORSDOF 3
ENDMDL
MODEL 4
REMARK VINA RESULT:      -6.6      0.759      1.516
REMARK  3 active torsions:
REMARK  status: ('A' for Active; 'I' for Inactive)
REMARK    1  A    between atoms: C_2  and  N_3 
REMARK    2  A    between atoms: C_2  and  C_14 
REMARK       I    between atoms: N_3  and  C_4 
REMARK    3  A    between atoms: C_4  and  C_5 
ROOT
HETATM    1  N   UNL     1     -42.293  54.954 -54.683  1.00  0.00    -0.347 N 
HETATM    2  C   UNL     1     -42.164  56.185 -55.278  1.00  0.00     0.268 C 
HETATM    3  O   UNL     1     -41.770  57.181 -54.683  1.00  0.00    -0.266 OA
HETATM    4  H   UNL     1     -42.527  54.154 -55.251  1.00  0.00     0.163 HD
ENDROOT
BRANCH   1   5
HETATM    5  C   UNL     1     -41.910  54.708 -53.302  1.00  0.00     0.114 C 
HETATM    6  C   UNL     1     -43.182  54.613 -52.455  1.00  0.00     0.037 C 
BRANCH   5   7
HETATM    7  C   UNL     1     -41.044  53.468 -53.135  1.00  0.00    -0.033 A 
HETATM    8  C   UNL     1     -40.428  53.116 -51.927  1.00  0.00     0.028 A 
HETATM    9  C   UNL     1     -39.656  51.965 -51.872  1.00  0.00     0.116 A 
HETATM   10  N   UNL     1     -39.447  51.145 -52.924  1.00  0.00    -0.273 NA
HETATM   11  C   UNL     1     -40.052  51.486 -54.078  1.00  0.00     0.116 A 
HETATM   12  C   UNL     1     -40.849  52.612 -54.230  1.00  0.00     0.028 A 
ENDBRANCH   5   7
ENDBRANCH   1   5
BRANCH   2  13
HETATM   13  C   UNL     1     -42.520  56.229 -56.680  1.00  0.00     0.103 A 
HETATM   14  N   UNL     1     -42.166  57.307 -57.471  1.00  0.00    -0.341 N 
HETATM   15  H   UNL     1     -41.649  58.112 -57.140  1.00  0.00     0.167 HD
HETATM   16  C   UNL     1     -42.615  57.112 -58.738  1.00  0.00     0.126 A 
HETATM   17 CL   UNL     1     -42.287  58.318 -59.887  1.00  0.00    -0.063 Cl
HETATM   18  C   UNL     1     -43.276  55.918 -58.805  1.00  0.00     0.074 A 
HETATM   19 CL   UNL     1     -44.035  55.200 -60.141  1.00  0.00    -0.081 Cl
HETATM   20  C   UNL     1     -43.220  55.353 -57.504  1.00  0.00     0.062 A 
ENDBRANCH   2  13
TORSDOF 3
ENDMDL
MODEL 5
REMARK VINA RESULT:      -6.5      4.156      4.847
REMARK  3 active torsions:
REMARK  status: ('A' for Active; 'I' for Inactive)
REMARK    1  A    between atoms: C_2  and  N_3 
REMARK    2  A    between atoms: C_2  and  C_14 
REMARK       I    between atoms: N_3  and  C_4 
REMARK    3  A    between atoms: C_4  and  C_5 
ROOT
HETATM    1  N   UNL     1     -41.623  55.054 -53.520  1.00  0.00    -0.347 N 
HETATM    2  C   UNL     1     -42.921  55.502 -53.494  1.00  0.00     0.268 C 
HETATM    3  O   UNL     1     -43.834  54.953 -54.099  1.00  0.00    -0.266 OA
HETATM    4  H   UNL     1     -40.938  55.490 -52.923  1.00  0.00     0.163 HD
ENDROOT
BRANCH   1   5
HETATM    5  C   UNL     1     -41.227  53.841 -54.220  1.00  0.00     0.114 C 
HETATM    6  C   UNL     1     -40.262  54.224 -55.345  1.00  0.00     0.037 C 
BRANCH   5   7
HETATM    7  C   UNL     1     -40.615  52.795 -53.300  1.00  0.00    -0.033 A 
HETATM    8  C   UNL     1     -40.492  52.965 -51.915  1.00  0.00     0.028 A 
HETATM    9  C   UNL     1     -39.919  51.954 -51.158  1.00  0.00     0.116 A 
HETATM   10  N   UNL     1     -39.457  50.795 -51.673  1.00  0.00    -0.273 NA
HETATM   11  C   UNL     1     -39.589  50.636 -53.004  1.00  0.00     0.116 A 
HETATM   12  C   UNL     1     -40.155  51.586 -53.843  1.00  0.00     0.028 A 
ENDBRANCH   5   7
ENDBRANCH   1   5
BRANCH   2  13
HETATM   13  C   UNL     1     -43.147  56.680 -52.685  1.00  0.00     0.103 A 
HETATM   14  N   UNL     1     -44.417  57.014 -52.253  1.00  0.00    -0.341 N 
HETATM   15  H   UNL     1     -45.251  56.477 -52.460  1.00  0.00     0.167 HD
HETATM   16  C   UNL     1     -44.365  58.156 -51.518  1.00  0.00     0.126 A 
HETATM   17 CL   UNL     1     -45.821  58.751 -50.879  1.00  0.00    -0.063 Cl
HETATM   18  C   UNL     1     -43.074  58.598 -51.461  1.00  0.00     0.074 A 
HETATM   19 CL   UNL     1     -42.459  59.974 -50.684  1.00  0.00    -0.081 Cl
HETATM   20  C   UNL     1     -42.296  57.668 -52.199  1.00  0.00     0.062 A 
ENDBRANCH   2  13
TORSDOF 3
ENDMDL
MODEL 6
REMARK VINA RESULT:      -6.4      3.476      6.730
REMARK  3 active torsions:
REMARK  status: ('A' for Active; 'I' for Inactive)
REMARK    1  A    between atoms: C_2  and  N_3 
REMARK    2  A    between atoms: C_2  and  C_14 
REMARK       I    between atoms: N_3  and  C_4 
REMARK    3  A    between atoms: C_4  and  C_5 
ROOT
HETATM    1  N   UNL     1     -42.038  56.210 -55.368  1.00  0.00    -0.347 N 
HETATM    2  C   UNL     1     -42.637  55.256 -54.582  1.00  0.00     0.268 C 
HETATM    3  O   UNL     1     -43.847  55.196 -54.402  1.00  0.00    -0.266 OA
HETATM    4  H   UNL     1     -41.050  56.145 -55.556  1.00  0.00     0.163 HD
ENDROOT
BRANCH   1   5
HETATM    5  C   UNL     1     -42.799  57.201 -56.112  1.00  0.00     0.114 C 
HETATM    6  C   UNL     1     -42.371  58.594 -55.643  1.00  0.00     0.037 C 
BRANCH   5   7
HETATM    7  C   UNL     1     -42.650  57.058 -57.620  1.00  0.00    -0.033 A 
HETATM    8  C   UNL     1     -42.048  58.030 -58.429  1.00  0.00     0.028 A 
HETATM    9  C   UNL     1     -41.959  57.810 -59.796  1.00  0.00     0.116 A 
HETATM   10  N   UNL     1     -42.425  56.706 -60.415  1.00  0.00    -0.273 NA
HETATM   11  C   UNL     1     -42.992  55.772 -59.627  1.00  0.00     0.116 A 
HETATM   12  C   UNL     1     -43.121  55.897 -58.251  1.00  0.00     0.028 A 
ENDBRANCH   5   7
ENDBRANCH   1   5
BRANCH   2  13
HETATM   13  C   UNL     1     -41.731  54.303 -53.978  1.00  0.00     0.103 A 
HETATM   14  N   UNL     1     -41.278  54.474 -52.682  1.00  0.00    -0.341 N 
HETATM   15  H   UNL     1     -41.539  55.249 -52.084  1.00  0.00     0.167 HD
HETATM   16  C   UNL     1     -40.443  53.455 -52.351  1.00  0.00     0.126 A 
HETATM   17 CL   UNL     1     -39.768  53.461 -50.793  1.00  0.00    -0.063 Cl
HETATM   18  C   UNL     1     -40.323  52.605 -53.413  1.00  0.00     0.074 A 
HETATM   19 CL   UNL     1     -39.403  51.186 -53.536  1.00  0.00    -0.081 Cl
HETATM   20  C   UNL     1     -41.137  53.137 -54.448  1.00  0.00     0.062 A 
ENDBRANCH   2  13
TORSDOF 3
ENDMDL
MODEL 7
REMARK VINA RESULT:      -6.1      3.605      6.792
REMARK  3 active torsions:
REMARK  status: ('A' for Active; 'I' for Inactive)
REMARK    1  A    between atoms: C_2  and  N_3 
REMARK    2  A    between atoms: C_2  and  C_14 
REMARK       I    between atoms: N_3  and  C_4 
REMARK    3  A    between atoms: C_4  and  C_5 
ROOT
HETATM    1  N   UNL     1     -41.396  55.142 -53.958  1.00  0.00    -0.347 N 
HETATM    2  C   UNL     1     -41.112  54.474 -52.792  1.00  0.00     0.268 C 
HETATM    3  O   UNL     1     -41.274  54.963 -51.681  1.00  0.00    -0.266 OA
HETATM    4  H   UNL     1     -41.335  54.650 -54.836  1.00  0.00     0.163 HD
ENDROOT
BRANCH   1   5
HETATM    5  C   UNL     1     -41.980  56.474 -53.974  1.00  0.00     0.114 C 
HETATM    6  C   UNL     1     -40.864  57.496 -53.740  1.00  0.00     0.037 C 
BRANCH   5   7
HETATM    7  C   UNL     1     -42.743  56.775 -55.256  1.00  0.00    -0.033 A 
HETATM    8  C   UNL     1     -42.523  56.094 -56.460  1.00  0.00     0.028 A 
HETATM    9  C   UNL     1     -43.269  56.440 -57.578  1.00  0.00     0.116 A 
HETATM   10  N   UNL     1     -44.207  57.409 -57.589  1.00  0.00    -0.273 NA
HETATM   11  C   UNL     1     -44.419  58.051 -56.423  1.00  0.00     0.116 A 
HETATM   12  C   UNL     1     -43.730  57.772 -55.252  1.00  0.00     0.028 A 
ENDBRANCH   5   7
ENDBRANCH   1   5
BRANCH   2  13
HETATM   13  C   UNL     1     -40.608  53.128 -52.964  1.00  0.00     0.103 A 
HETATM   14  N   UNL     1     -40.205  52.375 -51.877  1.00  0.00    -0.341 N 
HETATM   15  H   UNL     1     -40.235  52.697 -50.916  1.00  0.00     0.167 HD
HETATM   16  C   UNL     1     -39.773  51.157 -52.298  1.00  0.00     0.126 A 
HETATM   17 CL   UNL     1     -39.231  50.060 -51.121  1.00  0.00    -0.063 Cl
HETATM   18  C   UNL     1     -39.873  51.088 -53.659  1.00  0.00     0.074 A 
HETATM   19 CL   UNL     1     -39.463  49.805 -54.687  1.00  0.00    -0.081 Cl
HETATM   20  C   UNL     1     -40.401  52.335 -54.087  1.00  0.00     0.062 A 
ENDBRANCH   2  13
TORSDOF 3
ENDMDL
MODEL 8
REMARK VINA RESULT:      -6.1      3.322      7.060
REMARK  3 active torsions:
REMARK  status: ('A' for Active; 'I' for Inactive)
REMARK    1  A    between atoms: C_2  and  N_3 
REMARK    2  A    between atoms: C_2  and  C_14 
REMARK       I    between atoms: N_3  and  C_4 
REMARK    3  A    between atoms: C_4  and  C_5 
ROOT
HETATM    1  N   UNL     1     -42.498  56.433 -57.454  1.00  0.00    -0.347 N 
HETATM    2  C   UNL     1     -43.002  56.416 -56.177  1.00  0.00     0.268 C 
HETATM    3  O   UNL     1     -43.874  57.183 -55.788  1.00  0.00    -0.266 OA
HETATM    4  H   UNL     1     -41.854  55.712 -57.741  1.00  0.00     0.163 HD
ENDROOT
BRANCH   1   5
HETATM    5  C   UNL     1     -43.005  57.328 -58.484  1.00  0.00     0.114 C 
HETATM    6  C   UNL     1     -41.847  57.704 -59.412  1.00  0.00     0.037 C 
BRANCH   5   7
HETATM    7  C   UNL     1     -44.169  56.737 -59.266  1.00  0.00    -0.033 A 
HETATM    8  C   UNL     1     -44.035  55.654 -60.145  1.00  0.00     0.028 A 
HETATM    9  C   UNL     1     -45.156  55.185 -60.815  1.00  0.00     0.116 A 
HETATM   10  N   UNL     1     -46.391  55.713 -60.681  1.00  0.00    -0.273 NA
HETATM   11  C   UNL     1     -46.512  56.746 -59.826  1.00  0.00     0.116 A 
HETATM   12  C   UNL     1     -45.453  57.280 -59.105  1.00  0.00     0.028 A 
ENDBRANCH   5   7
ENDBRANCH   1   5
BRANCH   2  13
HETATM   13  C   UNL     1     -42.433  55.409 -55.308  1.00  0.00     0.103 A 
HETATM   14  N   UNL     1     -42.910  55.226 -54.022  1.00  0.00    -0.341 N 
HETATM   15  H   UNL     1     -43.666  55.761 -53.613  1.00  0.00     0.167 HD
HETATM   16  C   UNL     1     -42.214  54.231 -53.413  1.00  0.00     0.126 A 
HETATM   17 CL   UNL     1     -42.638  53.832 -51.818  1.00  0.00    -0.063 Cl
HETATM   18  C   UNL     1     -41.267  53.750 -54.272  1.00  0.00     0.074 A 
HETATM   19 CL   UNL     1     -40.130  52.518 -54.014  1.00  0.00    -0.081 Cl
HETATM   20  C   UNL     1     -41.400  54.492 -55.475  1.00  0.00     0.062 A 
ENDBRANCH   2  13
TORSDOF 3
ENDMDL
MODEL 9
REMARK VINA RESULT:      -6.1      3.327      7.066
REMARK  3 active torsions:
REMARK  status: ('A' for Active; 'I' for Inactive)
REMARK    1  A    between atoms: C_2  and  N_3 
REMARK    2  A    between atoms: C_2  and  C_14 
REMARK       I    between atoms: N_3  and  C_4 
REMARK    3  A    between atoms: C_4  and  C_5 
ROOT
HETATM    1  N   UNL     1     -42.372  56.765 -57.839  1.00  0.00    -0.347 N 
HETATM    2  C   UNL     1     -42.399  57.308 -56.578  1.00  0.00     0.268 C 
HETATM    3  O   UNL     1     -42.797  58.443 -56.343  1.00  0.00    -0.266 OA
HETATM    4  H   UNL     1     -42.127  55.793 -57.952  1.00  0.00     0.163 HD
ENDROOT
BRANCH   1   5
HETATM    5  C   UNL     1     -42.878  57.470 -59.006  1.00  0.00     0.114 C 
HETATM    6  C   UNL     1     -41.842  57.357 -60.128  1.00  0.00     0.037 C 
BRANCH   5   7
HETATM    7  C   UNL     1     -44.240  56.968 -59.461  1.00  0.00    -0.033 A 
HETATM    8  C   UNL     1     -45.450  57.519 -59.019  1.00  0.00     0.028 A 
HETATM    9  C   UNL     1     -46.645  56.993 -59.491  1.00  0.00     0.116 A 
HETATM   10  N   UNL     1     -46.725  55.964 -60.359  1.00  0.00    -0.273 NA
HETATM   11  C   UNL     1     -45.557  55.448 -60.787  1.00  0.00     0.116 A 
HETATM   12  C   UNL     1     -44.313  55.909 -60.379  1.00  0.00     0.028 A 
ENDBRANCH   5   7
ENDBRANCH   1   5
BRANCH   2  13
HETATM   13  C   UNL     1     -41.927  56.436 -55.524  1.00  0.00     0.103 A 
HETATM   14  N   UNL     1     -41.325  55.226 -55.817  1.00  0.00    -0.341 N 
HETATM   15  H   UNL     1     -41.174  54.876 -56.756  1.00  0.00     0.167 HD
HETATM   16  C   UNL     1     -40.976  54.597 -54.665  1.00  0.00     0.126 A 
HETATM   17 CL   UNL     1     -40.213  53.085 -54.790  1.00  0.00    -0.063 Cl
HETATM   18  C   UNL     1     -41.346  55.367 -53.599  1.00  0.00     0.074 A 
HETATM   19 CL   UNL     1     -41.155  55.050 -51.945  1.00  0.00    -0.081 Cl
HETATM   20  C   UNL     1     -41.950  56.534 -54.137  1.00  0.00     0.062 A 
ENDBRANCH   2  13
TORSDOF 3
ENDMDL
MODEL 10
REMARK VINA RESULT:      -6.1     14.218     15.792
REMARK  3 active torsions:
REMARK  status: ('A' for Active; 'I' for Inactive)
REMARK    1  A    between atoms: C_2  and  N_3 
REMARK    2  A    between atoms: C_2  and  C_14 
REMARK       I    between atoms: N_3  and  C_4 
REMARK    3  A    between atoms: C_4  and  C_5 
ROOT
HETATM    1  N   UNL     1     -35.925  40.721 -52.429  1.00  0.00    -0.347 N 
HETATM    2  C   UNL     1     -35.933  41.807 -53.268  1.00  0.00     0.268 C 
HETATM    3  O   UNL     1     -35.668  42.945 -52.898  1.00  0.00    -0.266 OA
HETATM    4  H   UNL     1     -36.054  39.798 -52.815  1.00  0.00     0.163 HD
ENDROOT
BRANCH   1   5
HETATM    5  C   UNL     1     -35.535  40.814 -51.031  1.00  0.00     0.114 C 
HETATM    6  C   UNL     1     -36.590  40.097 -50.184  1.00  0.00     0.037 C 
BRANCH   5   7
HETATM    7  C   UNL     1     -34.143  40.261 -50.761  1.00  0.00    -0.033 A 
HETATM    8  C   UNL     1     -33.000  40.686 -51.450  1.00  0.00     0.028 A 
HETATM    9  C   UNL     1     -31.772  40.122 -51.134  1.00  0.00     0.116 A 
HETATM   10  N   UNL     1     -31.599  39.169 -50.195  1.00  0.00    -0.273 NA
HETATM   11  C   UNL     1     -32.702  38.775 -49.530  1.00  0.00     0.116 A 
HETATM   12  C   UNL     1     -33.971  39.284 -49.769  1.00  0.00     0.028 A 
ENDBRANCH   5   7
ENDBRANCH   1   5
BRANCH   2  13
HETATM   13  C   UNL     1     -36.271  41.516 -54.645  1.00  0.00     0.103 A 
HETATM   14  N   UNL     1     -36.672  40.249 -55.027  1.00  0.00    -0.341 N 
HETATM   15  H   UNL     1     -36.757  39.462 -54.395  1.00  0.00     0.167 HD
HETATM   16  C   UNL     1     -36.928  40.233 -56.361  1.00  0.00     0.126 A 
HETATM   17 CL   UNL     1     -37.441  38.768 -57.049  1.00  0.00    -0.063 Cl
HETATM   18  C   UNL     1     -36.694  41.474 -56.882  1.00  0.00     0.074 A 
HETATM   19 CL   UNL     1     -36.849  41.996 -58.487  1.00  0.00    -0.081 Cl
HETATM   20  C   UNL     1     -36.277  42.292 -55.799  1.00  0.00     0.062 A 
ENDBRANCH   2  13
TORSDOF 3
ENDMDL
