MODEL 1
REMARK VINA RESULT:      -8.4      0.000      0.000
REMARK  3 active torsions:
REMARK  status: ('A' for Active; 'I' for Inactive)
REMARK    1  A    between atoms: C_6  and  N_7 
REMARK       I    between atoms: N_7  and  C_8 
REMARK    2  A    between atoms: C_8  and  C_9 
REMARK    3  A    between atoms: C_9  and  C_10 
ROOT
HETATM    1  C   UNL     1     -43.337  56.198 -52.949  1.00  0.00     0.286 C 
HETATM    2  N   UNL     1     -41.978  56.727 -52.485  1.00  0.00    -0.056 N 
HETATM    3  H   UNL     1     -41.459  55.910 -52.105  1.00  0.00     0.278 HD
HETATM    4  H   UNL     1     -41.434  57.065 -53.288  1.00  0.00     0.278 HD
HETATM    5  C   UNL     1     -42.148  57.793 -51.448  1.00  0.00     0.209 C 
HETATM    6  C   UNL     1     -42.945  58.959 -52.077  1.00  0.00     0.115 C 
HETATM    7  N   UNL     1     -44.191  58.514 -52.699  1.00  0.00    -0.353 N 
HETATM    8  C   UNL     1     -44.282  57.330 -53.403  1.00  0.00     0.249 C 
HETATM    9  O   UNL     1     -45.139  57.184 -54.264  1.00  0.00    -0.271 OA
HETATM   10  C   UNL     1     -40.792  58.269 -50.945  1.00  0.00     0.035 C 
HETATM   11  C   UNL     1     -40.984  59.377 -49.908  1.00  0.00     0.002 C 
HETATM   12  C   UNL     1     -41.850  60.525 -50.435  1.00  0.00     0.002 C 
HETATM   13  C   UNL     1     -43.178  60.043 -51.025  1.00  0.00     0.027 C 
HETATM   14  H   UNL     1     -44.823  59.229 -53.058  1.00  0.00     0.163 HD
ENDROOT
BRANCH   1  15
HETATM   15  C   UNL     1     -43.148  55.110 -54.010  1.00  0.00     0.146 C 
BRANCH  15  16
HETATM   16  C   UNL     1     -41.834  55.368 -54.705  1.00  0.00     0.224 C 
HETATM   17  N   UNL     1     -40.788  54.511 -54.707  1.00  0.00    -0.327 N 
HETATM   18  H   UNL     1     -40.108  54.761 -55.420  1.00  0.00     0.169 HD
HETATM   19  O   UNL     1     -41.762  56.386 -55.415  1.00  0.00    -0.273 OA
BRANCH  17  20
HETATM   20  C   UNL     1     -40.425  53.390 -53.937  1.00  0.00     0.035 A 
HETATM   21  C   UNL     1     -40.184  52.108 -54.430  1.00  0.00     0.037 A 
HETATM   22  C   UNL     1     -39.842  51.044 -53.570  1.00  0.00    -0.054 A 
HETATM   23  C   UNL     1     -39.757  51.269 -52.184  1.00  0.00    -0.056 A 
HETATM   24  C   UNL     1     -39.561  49.685 -54.157  1.00  0.00     0.049 C 
HETATM   25  C   UNL     1     -39.417  50.165 -51.220  1.00  0.00     0.049 C 
HETATM   26  C   UNL     1     -40.053  52.541 -51.687  1.00  0.00     0.009 A 
HETATM   27  C   UNL     1     -40.385  53.586 -52.553  1.00  0.00     0.030 A 
ENDBRANCH  17  20
ENDBRANCH  15  16
ENDBRANCH   1  15
TORSDOF 3
ENDMDL
MODEL 2
REMARK VINA RESULT:      -8.4      2.541      3.828
REMARK  3 active torsions:
REMARK  status: ('A' for Active; 'I' for Inactive)
REMARK    1  A    between atoms: C_6  and  N_7 
REMARK       I    between atoms: N_7  and  C_8 
REMARK    2  A    between atoms: C_8  and  C_9 
REMARK    3  A    between atoms: C_9  and  C_10 
ROOT
HETATM    1  C   UNL     1     -43.096  55.942 -51.835  1.00  0.00     0.286 C 
HETATM    2  N   UNL     1     -43.025  55.368 -53.253  1.00  0.00    -0.056 N 
HETATM    3  H   UNL     1     -42.089  54.922 -53.343  1.00  0.00     0.278 HD
HETATM    4  H   UNL     1     -43.714  54.615 -53.367  1.00  0.00     0.278 HD
HETATM    5  C   UNL     1     -43.213  56.447 -54.273  1.00  0.00     0.209 C 
HETATM    6  C   UNL     1     -44.611  57.074 -54.062  1.00  0.00     0.115 C 
HETATM    7  N   UNL     1     -44.831  57.501 -52.681  1.00  0.00    -0.353 N 
HETATM    8  C   UNL     1     -44.377  56.768 -51.603  1.00  0.00     0.249 C 
HETATM    9  O   UNL     1     -44.923  56.868 -50.511  1.00  0.00    -0.271 OA
HETATM   10  C   UNL     1     -43.077  55.880 -55.680  1.00  0.00     0.035 C 
HETATM   11  C   UNL     1     -43.302  56.989 -56.709  1.00  0.00     0.002 C 
HETATM   12  C   UNL     1     -44.630  57.721 -56.497  1.00  0.00     0.002 C 
HETATM   13  C   UNL     1     -44.813  58.215 -55.059  1.00  0.00     0.027 C 
HETATM   14  H   UNL     1     -45.690  58.008 -52.473  1.00  0.00     0.163 HD
ENDROOT
BRANCH   1  15
HETATM   15  C   UNL     1     -42.903  54.827 -50.803  1.00  0.00     0.146 C 
BRANCH  15  16
HETATM   16  C   UNL     1     -41.502  54.945 -50.254  1.00  0.00     0.224 C 
HETATM   17  N   UNL     1     -40.431  54.281 -50.745  1.00  0.00    -0.327 N 
HETATM   18  H   UNL     1     -39.561  54.680 -50.399  1.00  0.00     0.169 HD
HETATM   19  O   UNL     1     -41.313  55.795 -49.369  1.00  0.00    -0.273 OA
BRANCH  17  20
HETATM   20  C   UNL     1     -40.255  53.168 -51.588  1.00  0.00     0.035 A 
HETATM   21  C   UNL     1     -39.957  51.871 -51.171  1.00  0.00     0.037 A 
HETATM   22  C   UNL     1     -39.783  50.824 -52.100  1.00  0.00    -0.054 A 
HETATM   23  C   UNL     1     -39.894  51.090 -53.478  1.00  0.00    -0.056 A 
HETATM   24  C   UNL     1     -39.491  49.434 -51.597  1.00  0.00     0.049 C 
HETATM   25  C   UNL     1     -39.696  50.016 -54.513  1.00  0.00     0.049 C 
HETATM   26  C   UNL     1     -40.138  52.402 -53.895  1.00  0.00     0.009 A 
HETATM   27  C   UNL     1     -40.313  53.426 -52.962  1.00  0.00     0.030 A 
ENDBRANCH  17  20
ENDBRANCH  15  16
ENDBRANCH   1  15
TORSDOF 3
ENDMDL
MODEL 3
REMARK VINA RESULT:      -8.2      1.888      2.484
REMARK  3 active torsions:
REMARK  status: ('A' for Active; 'I' for Inactive)
REMARK    1  A    between atoms: C_6  and  N_7 
REMARK       I    between atoms: N_7  and  C_8 
REMARK    2  A    between atoms: C_8  and  C_9 
REMARK    3  A    between atoms: C_9  and  C_10 
ROOT
HETATM    1  C   UNL     1     -43.367  56.691 -52.721  1.00  0.00     0.286 C 
HETATM    2  N   UNL     1     -44.313  57.641 -53.461  1.00  0.00    -0.056 N 
HETATM    3  H   UNL     1     -43.851  57.872 -54.364  1.00  0.00     0.278 HD
HETATM    4  H   UNL     1     -45.187  57.157 -53.702  1.00  0.00     0.278 HD
HETATM    5  C   UNL     1     -44.571  58.872 -52.651  1.00  0.00     0.209 C 
HETATM    6  C   UNL     1     -45.237  58.447 -51.322  1.00  0.00     0.115 C 
HETATM    7  N   UNL     1     -44.479  57.410 -50.623  1.00  0.00    -0.353 N 
HETATM    8  C   UNL     1     -43.855  56.377 -51.292  1.00  0.00     0.249 C 
HETATM    9  O   UNL     1     -43.627  55.317 -50.723  1.00  0.00    -0.271 OA
HETATM   10  C   UNL     1     -45.461  59.840 -53.420  1.00  0.00     0.035 C 
HETATM   11  C   UNL     1     -45.738  61.079 -52.567  1.00  0.00     0.002 C 
HETATM   12  C   UNL     1     -46.310  60.723 -51.191  1.00  0.00     0.002 C 
HETATM   13  C   UNL     1     -45.467  59.681 -50.450  1.00  0.00     0.027 C 
HETATM   14  H   UNL     1     -44.797  57.136 -49.694  1.00  0.00     0.163 HD
ENDROOT
BRANCH   1  15
HETATM   15  C   UNL     1     -43.114  55.436 -53.561  1.00  0.00     0.146 C 
BRANCH  15  16
HETATM   16  C   UNL     1     -41.858  55.665 -54.365  1.00  0.00     0.224 C 
HETATM   17  N   UNL     1     -40.860  54.762 -54.500  1.00  0.00    -0.327 N 
HETATM   18  H   UNL     1     -40.237  55.013 -55.263  1.00  0.00     0.169 HD
HETATM   19  O   UNL     1     -41.799  56.710 -55.035  1.00  0.00    -0.273 OA
BRANCH  17  20
HETATM   20  C   UNL     1     -40.485  53.591 -53.815  1.00  0.00     0.035 A 
HETATM   21  C   UNL     1     -40.264  52.343 -54.397  1.00  0.00     0.037 A 
HETATM   22  C   UNL     1     -39.908  51.223 -53.618  1.00  0.00    -0.054 A 
HETATM   23  C   UNL     1     -39.787  51.356 -52.222  1.00  0.00    -0.056 A 
HETATM   24  C   UNL     1     -39.650  49.904 -54.299  1.00  0.00     0.049 C 
HETATM   25  C   UNL     1     -39.430  50.189 -51.341  1.00  0.00     0.049 C 
HETATM   26  C   UNL     1     -40.062  52.594 -51.635  1.00  0.00     0.009 A 
HETATM   27  C   UNL     1     -40.409  53.695 -52.422  1.00  0.00     0.030 A 
ENDBRANCH  17  20
ENDBRANCH  15  16
ENDBRANCH   1  15
TORSDOF 3
ENDMDL
MODEL 4
REMARK VINA RESULT:      -8.2      2.889      4.996
REMARK  3 active torsions:
REMARK  status: ('A' for Active; 'I' for Inactive)
REMARK    1  A    between atoms: C_6  and  N_7 
REMARK       I    between atoms: N_7  and  C_8 
REMARK    2  A    between atoms: C_8  and  C_9 
REMARK    3  A    between atoms: C_9  and  C_10 
ROOT
HETATM    1  C   UNL     1     -43.622  57.048 -54.939  1.00  0.00     0.286 C 
HETATM    2  N   UNL     1     -42.666  57.835 -55.839  1.00  0.00    -0.056 N 
HETATM    3  H   UNL     1     -42.784  58.838 -55.587  1.00  0.00     0.278 HD
HETATM    4  H   UNL     1     -41.691  57.597 -55.618  1.00  0.00     0.278 HD
HETATM    5  C   UNL     1     -42.978  57.597 -57.283  1.00  0.00     0.209 C 
HETATM    6  C   UNL     1     -42.802  56.089 -57.574  1.00  0.00     0.115 C 
HETATM    7  N   UNL     1     -43.555  55.248 -56.645  1.00  0.00    -0.353 N 
HETATM    8  C   UNL     1     -43.666  55.550 -55.303  1.00  0.00     0.249 C 
HETATM    9  O   UNL     1     -43.887  54.667 -54.484  1.00  0.00    -0.271 OA
HETATM   10  C   UNL     1     -42.065  58.433 -58.171  1.00  0.00     0.035 C 
HETATM   11  C   UNL     1     -42.378  58.155 -59.642  1.00  0.00     0.002 C 
HETATM   12  C   UNL     1     -42.318  56.663 -59.980  1.00  0.00     0.002 C 
HETATM   13  C   UNL     1     -43.163  55.806 -59.033  1.00  0.00     0.027 C 
HETATM   14  H   UNL     1     -43.570  54.244 -56.820  1.00  0.00     0.163 HD
ENDROOT
BRANCH   1  15
HETATM   15  C   UNL     1     -43.290  57.301 -53.466  1.00  0.00     0.146 C 
BRANCH  15  16
HETATM   16  C   UNL     1     -41.841  57.712 -53.383  1.00  0.00     0.224 C 
HETATM   17  N   UNL     1     -40.796  56.875 -53.576  1.00  0.00    -0.327 N 
HETATM   18  H   UNL     1     -39.932  57.392 -53.715  1.00  0.00     0.169 HD
HETATM   19  O   UNL     1     -41.606  58.923 -53.241  1.00  0.00    -0.273 OA
BRANCH  17  20
HETATM   20  C   UNL     1     -40.638  55.477 -53.598  1.00  0.00     0.035 A 
HETATM   21  C   UNL     1     -40.664  54.637 -52.484  1.00  0.00     0.037 A 
HETATM   22  C   UNL     1     -40.476  53.245 -52.611  1.00  0.00    -0.054 A 
HETATM   23  C   UNL     1     -40.241  52.687 -53.881  1.00  0.00    -0.056 A 
HETATM   24  C   UNL     1     -40.543  52.378 -51.381  1.00  0.00     0.049 C 
HETATM   25  C   UNL     1     -40.014  51.212 -54.071  1.00  0.00     0.049 C 
HETATM   26  C   UNL     1     -40.161  53.537 -54.988  1.00  0.00     0.009 A 
HETATM   27  C   UNL     1     -40.354  54.913 -54.846  1.00  0.00     0.030 A 
ENDBRANCH  17  20
ENDBRANCH  15  16
ENDBRANCH   1  15
TORSDOF 3
ENDMDL
MODEL 5
REMARK VINA RESULT:      -8.1      2.768      4.710
REMARK  3 active torsions:
REMARK  status: ('A' for Active; 'I' for Inactive)
REMARK    1  A    between atoms: C_6  and  N_7 
REMARK       I    between atoms: N_7  and  C_8 
REMARK    2  A    between atoms: C_8  and  C_9 
REMARK    3  A    between atoms: C_9  and  C_10 
ROOT
HETATM    1  C   UNL     1     -43.220  56.413 -54.779  1.00  0.00     0.286 C 
HETATM    2  N   UNL     1     -43.257  55.554 -56.045  1.00  0.00    -0.056 N 
HETATM    3  H   UNL     1     -42.470  54.878 -55.964  1.00  0.00     0.278 HD
HETATM    4  H   UNL     1     -44.116  54.991 -56.069  1.00  0.00     0.278 HD
HETATM    5  C   UNL     1     -43.120  56.403 -57.269  1.00  0.00     0.209 C 
HETATM    6  C   UNL     1     -44.308  57.391 -57.308  1.00  0.00     0.115 C 
HETATM    7  N   UNL     1     -44.453  58.143 -56.062  1.00  0.00    -0.353 N 
HETATM    8  C   UNL     1     -44.245  57.566 -54.826  1.00  0.00     0.249 C 
HETATM    9  O   UNL     1     -44.781  58.028 -53.826  1.00  0.00    -0.271 OA
HETATM   10  C   UNL     1     -43.092  55.535 -58.520  1.00  0.00     0.035 C 
HETATM   11  C   UNL     1     -42.982  56.421 -59.763  1.00  0.00     0.002 C 
HETATM   12  C   UNL     1     -44.076  57.491 -59.815  1.00  0.00     0.002 C 
HETATM   13  C   UNL     1     -44.169  58.308 -58.523  1.00  0.00     0.027 C 
HETATM   14  H   UNL     1     -45.154  58.882 -56.033  1.00  0.00     0.163 HD
ENDROOT
BRANCH   1  15
HETATM   15  C   UNL     1     -43.363  55.532 -53.535  1.00  0.00     0.146 C 
BRANCH  15  16
HETATM   16  C   UNL     1     -42.241  55.884 -52.590  1.00  0.00     0.224 C 
HETATM   17  N   UNL     1     -41.104  55.165 -52.450  1.00  0.00    -0.327 N 
HETATM   18  H   UNL     1     -40.392  55.696 -51.954  1.00  0.00     0.169 HD
HETATM   19  O   UNL     1     -42.329  56.969 -51.990  1.00  0.00    -0.273 OA
BRANCH  17  20
HETATM   20  C   UNL     1     -40.705  53.863 -52.804  1.00  0.00     0.035 A 
HETATM   21  C   UNL     1     -40.292  52.869 -51.918  1.00  0.00     0.037 A 
HETATM   22  C   UNL     1     -39.893  51.597 -52.378  1.00  0.00    -0.054 A 
HETATM   23  C   UNL     1     -39.894  51.323 -53.758  1.00  0.00    -0.056 A 
HETATM   24  C   UNL     1     -39.484  50.547 -51.377  1.00  0.00     0.049 C 
HETATM   25  C   UNL     1     -39.459  49.990 -54.304  1.00  0.00     0.049 C 
HETATM   26  C   UNL     1     -40.257  52.338 -54.648  1.00  0.00     0.009 A 
HETATM   27  C   UNL     1     -40.654  53.592 -54.176  1.00  0.00     0.030 A 
ENDBRANCH  17  20
ENDBRANCH  15  16
ENDBRANCH   1  15
TORSDOF 3
ENDMDL
MODEL 6
REMARK VINA RESULT:      -8.0      3.127      5.119
REMARK  3 active torsions:
REMARK  status: ('A' for Active; 'I' for Inactive)
REMARK    1  A    between atoms: C_6  and  N_7 
REMARK       I    between atoms: N_7  and  C_8 
REMARK    2  A    between atoms: C_8  and  C_9 
REMARK    3  A    between atoms: C_9  and  C_10 
ROOT
HETATM    1  C   UNL     1     -42.063  57.779 -55.003  1.00  0.00     0.286 C 
HETATM    2  N   UNL     1     -42.846  56.837 -55.920  1.00  0.00    -0.056 N 
HETATM    3  H   UNL     1     -42.681  55.874 -55.563  1.00  0.00     0.278 HD
HETATM    4  H   UNL     1     -43.856  57.008 -55.828  1.00  0.00     0.278 HD
HETATM    5  C   UNL     1     -42.392  56.976 -57.340  1.00  0.00     0.209 C 
HETATM    6  C   UNL     1     -42.649  58.433 -57.790  1.00  0.00     0.115 C 
HETATM    7  N   UNL     1     -42.073  59.414 -56.870  1.00  0.00    -0.353 N 
HETATM    8  C   UNL     1     -42.093  59.239 -55.501  1.00  0.00     0.249 C 
HETATM    9  O   UNL     1     -42.035  60.205 -54.751  1.00  0.00    -0.271 OA
HETATM   10  C   UNL     1     -43.131  55.991 -58.235  1.00  0.00     0.035 C 
HETATM   11  C   UNL     1     -42.676  56.168 -59.685  1.00  0.00     0.002 C 
HETATM   12  C   UNL     1     -42.811  57.614 -60.167  1.00  0.00     0.002 C 
HETATM   13  C   UNL     1     -42.148  58.620 -59.222  1.00  0.00     0.027 C 
HETATM   14  H   UNL     1     -42.116  60.396 -57.137  1.00  0.00     0.163 HD
ENDROOT
BRANCH   1  15
HETATM   15  C   UNL     1     -42.539  57.627 -53.556  1.00  0.00     0.146 C 
BRANCH  15  16
HETATM   16  C   UNL     1     -43.717  56.684 -53.555  1.00  0.00     0.224 C 
HETATM   17  N   UNL     1     -43.641  55.365 -53.266  1.00  0.00    -0.327 N 
HETATM   18  H   UNL     1     -44.562  54.974 -53.087  1.00  0.00     0.169 HD
HETATM   19  O   UNL     1     -44.841  57.186 -53.719  1.00  0.00    -0.273 OA
BRANCH  17  20
HETATM   20  C   UNL     1     -42.595  54.426 -53.189  1.00  0.00     0.035 A 
HETATM   21  C   UNL     1     -41.813  54.171 -52.063  1.00  0.00     0.037 A 
HETATM   22  C   UNL     1     -40.772  53.219 -52.094  1.00  0.00    -0.054 A 
HETATM   23  C   UNL     1     -40.502  52.521 -53.286  1.00  0.00    -0.056 A 
HETATM   24  C   UNL     1     -39.976  52.958 -50.842  1.00  0.00     0.049 C 
HETATM   25  C   UNL     1     -39.391  51.511 -53.380  1.00  0.00     0.049 C 
HETATM   26  C   UNL     1     -41.251  52.819 -54.427  1.00  0.00     0.009 A 
HETATM   27  C   UNL     1     -42.281  53.761 -54.379  1.00  0.00     0.030 A 
ENDBRANCH  17  20
ENDBRANCH  15  16
ENDBRANCH   1  15
TORSDOF 3
ENDMDL
MODEL 7
REMARK VINA RESULT:      -8.0      3.089      5.077
REMARK  3 active torsions:
REMARK  status: ('A' for Active; 'I' for Inactive)
REMARK    1  A    between atoms: C_6  and  N_7 
REMARK       I    between atoms: N_7  and  C_8 
REMARK    2  A    between atoms: C_8  and  C_9 
REMARK    3  A    between atoms: C_9  and  C_10 
ROOT
HETATM    1  C   UNL     1     -42.214  56.200 -55.569  1.00  0.00     0.286 C 
HETATM    2  N   UNL     1     -41.701  57.060 -56.726  1.00  0.00    -0.056 N 
HETATM    3  H   UNL     1     -41.375  57.955 -56.306  1.00  0.00     0.278 HD
HETATM    4  H   UNL     1     -40.873  56.626 -57.154  1.00  0.00     0.278 HD
HETATM    5  C   UNL     1     -42.782  57.296 -57.734  1.00  0.00     0.209 C 
HETATM    6  C   UNL     1     -43.227  55.926 -58.296  1.00  0.00     0.115 C 
HETATM    7  N   UNL     1     -43.578  54.975 -57.241  1.00  0.00    -0.353 N 
HETATM    8  C   UNL     1     -42.870  54.893 -56.059  1.00  0.00     0.249 C 
HETATM    9  O   UNL     1     -42.866  53.855 -55.409  1.00  0.00    -0.271 OA
HETATM   10  C   UNL     1     -42.283  58.205 -58.848  1.00  0.00     0.035 C 
HETATM   11  C   UNL     1     -43.390  58.411 -59.884  1.00  0.00     0.002 C 
HETATM   12  C   UNL     1     -43.948  57.087 -60.412  1.00  0.00     0.002 C 
HETATM   13  C   UNL     1     -44.368  56.130 -59.293  1.00  0.00     0.027 C 
HETATM   14  H   UNL     1     -43.970  54.078 -57.523  1.00  0.00     0.163 HD
ENDROOT
BRANCH   1  15
HETATM   15  C   UNL     1     -41.097  55.966 -54.547  1.00  0.00     0.146 C 
BRANCH  15  16
HETATM   16  C   UNL     1     -41.686  56.151 -53.170  1.00  0.00     0.224 C 
HETATM   17  N   UNL     1     -41.436  55.342 -52.116  1.00  0.00    -0.327 N 
HETATM   18  H   UNL     1     -41.728  55.773 -51.243  1.00  0.00     0.169 HD
HETATM   19  O   UNL     1     -42.352  57.182 -52.975  1.00  0.00    -0.273 OA
BRANCH  17  20
HETATM   20  C   UNL     1     -40.897  54.050 -51.965  1.00  0.00     0.035 A 
HETATM   21  C   UNL     1     -40.498  53.209 -53.003  1.00  0.00     0.037 A 
HETATM   22  C   UNL     1     -39.985  51.920 -52.746  1.00  0.00    -0.054 A 
HETATM   23  C   UNL     1     -39.887  51.462 -51.419  1.00  0.00    -0.056 A 
HETATM   24  C   UNL     1     -39.539  51.061 -53.901  1.00  0.00     0.049 C 
HETATM   25  C   UNL     1     -39.367  50.089 -51.089  1.00  0.00     0.049 C 
HETATM   26  C   UNL     1     -40.338  52.286 -50.384  1.00  0.00     0.009 A 
HETATM   27  C   UNL     1     -40.839  53.561 -50.656  1.00  0.00     0.030 A 
ENDBRANCH  17  20
ENDBRANCH  15  16
ENDBRANCH   1  15
TORSDOF 3
ENDMDL
MODEL 8
REMARK VINA RESULT:      -7.9      2.653      7.119
REMARK  3 active torsions:
REMARK  status: ('A' for Active; 'I' for Inactive)
REMARK    1  A    between atoms: C_6  and  N_7 
REMARK       I    between atoms: N_7  and  C_8 
REMARK    2  A    between atoms: C_8  and  C_9 
REMARK    3  A    between atoms: C_9  and  C_10 
ROOT
HETATM    1  C   UNL     1     -41.350  54.049 -51.756  1.00  0.00     0.286 C 
HETATM    2  N   UNL     1     -40.770  53.528 -53.074  1.00  0.00    -0.056 N 
HETATM    3  H   UNL     1     -41.414  53.849 -53.825  1.00  0.00     0.278 HD
HETATM    4  H   UNL     1     -39.863  53.972 -53.264  1.00  0.00     0.278 HD
HETATM    5  C   UNL     1     -40.659  52.035 -53.053  1.00  0.00     0.209 C 
HETATM    6  C   UNL     1     -39.708  51.636 -51.902  1.00  0.00     0.115 C 
HETATM    7  N   UNL     1     -40.094  52.233 -50.624  1.00  0.00    -0.353 N 
HETATM    8  C   UNL     1     -40.577  53.523 -50.529  1.00  0.00     0.249 C 
HETATM    9  O   UNL     1     -40.470  54.151 -49.483  1.00  0.00    -0.271 OA
HETATM   10  C   UNL     1     -40.143  51.520 -54.390  1.00  0.00     0.035 C 
HETATM   11  C   UNL     1     -40.008  49.997 -54.341  1.00  0.00     0.002 C 
HETATM   12  C   UNL     1     -39.155  49.525 -53.161  1.00  0.00     0.002 C 
HETATM   13  C   UNL     1     -39.614  50.112 -51.823  1.00  0.00     0.027 C 
HETATM   14  H   UNL     1     -39.576  51.950 -49.793  1.00  0.00     0.163 HD
ENDROOT
BRANCH   1  15
HETATM   15  C   UNL     1     -41.456  55.576 -51.791  1.00  0.00     0.146 C 
BRANCH  15  16
HETATM   16  C   UNL     1     -42.920  55.937 -51.748  1.00  0.00     0.224 C 
HETATM   17  N   UNL     1     -43.725  55.997 -52.833  1.00  0.00    -0.327 N 
HETATM   18  H   UNL     1     -44.705  56.018 -52.563  1.00  0.00     0.169 HD
HETATM   19  O   UNL     1     -43.434  56.075 -50.626  1.00  0.00    -0.273 OA
BRANCH  17  20
HETATM   20  C   UNL     1     -43.512  56.065 -54.223  1.00  0.00     0.035 A 
HETATM   21  C   UNL     1     -43.557  57.224 -54.997  1.00  0.00     0.037 A 
HETATM   22  C   UNL     1     -43.346  57.183 -56.391  1.00  0.00    -0.054 A 
HETATM   23  C   UNL     1     -43.101  55.950 -57.022  1.00  0.00    -0.056 A 
HETATM   24  C   UNL     1     -43.375  58.468 -57.178  1.00  0.00     0.049 C 
HETATM   25  C   UNL     1     -42.890  55.846 -58.509  1.00  0.00     0.049 C 
HETATM   26  C   UNL     1     -43.111  54.783 -56.252  1.00  0.00     0.009 A 
HETATM   27  C   UNL     1     -43.317  54.842 -54.872  1.00  0.00     0.030 A 
ENDBRANCH  17  20
ENDBRANCH  15  16
ENDBRANCH   1  15
TORSDOF 3
ENDMDL
MODEL 9
REMARK VINA RESULT:      -7.8      3.499      7.012
REMARK  3 active torsions:
REMARK  status: ('A' for Active; 'I' for Inactive)
REMARK    1  A    between atoms: C_6  and  N_7 
REMARK       I    between atoms: N_7  and  C_8 
REMARK    2  A    between atoms: C_8  and  C_9 
REMARK    3  A    between atoms: C_9  and  C_10 
ROOT
HETATM    1  C   UNL     1     -43.241  54.930 -53.616  1.00  0.00     0.286 C 
HETATM    2  N   UNL     1     -42.018  54.371 -54.347  1.00  0.00    -0.056 N 
HETATM    3  H   UNL     1     -42.344  54.097 -55.297  1.00  0.00     0.278 HD
HETATM    4  H   UNL     1     -41.317  55.109 -54.486  1.00  0.00     0.278 HD
HETATM    5  C   UNL     1     -41.446  53.201 -53.610  1.00  0.00     0.209 C 
HETATM    6  C   UNL     1     -41.007  53.680 -52.207  1.00  0.00     0.115 C 
HETATM    7  N   UNL     1     -42.074  54.382 -51.495  1.00  0.00    -0.353 N 
HETATM    8  C   UNL     1     -42.943  55.243 -52.135  1.00  0.00     0.249 C 
HETATM    9  O   UNL     1     -43.506  56.134 -51.511  1.00  0.00    -0.271 OA
HETATM   10  C   UNL     1     -40.270  52.611 -54.377  1.00  0.00     0.035 C 
HETATM   11  C   UNL     1     -39.680  51.435 -53.595  1.00  0.00     0.002 C 
HETATM   12  C   UNL     1     -39.312  51.816 -52.158  1.00  0.00     0.002 C 
HETATM   13  C   UNL     1     -40.464  52.494 -51.410  1.00  0.00     0.027 C 
HETATM   14  H   UNL     1     -41.902  54.652 -50.528  1.00  0.00     0.163 HD
ENDROOT
BRANCH   1  15
HETATM   15  C   UNL     1     -43.814  56.127 -54.380  1.00  0.00     0.146 C 
BRANCH  15  16
HETATM   16  C   UNL     1     -42.665  56.839 -55.051  1.00  0.00     0.224 C 
HETATM   17  N   UNL     1     -42.656  57.224 -56.347  1.00  0.00    -0.327 N 
HETATM   18  H   UNL     1     -41.908  57.889 -56.528  1.00  0.00     0.169 HD
HETATM   19  O   UNL     1     -41.719  57.190 -54.326  1.00  0.00    -0.273 OA
BRANCH  17  20
HETATM   20  C   UNL     1     -43.418  56.896 -57.484  1.00  0.00     0.035 A 
HETATM   21  C   UNL     1     -44.472  57.648 -58.002  1.00  0.00     0.037 A 
HETATM   22  C   UNL     1     -45.187  57.221 -59.140  1.00  0.00    -0.054 A 
HETATM   23  C   UNL     1     -44.848  56.005 -59.760  1.00  0.00    -0.056 A 
HETATM   24  C   UNL     1     -46.298  58.086 -59.679  1.00  0.00     0.049 C 
HETATM   25  C   UNL     1     -45.592  55.492 -60.964  1.00  0.00     0.049 C 
HETATM   26  C   UNL     1     -43.828  55.226 -59.206  1.00  0.00     0.009 A 
HETATM   27  C   UNL     1     -43.126  55.666 -58.082  1.00  0.00     0.030 A 
ENDBRANCH  17  20
ENDBRANCH  15  16
ENDBRANCH   1  15
TORSDOF 3
ENDMDL
MODEL 10
REMARK VINA RESULT:      -7.6      2.592      4.373
REMARK  3 active torsions:
REMARK  status: ('A' for Active; 'I' for Inactive)
REMARK    1  A    between atoms: C_6  and  N_7 
REMARK       I    between atoms: N_7  and  C_8 
REMARK    2  A    between atoms: C_8  and  C_9 
REMARK    3  A    between atoms: C_9  and  C_10 
ROOT
HETATM    1  C   UNL     1     -42.350  57.927 -52.717  1.00  0.00     0.286 C 
HETATM    2  N   UNL     1     -43.642  58.004 -53.533  1.00  0.00    -0.056 N 
HETATM    3  H   UNL     1     -44.104  57.076 -53.440  1.00  0.00     0.278 HD
HETATM    4  H   UNL     1     -44.286  58.688 -53.117  1.00  0.00     0.278 HD
HETATM    5  C   UNL     1     -43.349  58.324 -54.965  1.00  0.00     0.209 C 
HETATM    6  C   UNL     1     -42.647  59.700 -55.020  1.00  0.00     0.115 C 
HETATM    7  N   UNL     1     -41.486  59.772 -54.133  1.00  0.00    -0.353 N 
HETATM    8  C   UNL     1     -41.478  59.188 -52.882  1.00  0.00     0.249 C 
HETATM    9  O   UNL     1     -40.735  59.611 -52.005  1.00  0.00    -0.271 OA
HETATM   10  C   UNL     1     -44.634  58.336 -55.783  1.00  0.00     0.035 C 
HETATM   11  C   UNL     1     -44.319  58.693 -57.237  1.00  0.00     0.002 C 
HETATM   12  C   UNL     1     -43.534  60.002 -57.359  1.00  0.00     0.002 C 
HETATM   13  C   UNL     1     -42.288  60.033 -56.469  1.00  0.00     0.027 C 
HETATM   14  H   UNL     1     -40.910  60.612 -54.174  1.00  0.00     0.163 HD
ENDROOT
BRANCH   1  15
HETATM   15  C   UNL     1     -42.665  57.600 -51.255  1.00  0.00     0.146 C 
BRANCH  15  16
HETATM   16  C   UNL     1     -43.844  56.659 -51.237  1.00  0.00     0.224 C 
HETATM   17  N   UNL     1     -43.770  55.335 -51.501  1.00  0.00    -0.327 N 
HETATM   18  H   UNL     1     -44.613  54.852 -51.201  1.00  0.00     0.169 HD
HETATM   19  O   UNL     1     -44.927  57.120 -50.839  1.00  0.00    -0.273 OA
BRANCH  17  20
HETATM   20  C   UNL     1     -42.818  54.498 -52.113  1.00  0.00     0.035 A 
HETATM   21  C   UNL     1     -41.740  53.889 -51.472  1.00  0.00     0.037 A 
HETATM   22  C   UNL     1     -40.827  53.080 -52.181  1.00  0.00    -0.054 A 
HETATM   23  C   UNL     1     -40.993  52.893 -53.566  1.00  0.00    -0.056 A 
HETATM   24  C   UNL     1     -39.696  52.419 -51.437  1.00  0.00     0.049 C 
HETATM   25  C   UNL     1     -40.037  52.058 -54.375  1.00  0.00     0.049 C 
HETATM   26  C   UNL     1     -42.042  53.549 -54.216  1.00  0.00     0.009 A 
HETATM   27  C   UNL     1     -42.940  54.343 -53.498  1.00  0.00     0.030 A 
ENDBRANCH  17  20
ENDBRANCH  15  16
ENDBRANCH   1  15
TORSDOF 3
ENDMDL
