MODEL 1
REMARK VINA RESULT:      -9.0      0.000      0.000
REMARK  5 active torsions:
REMARK  status: ('A' for Active; 'I' for Inactive)
REMARK    1  A    between atoms: C_2  and  C_3 
REMARK    2  A    between atoms: C_2  and  C_9 
REMARK    3  A    between atoms: C_9  and  C_10 
REMARK       I    between atoms: C_10  and  N_11 
REMARK    4  A    between atoms: N_11  and  C_12 
REMARK    5  A    between atoms: C_19  and  C_20 
REMARK       I    between atoms: C_20  and  N_21 
ROOT
HETATM    1  C   UNL     1     -42.477  56.401 -56.859  1.00  0.00     0.035 A 
HETATM    2  C   UNL     1     -43.125  55.760 -57.924  1.00  0.00     0.046 A 
HETATM    3  C   UNL     1     -43.854  56.526 -58.861  1.00  0.00     0.030 A 
HETATM    4  C   UNL     1     -43.903  57.905 -58.705  1.00  0.00     0.063 A 
HETATM    5  N   UNL     1     -44.665  58.362 -59.744  1.00  0.00    -0.277 N 
HETATM    6  H   UNL     1     -44.914  59.322 -59.947  1.00  0.00     0.189 HD
HETATM    7  N   UNL     1     -45.124  57.401 -60.562  1.00  0.00    -0.168 NA
HETATM    8  C   UNL     1     -44.632  56.259 -60.028  1.00  0.00     0.156 A 
HETATM    9  C   UNL     1     -43.267  58.578 -57.661  1.00  0.00     0.034 A 
HETATM   10  C   UNL     1     -42.557  57.796 -56.741  1.00  0.00     0.032 A 
ENDROOT
BRANCH   1  11
HETATM   11  N   UNL     1     -41.756  55.720 -55.855  1.00  0.00    -0.327 N 
HETATM   12  C   UNL     1     -41.624  56.076 -54.524  1.00  0.00     0.223 C 
HETATM   13  O   UNL     1     -42.200  56.995 -53.953  1.00  0.00    -0.273 OA
HETATM   14  H   UNL     1     -41.289  54.872 -56.146  1.00  0.00     0.169 HD
BRANCH  12  15
HETATM   15  C   UNL     1     -40.629  55.204 -53.773  1.00  0.00     0.116 C 
BRANCH  15  16
HETATM   16  C   UNL     1     -41.270  54.257 -52.720  1.00  0.00    -0.012 C 
HETATM   17  C   UNL     1     -42.810  54.270 -52.883  1.00  0.00     0.020 C 
HETATM   18  C   UNL     1     -40.974  54.728 -51.277  1.00  0.00     0.020 C 
BRANCH  16  19
HETATM   19  C   UNL     1     -40.658  52.849 -52.918  1.00  0.00    -0.050 A 
HETATM   20  C   UNL     1     -39.989  52.164 -51.889  1.00  0.00     0.008 A 
HETATM   21  C   UNL     1     -39.445  50.892 -52.097  1.00  0.00     0.001 A 
HETATM   22  C   UNL     1     -39.563  50.271 -53.336  1.00  0.00     0.000 A 
HETATM   23  C   UNL     1     -40.230  50.921 -54.368  1.00  0.00     0.001 A 
HETATM   24  C   UNL     1     -40.772  52.192 -54.161  1.00  0.00     0.008 A 
ENDBRANCH  16  19
ENDBRANCH  15  16
ENDBRANCH  12  15
ENDBRANCH   1  11
BRANCH   8  25
HETATM   25  C   UNL     1     -44.917  54.952 -60.636  1.00  0.00     0.270 C 
HETATM   26  N   UNL     1     -45.169  53.957 -59.730  1.00  0.00    -0.365 N 
HETATM   27  H   UNL     1     -45.138  54.183 -58.742  1.00  0.00     0.159 HD
HETATM   28  H   UNL     1     -45.369  53.025 -60.054  1.00  0.00     0.159 HD
HETATM   29  O   UNL     1     -44.933  54.728 -61.841  1.00  0.00    -0.266 OA
ENDBRANCH   8  25
TORSDOF 5
ENDMDL
MODEL 2
REMARK VINA RESULT:      -8.9      4.273      6.138
REMARK  5 active torsions:
REMARK  status: ('A' for Active; 'I' for Inactive)
REMARK    1  A    between atoms: C_2  and  C_3 
REMARK    2  A    between atoms: C_2  and  C_9 
REMARK    3  A    between atoms: C_9  and  C_10 
REMARK       I    between atoms: C_10  and  N_11 
REMARK    4  A    between atoms: N_11  and  C_12 
REMARK    5  A    between atoms: C_19  and  C_20 
REMARK       I    between atoms: C_20  and  N_21 
ROOT
HETATM    1  C   UNL     1     -43.397  57.552 -53.254  1.00  0.00     0.035 A 
HETATM    2  C   UNL     1     -43.779  58.250 -52.099  1.00  0.00     0.046 A 
HETATM    3  C   UNL     1     -44.779  59.245 -52.184  1.00  0.00     0.030 A 
HETATM    4  C   UNL     1     -45.365  59.502 -53.416  1.00  0.00     0.063 A 
HETATM    5  N   UNL     1     -46.278  60.494 -53.184  1.00  0.00    -0.277 N 
HETATM    6  H   UNL     1     -46.891  60.933 -53.859  1.00  0.00     0.189 HD
HETATM    7  N   UNL     1     -46.333  60.911 -51.909  1.00  0.00    -0.168 NA
HETATM    8  C   UNL     1     -45.411  60.149 -51.277  1.00  0.00     0.156 A 
HETATM    9  C   UNL     1     -45.014  58.826 -54.584  1.00  0.00     0.034 A 
HETATM   10  C   UNL     1     -44.016  57.849 -54.477  1.00  0.00     0.032 A 
ENDROOT
BRANCH   1  11
HETATM   11  N   UNL     1     -42.385  56.569 -53.278  1.00  0.00    -0.327 N 
HETATM   12  C   UNL     1     -42.402  55.328 -52.666  1.00  0.00     0.223 C 
HETATM   13  O   UNL     1     -43.347  54.815 -52.078  1.00  0.00    -0.273 OA
HETATM   14  H   UNL     1     -41.557  56.801 -53.809  1.00  0.00     0.169 HD
BRANCH  12  15
HETATM   15  C   UNL     1     -41.067  54.602 -52.759  1.00  0.00     0.116 C 
BRANCH  15  16
HETATM   16  C   UNL     1     -40.917  53.688 -54.007  1.00  0.00    -0.012 C 
HETATM   17  C   UNL     1     -39.968  54.361 -55.029  1.00  0.00     0.020 C 
HETATM   18  C   UNL     1     -42.271  53.484 -54.728  1.00  0.00     0.020 C 
BRANCH  16  19
HETATM   19  C   UNL     1     -40.400  52.312 -53.524  1.00  0.00    -0.050 A 
HETATM   20  C   UNL     1     -39.956  52.089 -52.209  1.00  0.00     0.008 A 
HETATM   21  C   UNL     1     -39.492  50.835 -51.801  1.00  0.00     0.001 A 
HETATM   22  C   UNL     1     -39.468  49.770 -52.695  1.00  0.00     0.000 A 
HETATM   23  C   UNL     1     -39.912  49.958 -53.999  1.00  0.00     0.001 A 
HETATM   24  C   UNL     1     -40.373  51.212 -54.407  1.00  0.00     0.008 A 
ENDBRANCH  16  19
ENDBRANCH  15  16
ENDBRANCH  12  15
ENDBRANCH   1  11
BRANCH   8  25
HETATM   25  C   UNL     1     -45.153  60.304 -49.839  1.00  0.00     0.270 C 
HETATM   26  N   UNL     1     -43.879  60.705 -49.539  1.00  0.00    -0.365 N 
HETATM   27  H   UNL     1     -43.227  60.856 -50.301  1.00  0.00     0.159 HD
HETATM   28  H   UNL     1     -43.608  60.831 -48.578  1.00  0.00     0.159 HD
HETATM   29  O   UNL     1     -45.976  60.098 -48.953  1.00  0.00    -0.266 OA
ENDBRANCH   8  25
TORSDOF 5
ENDMDL
MODEL 3
REMARK VINA RESULT:      -8.8      2.061      3.416
REMARK  5 active torsions:
REMARK  status: ('A' for Active; 'I' for Inactive)
REMARK    1  A    between atoms: C_2  and  C_3 
REMARK    2  A    between atoms: C_2  and  C_9 
REMARK    3  A    between atoms: C_9  and  C_10 
REMARK       I    between atoms: C_10  and  N_11 
REMARK    4  A    between atoms: N_11  and  C_12 
REMARK    5  A    between atoms: C_19  and  C_20 
REMARK       I    between atoms: C_20  and  N_21 
ROOT
HETATM    1  C   UNL     1     -42.928  56.005 -57.674  1.00  0.00     0.035 A 
HETATM    2  C   UNL     1     -42.444  57.316 -57.566  1.00  0.00     0.046 A 
HETATM    3  C   UNL     1     -42.643  58.223 -58.630  1.00  0.00     0.030 A 
HETATM    4  C   UNL     1     -43.325  57.791 -59.760  1.00  0.00     0.063 A 
HETATM    5  N   UNL     1     -43.361  58.871 -60.598  1.00  0.00    -0.277 N 
HETATM    6  H   UNL     1     -43.780  58.920 -61.518  1.00  0.00     0.189 HD
HETATM    7  N   UNL     1     -42.756  59.969 -60.117  1.00  0.00    -0.168 NA
HETATM    8  C   UNL     1     -42.305  59.584 -58.900  1.00  0.00     0.156 A 
HETATM    9  C   UNL     1     -43.825  56.497 -59.901  1.00  0.00     0.034 A 
HETATM   10  C   UNL     1     -43.609  55.613 -58.836  1.00  0.00     0.032 A 
ENDROOT
BRANCH   1  11
HETATM   11  N   UNL     1     -42.748  55.017 -56.682  1.00  0.00    -0.327 N 
HETATM   12  C   UNL     1     -43.048  55.111 -55.334  1.00  0.00     0.223 C 
HETATM   13  O   UNL     1     -43.626  56.037 -54.777  1.00  0.00    -0.273 OA
HETATM   14  H   UNL     1     -42.359  54.140 -57.000  1.00  0.00     0.169 HD
BRANCH  12  15
HETATM   15  C   UNL     1     -42.557  53.915 -54.532  1.00  0.00     0.116 C 
BRANCH  15  16
HETATM   16  C   UNL     1     -41.164  54.111 -53.872  1.00  0.00    -0.012 C 
HETATM   17  C   UNL     1     -41.307  55.012 -52.620  1.00  0.00     0.020 C 
HETATM   18  C   UNL     1     -40.180  54.831 -54.824  1.00  0.00     0.020 C 
BRANCH  16  19
HETATM   19  C   UNL     1     -40.597  52.710 -53.540  1.00  0.00    -0.050 A 
HETATM   20  C   UNL     1     -40.008  52.406 -52.300  1.00  0.00     0.008 A 
HETATM   21  C   UNL     1     -39.502  51.131 -52.029  1.00  0.00     0.001 A 
HETATM   22  C   UNL     1     -39.581  50.125 -52.986  1.00  0.00     0.000 A 
HETATM   23  C   UNL     1     -40.168  50.394 -54.217  1.00  0.00     0.001 A 
HETATM   24  C   UNL     1     -40.671  51.669 -54.489  1.00  0.00     0.008 A 
ENDBRANCH  16  19
ENDBRANCH  15  16
ENDBRANCH  12  15
ENDBRANCH   1  11
BRANCH   8  25
HETATM   25  C   UNL     1     -41.565  60.514 -58.035  1.00  0.00     0.270 C 
HETATM   26  N   UNL     1     -41.020  61.580 -58.698  1.00  0.00    -0.365 N 
HETATM   27  H   UNL     1     -41.157  61.649 -59.700  1.00  0.00     0.159 HD
HETATM   28  H   UNL     1     -40.490  62.267 -58.188  1.00  0.00     0.159 HD
HETATM   29  O   UNL     1     -41.420  60.380 -56.825  1.00  0.00    -0.266 OA
ENDBRANCH   8  25
TORSDOF 5
ENDMDL
MODEL 4
REMARK VINA RESULT:      -8.5      1.752      2.303
REMARK  5 active torsions:
REMARK  status: ('A' for Active; 'I' for Inactive)
REMARK    1  A    between atoms: C_2  and  C_3 
REMARK    2  A    between atoms: C_2  and  C_9 
REMARK    3  A    between atoms: C_9  and  C_10 
REMARK       I    between atoms: C_10  and  N_11 
REMARK    4  A    between atoms: N_11  and  C_12 
REMARK    5  A    between atoms: C_19  and  C_20 
REMARK       I    between atoms: C_20  and  N_21 
ROOT
HETATM    1  C   UNL     1     -42.266  58.243 -55.461  1.00  0.00     0.035 A 
HETATM    2  C   UNL     1     -42.438  57.668 -56.727  1.00  0.00     0.046 A 
HETATM    3  C   UNL     1     -42.409  58.490 -57.876  1.00  0.00     0.030 A 
HETATM    4  C   UNL     1     -42.203  59.854 -57.719  1.00  0.00     0.063 A 
HETATM    5  N   UNL     1     -42.226  60.373 -58.984  1.00  0.00    -0.277 N 
HETATM    6  H   UNL     1     -42.108  61.342 -59.252  1.00  0.00     0.189 HD
HETATM    7  N   UNL     1     -42.435  59.467 -59.953  1.00  0.00    -0.168 NA
HETATM    8  C   UNL     1     -42.553  58.297 -59.284  1.00  0.00     0.156 A 
HETATM    9  C   UNL     1     -42.024  60.460 -56.476  1.00  0.00     0.034 A 
HETATM   10  C   UNL     1     -42.063  59.626 -55.351  1.00  0.00     0.032 A 
ENDROOT
BRANCH   1  11
HETATM   11  N   UNL     1     -42.314  57.513 -54.254  1.00  0.00    -0.327 N 
HETATM   12  C   UNL     1     -41.449  56.517 -53.836  1.00  0.00     0.223 C 
HETATM   13  O   UNL     1     -40.418  56.162 -54.397  1.00  0.00    -0.273 OA
HETATM   14  H   UNL     1     -43.067  57.753 -53.624  1.00  0.00     0.169 HD
BRANCH  12  15
HETATM   15  C   UNL     1     -41.909  55.828 -52.560  1.00  0.00     0.116 C 
BRANCH  15  16
HETATM   16  C   UNL     1     -42.586  54.447 -52.782  1.00  0.00    -0.012 C 
HETATM   17  C   UNL     1     -43.505  54.516 -54.027  1.00  0.00     0.020 C 
HETATM   18  C   UNL     1     -43.490  54.059 -51.587  1.00  0.00     0.020 C 
BRANCH  16  19
HETATM   19  C   UNL     1     -41.466  53.389 -52.922  1.00  0.00    -0.050 A 
HETATM   20  C   UNL     1     -40.605  53.054 -51.862  1.00  0.00     0.008 A 
HETATM   21  C   UNL     1     -39.600  52.095 -52.018  1.00  0.00     0.001 A 
HETATM   22  C   UNL     1     -39.436  51.439 -53.233  1.00  0.00     0.000 A 
HETATM   23  C   UNL     1     -40.281  51.742 -54.295  1.00  0.00     0.001 A 
HETATM   24  C   UNL     1     -41.284  52.703 -54.140  1.00  0.00     0.008 A 
ENDBRANCH  16  19
ENDBRANCH  15  16
ENDBRANCH  12  15
ENDBRANCH   1  11
BRANCH   8  25
HETATM   25  C   UNL     1     -42.801  57.036 -59.997  1.00  0.00     0.270 C 
HETATM   26  N   UNL     1     -44.113  56.833 -60.331  1.00  0.00    -0.365 N 
HETATM   27  H   UNL     1     -44.794  57.537 -60.070  1.00  0.00     0.159 HD
HETATM   28  H   UNL     1     -44.380  55.992 -60.816  1.00  0.00     0.159 HD
HETATM   29  O   UNL     1     -41.941  56.210 -60.281  1.00  0.00    -0.266 OA
ENDBRANCH   8  25
TORSDOF 5
ENDMDL
MODEL 5
REMARK VINA RESULT:      -8.5      2.049      2.882
REMARK  5 active torsions:
REMARK  status: ('A' for Active; 'I' for Inactive)
REMARK    1  A    between atoms: C_2  and  C_3 
REMARK    2  A    between atoms: C_2  and  C_9 
REMARK    3  A    between atoms: C_9  and  C_10 
REMARK       I    between atoms: C_10  and  N_11 
REMARK    4  A    between atoms: N_11  and  C_12 
REMARK    5  A    between atoms: C_19  and  C_20 
REMARK       I    between atoms: C_20  and  N_21 
ROOT
HETATM    1  C   UNL     1     -43.145  56.229 -57.791  1.00  0.00     0.035 A 
HETATM    2  C   UNL     1     -44.142  57.173 -57.508  1.00  0.00     0.046 A 
HETATM    3  C   UNL     1     -44.839  57.792 -58.568  1.00  0.00     0.030 A 
HETATM    4  C   UNL     1     -44.522  57.442 -59.874  1.00  0.00     0.063 A 
HETATM    5  N   UNL     1     -45.349  58.192 -60.663  1.00  0.00    -0.277 N 
HETATM    6  H   UNL     1     -45.394  58.196 -61.675  1.00  0.00     0.189 HD
HETATM    7  N   UNL     1     -46.174  59.007 -59.987  1.00  0.00    -0.168 NA
HETATM    8  C   UNL     1     -45.871  58.773 -58.690  1.00  0.00     0.156 A 
HETATM    9  C   UNL     1     -43.540  56.504 -60.194  1.00  0.00     0.034 A 
HETATM   10  C   UNL     1     -42.857  55.909 -59.126  1.00  0.00     0.032 A 
ENDROOT
BRANCH   1  11
HETATM   11  N   UNL     1     -42.370  55.584 -56.804  1.00  0.00    -0.327 N 
HETATM   12  C   UNL     1     -41.847  56.138 -55.649  1.00  0.00     0.223 C 
HETATM   13  O   UNL     1     -42.052  57.269 -55.222  1.00  0.00    -0.273 OA
HETATM   14  H   UNL     1     -42.184  54.603 -56.962  1.00  0.00     0.169 HD
BRANCH  12  15
HETATM   15  C   UNL     1     -40.915  55.191 -54.906  1.00  0.00     0.116 C 
BRANCH  15  16
HETATM   16  C   UNL     1     -41.511  54.595 -53.601  1.00  0.00    -0.012 C 
HETATM   17  C   UNL     1     -43.047  54.459 -53.748  1.00  0.00     0.020 C 
HETATM   18  C   UNL     1     -41.264  55.523 -52.388  1.00  0.00     0.020 C 
BRANCH  16  19
HETATM   19  C   UNL     1     -40.811  53.239 -53.339  1.00  0.00    -0.050 A 
HETATM   20  C   UNL     1     -40.659  52.262 -54.338  1.00  0.00     0.008 A 
HETATM   21  C   UNL     1     -40.023  51.045 -54.072  1.00  0.00     0.001 A 
HETATM   22  C   UNL     1     -39.518  50.778 -52.804  1.00  0.00     0.000 A 
HETATM   23  C   UNL     1     -39.645  51.731 -51.800  1.00  0.00     0.001 A 
HETATM   24  C   UNL     1     -40.282  52.946 -52.065  1.00  0.00     0.008 A 
ENDBRANCH  16  19
ENDBRANCH  15  16
ENDBRANCH  12  15
ENDBRANCH   1  11
BRANCH   8  25
HETATM   25  C   UNL     1     -46.561  59.488 -57.607  1.00  0.00     0.270 C 
HETATM   26  N   UNL     1     -47.905  59.235 -57.539  1.00  0.00    -0.365 N 
HETATM   27  H   UNL     1     -48.313  58.601 -58.217  1.00  0.00     0.159 HD
HETATM   28  H   UNL     1     -48.463  59.685 -56.832  1.00  0.00     0.159 HD
HETATM   29  O   UNL     1     -46.022  60.254 -56.817  1.00  0.00    -0.266 OA
ENDBRANCH   8  25
TORSDOF 5
ENDMDL
MODEL 6
REMARK VINA RESULT:      -8.5      2.484      3.159
REMARK  5 active torsions:
REMARK  status: ('A' for Active; 'I' for Inactive)
REMARK    1  A    between atoms: C_2  and  C_3 
REMARK    2  A    between atoms: C_2  and  C_9 
REMARK    3  A    between atoms: C_9  and  C_10 
REMARK       I    between atoms: C_10  and  N_11 
REMARK    4  A    between atoms: N_11  and  C_12 
REMARK    5  A    between atoms: C_19  and  C_20 
REMARK       I    between atoms: C_20  and  N_21 
ROOT
HETATM    1  C   UNL     1     -43.714  57.126 -53.999  1.00  0.00     0.035 A 
HETATM    2  C   UNL     1     -44.063  57.261 -55.349  1.00  0.00     0.046 A 
HETATM    3  C   UNL     1     -44.864  58.351 -55.758  1.00  0.00     0.030 A 
HETATM    4  C   UNL     1     -45.281  59.270 -54.804  1.00  0.00     0.063 A 
HETATM    5  N   UNL     1     -46.024  60.191 -55.489  1.00  0.00    -0.277 N 
HETATM    6  H   UNL     1     -46.489  61.008 -55.111  1.00  0.00     0.189 HD
HETATM    7  N   UNL     1     -46.134  59.951 -56.805  1.00  0.00    -0.168 NA
HETATM    8  C   UNL     1     -45.423  58.814 -56.988  1.00  0.00     0.156 A 
HETATM    9  C   UNL     1     -44.950  59.171 -53.453  1.00  0.00     0.034 A 
HETATM   10  C   UNL     1     -44.161  58.078 -53.071  1.00  0.00     0.032 A 
ENDROOT
BRANCH   1  11
HETATM   11  N   UNL     1     -42.950  56.055 -53.488  1.00  0.00    -0.327 N 
HETATM   12  C   UNL     1     -41.584  56.023 -53.270  1.00  0.00     0.223 C 
HETATM   13  O   UNL     1     -40.804  56.962 -53.382  1.00  0.00    -0.273 OA
HETATM   14  H   UNL     1     -43.466  55.218 -53.253  1.00  0.00     0.169 HD
BRANCH  12  15
HETATM   15  C   UNL     1     -41.077  54.643 -52.877  1.00  0.00     0.116 C 
BRANCH  15  16
HETATM   16  C   UNL     1     -40.921  53.653 -54.065  1.00  0.00    -0.012 C 
HETATM   17  C   UNL     1     -39.968  54.262 -55.124  1.00  0.00     0.020 C 
HETATM   18  C   UNL     1     -42.272  53.403 -54.778  1.00  0.00     0.020 C 
BRANCH  16  19
HETATM   19  C   UNL     1     -40.404  52.310 -53.496  1.00  0.00    -0.050 A 
HETATM   20  C   UNL     1     -39.994  52.163 -52.159  1.00  0.00     0.008 A 
HETATM   21  C   UNL     1     -39.530  50.937 -51.673  1.00  0.00     0.001 A 
HETATM   22  C   UNL     1     -39.471  49.826 -52.507  1.00  0.00     0.000 A 
HETATM   23  C   UNL     1     -39.881  49.940 -53.830  1.00  0.00     0.001 A 
HETATM   24  C   UNL     1     -40.343  51.166 -54.318  1.00  0.00     0.008 A 
ENDBRANCH  16  19
ENDBRANCH  15  16
ENDBRANCH  12  15
ENDBRANCH   1  11
BRANCH   8  25
HETATM   25  C   UNL     1     -45.300  58.201 -58.317  1.00  0.00     0.270 C 
HETATM   26  N   UNL     1     -46.061  57.076 -58.486  1.00  0.00    -0.365 N 
HETATM   27  H   UNL     1     -46.631  56.756 -57.711  1.00  0.00     0.159 HD
HETATM   28  H   UNL     1     -46.036  56.583 -59.364  1.00  0.00     0.159 HD
HETATM   29  O   UNL     1     -44.586  58.623 -59.220  1.00  0.00    -0.266 OA
ENDBRANCH   8  25
TORSDOF 5
ENDMDL
MODEL 7
REMARK VINA RESULT:      -8.4      1.731      2.409
REMARK  5 active torsions:
REMARK  status: ('A' for Active; 'I' for Inactive)
REMARK    1  A    between atoms: C_2  and  C_3 
REMARK    2  A    between atoms: C_2  and  C_9 
REMARK    3  A    between atoms: C_9  and  C_10 
REMARK       I    between atoms: C_10  and  N_11 
REMARK    4  A    between atoms: N_11  and  C_12 
REMARK    5  A    between atoms: C_19  and  C_20 
REMARK       I    between atoms: C_20  and  N_21 
ROOT
HETATM    1  C   UNL     1     -43.832  56.849 -55.315  1.00  0.00     0.035 A 
HETATM    2  C   UNL     1     -43.430  56.786 -56.657  1.00  0.00     0.046 A 
HETATM    3  C   UNL     1     -44.056  57.617 -57.612  1.00  0.00     0.030 A 
HETATM    4  C   UNL     1     -45.055  58.486 -57.193  1.00  0.00     0.063 A 
HETATM    5  N   UNL     1     -45.461  59.145 -58.320  1.00  0.00    -0.277 N 
HETATM    6  H   UNL     1     -46.179  59.856 -58.391  1.00  0.00     0.189 HD
HETATM    7  N   UNL     1     -44.818  58.779 -59.440  1.00  0.00    -0.168 NA
HETATM    8  C   UNL     1     -43.946  57.833 -59.020  1.00  0.00     0.156 A 
HETATM    9  C   UNL     1     -45.478  58.578 -55.867  1.00  0.00     0.034 A 
HETATM   10  C   UNL     1     -44.848  57.739 -54.939  1.00  0.00     0.032 A 
ENDROOT
BRANCH   1  11
HETATM   11  N   UNL     1     -43.293  56.035 -54.296  1.00  0.00    -0.327 N 
HETATM   12  C   UNL     1     -43.181  54.656 -54.289  1.00  0.00     0.223 C 
HETATM   13  O   UNL     1     -43.434  53.897 -55.218  1.00  0.00    -0.273 OA
HETATM   14  H   UNL     1     -42.946  56.523 -53.481  1.00  0.00     0.169 HD
BRANCH  12  15
HETATM   15  C   UNL     1     -42.712  54.106 -52.950  1.00  0.00     0.116 C 
BRANCH  15  16
HETATM   16  C   UNL     1     -41.173  54.162 -52.735  1.00  0.00    -0.012 C 
HETATM   17  C   UNL     1     -40.869  54.729 -51.326  1.00  0.00     0.020 C 
HETATM   18  C   UNL     1     -40.492  55.110 -53.750  1.00  0.00     0.020 C 
BRANCH  16  19
HETATM   19  C   UNL     1     -40.616  52.733 -52.939  1.00  0.00    -0.050 A 
HETATM   20  C   UNL     1     -40.659  52.074 -54.180  1.00  0.00     0.008 A 
HETATM   21  C   UNL     1     -40.148  50.782 -54.335  1.00  0.00     0.001 A 
HETATM   22  C   UNL     1     -39.574  50.119 -53.255  1.00  0.00     0.000 A 
HETATM   23  C   UNL     1     -39.508  50.750 -52.019  1.00  0.00     0.001 A 
HETATM   24  C   UNL     1     -40.020  52.041 -51.864  1.00  0.00     0.008 A 
ENDBRANCH  16  19
ENDBRANCH  15  16
ENDBRANCH  12  15
ENDBRANCH   1  11
BRANCH   8  25
HETATM   25  C   UNL     1     -43.042  57.160 -59.963  1.00  0.00     0.270 C 
HETATM   26  N   UNL     1     -41.737  57.564 -59.870  1.00  0.00    -0.365 N 
HETATM   27  H   UNL     1     -41.497  58.273 -59.187  1.00  0.00     0.159 HD
HETATM   28  H   UNL     1     -41.045  57.162 -60.481  1.00  0.00     0.159 HD
HETATM   29  O   UNL     1     -43.384  56.312 -60.779  1.00  0.00    -0.266 OA
ENDBRANCH   8  25
TORSDOF 5
ENDMDL
MODEL 8
REMARK VINA RESULT:      -8.1      3.029      8.644
REMARK  5 active torsions:
REMARK  status: ('A' for Active; 'I' for Inactive)
REMARK    1  A    between atoms: C_2  and  C_3 
REMARK    2  A    between atoms: C_2  and  C_9 
REMARK    3  A    between atoms: C_9  and  C_10 
REMARK       I    between atoms: C_10  and  N_11 
REMARK    4  A    between atoms: N_11  and  C_12 
REMARK    5  A    between atoms: C_19  and  C_20 
REMARK       I    between atoms: C_20  and  N_21 
ROOT
HETATM    1  C   UNL     1     -40.903  54.295 -54.244  1.00  0.00     0.035 A 
HETATM    2  C   UNL     1     -41.129  54.451 -52.869  1.00  0.00     0.046 A 
HETATM    3  C   UNL     1     -40.726  53.434 -51.976  1.00  0.00     0.030 A 
HETATM    4  C   UNL     1     -40.105  52.302 -52.486  1.00  0.00     0.063 A 
HETATM    5  N   UNL     1     -39.837  51.514 -51.400  1.00  0.00    -0.277 N 
HETATM    6  H   UNL     1     -39.387  50.607 -51.397  1.00  0.00     0.189 HD
HETATM    7  N   UNL     1     -40.235  52.031 -50.227  1.00  0.00    -0.168 NA
HETATM    8  C   UNL     1     -40.788  53.218 -50.565  1.00  0.00     0.156 A 
HETATM    9  C   UNL     1     -39.859  52.114 -53.846  1.00  0.00     0.034 A 
HETATM   10  C   UNL     1     -40.274  53.133 -54.713  1.00  0.00     0.032 A 
ENDROOT
BRANCH   1  11
HETATM   11  N   UNL     1     -41.300  55.237 -55.217  1.00  0.00    -0.327 N 
HETATM   12  C   UNL     1     -42.420  55.189 -56.028  1.00  0.00     0.223 C 
HETATM   13  O   UNL     1     -43.329  54.368 -55.972  1.00  0.00    -0.273 OA
HETATM   14  H   UNL     1     -40.695  56.040 -55.326  1.00  0.00     0.169 HD
BRANCH  12  15
HETATM   15  C   UNL     1     -42.437  56.287 -57.082  1.00  0.00     0.116 C 
BRANCH  15  16
HETATM   16  C   UNL     1     -43.315  57.516 -56.717  1.00  0.00    -0.012 C 
HETATM   17  C   UNL     1     -42.486  58.813 -56.889  1.00  0.00     0.020 C 
HETATM   18  C   UNL     1     -43.766  57.473 -55.238  1.00  0.00     0.020 C 
BRANCH  16  19
HETATM   19  C   UNL     1     -44.571  57.484 -57.620  1.00  0.00    -0.050 A 
HETATM   20  C   UNL     1     -45.788  58.079 -57.245  1.00  0.00     0.008 A 
HETATM   21  C   UNL     1     -46.908  58.033 -58.081  1.00  0.00     0.001 A 
HETATM   22  C   UNL     1     -46.837  57.398 -59.317  1.00  0.00     0.000 A 
HETATM   23  C   UNL     1     -45.643  56.811 -59.719  1.00  0.00     0.001 A 
HETATM   24  C   UNL     1     -44.524  56.855 -58.882  1.00  0.00     0.008 A 
ENDBRANCH  16  19
ENDBRANCH  15  16
ENDBRANCH  12  15
ENDBRANCH   1  11
BRANCH   8  25
HETATM   25  C   UNL     1     -41.362  54.107 -49.546  1.00  0.00     0.270 C 
HETATM   26  N   UNL     1     -40.567  54.282 -48.446  1.00  0.00    -0.365 N 
HETATM   27  H   UNL     1     -39.675  53.802 -48.412  1.00  0.00     0.159 HD
HETATM   28  H   UNL     1     -40.880  54.871 -47.691  1.00  0.00     0.159 HD
HETATM   29  O   UNL     1     -42.454  54.658 -49.631  1.00  0.00    -0.266 OA
ENDBRANCH   8  25
TORSDOF 5
ENDMDL
MODEL 9
REMARK VINA RESULT:      -8.0      4.442      7.833
REMARK  5 active torsions:
REMARK  status: ('A' for Active; 'I' for Inactive)
REMARK    1  A    between atoms: C_2  and  C_3 
REMARK    2  A    between atoms: C_2  and  C_9 
REMARK    3  A    between atoms: C_9  and  C_10 
REMARK       I    between atoms: C_10  and  N_11 
REMARK    4  A    between atoms: N_11  and  C_12 
REMARK    5  A    between atoms: C_19  and  C_20 
REMARK       I    between atoms: C_20  and  N_21 
ROOT
HETATM    1  C   UNL     1     -40.736  54.629 -52.728  1.00  0.00     0.035 A 
HETATM    2  C   UNL     1     -40.456  53.465 -51.999  1.00  0.00     0.046 A 
HETATM    3  C   UNL     1     -40.152  52.268 -52.684  1.00  0.00     0.030 A 
HETATM    4  C   UNL     1     -40.131  52.277 -54.072  1.00  0.00     0.063 A 
HETATM    5  N   UNL     1     -39.812  51.000 -54.440  1.00  0.00    -0.277 N 
HETATM    6  H   UNL     1     -39.708  50.639 -55.381  1.00  0.00     0.189 HD
HETATM    7  N   UNL     1     -39.628  50.155 -53.413  1.00  0.00    -0.168 NA
HETATM    8  C   UNL     1     -39.836  50.923 -52.319  1.00  0.00     0.156 A 
HETATM    9  C   UNL     1     -40.400  53.417 -54.831  1.00  0.00     0.034 A 
HETATM   10  C   UNL     1     -40.706  54.590 -54.130  1.00  0.00     0.032 A 
ENDROOT
BRANCH   1  11
HETATM   11  N   UNL     1     -41.085  55.862 -52.136  1.00  0.00    -0.327 N 
HETATM   12  C   UNL     1     -42.092  56.101 -51.218  1.00  0.00     0.223 C 
HETATM   13  O   UNL     1     -42.797  55.260 -50.671  1.00  0.00    -0.273 OA
HETATM   14  H   UNL     1     -40.528  56.658 -52.416  1.00  0.00     0.169 HD
BRANCH  12  15
HETATM   15  C   UNL     1     -42.295  57.581 -50.931  1.00  0.00     0.116 C 
BRANCH  15  16
HETATM   16  C   UNL     1     -43.510  58.218 -51.663  1.00  0.00    -0.012 C 
HETATM   17  C   UNL     1     -43.628  59.710 -51.267  1.00  0.00     0.020 C 
HETATM   18  C   UNL     1     -44.839  57.543 -51.248  1.00  0.00     0.020 C 
BRANCH  16  19
HETATM   19  C   UNL     1     -43.304  58.016 -53.183  1.00  0.00    -0.050 A 
HETATM   20  C   UNL     1     -42.368  58.757 -53.925  1.00  0.00     0.008 A 
HETATM   21  C   UNL     1     -42.204  58.554 -55.299  1.00  0.00     0.001 A 
HETATM   22  C   UNL     1     -42.966  57.599 -55.964  1.00  0.00     0.000 A 
HETATM   23  C   UNL     1     -43.891  56.844 -55.254  1.00  0.00     0.001 A 
HETATM   24  C   UNL     1     -44.057  57.048 -53.881  1.00  0.00     0.008 A 
ENDBRANCH  16  19
ENDBRANCH  15  16
ENDBRANCH  12  15
ENDBRANCH   1  11
BRANCH   8  25
HETATM   25  C   UNL     1     -39.736  50.362 -50.965  1.00  0.00     0.270 C 
HETATM   26  N   UNL     1     -38.881  49.297 -50.864  1.00  0.00    -0.365 N 
HETATM   27  H   UNL     1     -38.401  48.981 -51.699  1.00  0.00     0.159 HD
HETATM   28  H   UNL     1     -38.753  48.842 -49.975  1.00  0.00     0.159 HD
HETATM   29  O   UNL     1     -40.348  50.776 -49.987  1.00  0.00    -0.266 OA
ENDBRANCH   8  25
TORSDOF 5
ENDMDL
MODEL 10
REMARK VINA RESULT:      -7.9      3.100      8.438
REMARK  5 active torsions:
REMARK  status: ('A' for Active; 'I' for Inactive)
REMARK    1  A    between atoms: C_2  and  C_3 
REMARK    2  A    between atoms: C_2  and  C_9 
REMARK    3  A    between atoms: C_9  and  C_10 
REMARK       I    between atoms: C_10  and  N_11 
REMARK    4  A    between atoms: N_11  and  C_12 
REMARK    5  A    between atoms: C_19  and  C_20 
REMARK       I    between atoms: C_20  and  N_21 
ROOT
HETATM    1  C   UNL     1     -41.401  55.433 -53.363  1.00  0.00     0.035 A 
HETATM    2  C   UNL     1     -40.961  54.198 -52.866  1.00  0.00     0.046 A 
HETATM    3  C   UNL     1     -40.736  54.044 -51.480  1.00  0.00     0.030 A 
HETATM    4  C   UNL     1     -40.964  55.126 -50.640  1.00  0.00     0.063 A 
HETATM    5  N   UNL     1     -40.665  54.679 -49.382  1.00  0.00    -0.277 N 
HETATM    6  H   UNL     1     -40.716  55.203 -48.517  1.00  0.00     0.189 HD
HETATM    7  N   UNL     1     -40.255  53.402 -49.329  1.00  0.00    -0.168 NA
HETATM    8  C   UNL     1     -40.291  52.995 -50.618  1.00  0.00     0.156 A 
HETATM    9  C   UNL     1     -41.405  56.368 -51.098  1.00  0.00     0.034 A 
HETATM   10  C   UNL     1     -41.615  56.498 -52.476  1.00  0.00     0.032 A 
ENDROOT
BRANCH   1  11
HETATM   11  N   UNL     1     -41.619  55.695 -54.733  1.00  0.00    -0.327 N 
HETATM   12  C   UNL     1     -42.651  55.225 -55.526  1.00  0.00     0.223 C 
HETATM   13  O   UNL     1     -43.624  54.579 -55.154  1.00  0.00    -0.273 OA
HETATM   14  H   UNL     1     -40.943  56.300 -55.178  1.00  0.00     0.169 HD
BRANCH  12  15
HETATM   15  C   UNL     1     -42.470  55.569 -56.998  1.00  0.00     0.116 C 
BRANCH  15  16
HETATM   16  C   UNL     1     -43.233  56.842 -57.459  1.00  0.00    -0.012 C 
HETATM   17  C   UNL     1     -42.214  57.938 -57.861  1.00  0.00     0.020 C 
HETATM   18  C   UNL     1     -44.093  57.434 -56.318  1.00  0.00     0.020 C 
BRANCH  16  19
HETATM   19  C   UNL     1     -44.167  56.436 -58.625  1.00  0.00    -0.050 A 
HETATM   20  C   UNL     1     -43.972  55.265 -59.378  1.00  0.00     0.008 A 
HETATM   21  C   UNL     1     -44.832  54.924 -60.427  1.00  0.00     0.001 A 
HETATM   22  C   UNL     1     -45.912  55.741 -60.744  1.00  0.00     0.000 A 
HETATM   23  C   UNL     1     -46.135  56.900 -60.009  1.00  0.00     0.001 A 
HETATM   24  C   UNL     1     -45.274  57.242 -58.962  1.00  0.00     0.008 A 
ENDBRANCH  16  19
ENDBRANCH  15  16
ENDBRANCH  12  15
ENDBRANCH   1  11
BRANCH   8  25
HETATM   25  C   UNL     1     -39.901  51.629 -50.996  1.00  0.00     0.270 C 
HETATM   26  N   UNL     1     -40.290  50.670 -50.101  1.00  0.00    -0.365 N 
HETATM   27  H   UNL     1     -40.797  50.958 -49.271  1.00  0.00     0.159 HD
HETATM   28  H   UNL     1     -40.061  49.704 -50.272  1.00  0.00     0.159 HD
HETATM   29  O   UNL     1     -39.278  51.333 -52.009  1.00  0.00    -0.266 OA
ENDBRANCH   8  25
TORSDOF 5
ENDMDL
