MODEL 1
REMARK VINA RESULT:      -9.0      0.000      0.000
REMARK  4 active torsions:
REMARK  status: ('A' for Active; 'I' for Inactive)
REMARK    1  A    between atoms: C_3  and  N_4 
REMARK    2  A    between atoms: C_11  and  C_12 
REMARK       I    between atoms: C_12  and  N_13 
REMARK    3  A    between atoms: N_13  and  C_14 
REMARK    4  A    between atoms: C_19  and  O_20 
ROOT
HETATM    1  C   UNL     1     -43.914  58.196 -51.354  1.00  0.00     0.036 A 
HETATM    2  C   UNL     1     -43.395  59.477 -51.535  1.00  0.00     0.049 A 
HETATM    3  C   UNL     1     -44.161  60.624 -51.234  1.00  0.00     0.063 A 
HETATM    4  C   UNL     1     -45.467  60.494 -50.731  1.00  0.00     0.075 A 
HETATM    5  N   UNL     1     -46.360  61.532 -50.404  1.00  0.00    -0.226 NA
HETATM    6  C   UNL     1     -45.936  62.593 -49.806  1.00  0.00     0.161 C 
HETATM    7  C   UNL     1     -44.509  62.920 -49.417  1.00  0.00     0.164 C 
HETATM    8  N   UNL     1     -43.743  62.983 -50.657  1.00  0.00    -0.336 N 
HETATM    9  C   UNL     1     -43.513  61.931 -51.517  1.00  0.00     0.257 C 
HETATM   10  O   UNL     1     -42.768  62.032 -52.489  1.00  0.00    -0.267 OA
HETATM   11  C   UNL     1     -44.302  64.298 -48.779  1.00  0.00     0.035 C 
HETATM   12  C   UNL     1     -42.970  64.763 -49.356  1.00  0.00     0.022 C 
HETATM   13  C   UNL     1     -43.019  64.234 -50.779  1.00  0.00     0.127 C 
HETATM   14  C   UNL     1     -45.981  59.200 -50.578  1.00  0.00     0.035 A 
HETATM   15  C   UNL     1     -45.223  58.066 -50.888  1.00  0.00     0.032 A 
ENDROOT
BRANCH   1  16
HETATM   16  N   UNL     1     -43.210  57.004 -51.630  1.00  0.00    -0.323 N 
HETATM   17  C   UNL     1     -42.001  56.602 -51.087  1.00  0.00     0.256 C 
HETATM   18  O   UNL     1     -41.345  57.210 -50.249  1.00  0.00    -0.267 OA
HETATM   19  H   UNL     1     -43.637  56.397 -52.314  1.00  0.00     0.169 HD
BRANCH  17  20
HETATM   20  C   UNL     1     -41.462  55.305 -51.596  1.00  0.00     0.033 A 
HETATM   21  C   UNL     1     -41.219  54.210 -50.768  1.00  0.00     0.019 A 
HETATM   22  C   UNL     1     -40.738  53.014 -51.314  1.00  0.00     0.031 A 
HETATM   23  C   UNL     1     -40.478  52.893 -52.694  1.00  0.00     0.044 A 
HETATM   24  C   UNL     1     -40.644  54.020 -53.526  1.00  0.00    -0.034 A 
HETATM   25  C   UNL     1     -40.260  54.086 -54.981  1.00  0.00     0.050 C 
HETATM   26  C   UNL     1     -41.158  55.207 -52.961  1.00  0.00     0.026 A 
BRANCH  23  27
HETATM   27  N   UNL     1     -40.063  51.612 -53.181  1.00  0.00    -0.332 N 
HETATM   28  C   UNL     1     -39.486  50.605 -52.425  1.00  0.00     0.096 A 
HETATM   29  C   UNL     1     -39.249  49.510 -53.227  1.00  0.00     0.019 A 
HETATM   30  C   UNL     1     -39.718  49.830 -54.515  1.00  0.00     0.019 A 
HETATM   31  C   UNL     1     -40.223  51.110 -54.458  1.00  0.00     0.096 A 
ENDBRANCH  23  27
ENDBRANCH  17  20
ENDBRANCH   1  16
BRANCH   6  32
HETATM   32  O   UNL     1     -46.872  63.493 -49.481  1.00  0.00    -0.346 OA
HETATM   33  H   UNL     1     -47.253  63.213 -48.631  1.00  0.00     0.219 HD
ENDBRANCH   6  32
TORSDOF 4
ENDMDL
MODEL 2
REMARK VINA RESULT:      -9.0      6.021      9.931
REMARK  4 active torsions:
REMARK  status: ('A' for Active; 'I' for Inactive)
REMARK    1  A    between atoms: C_3  and  N_4 
REMARK    2  A    between atoms: C_11  and  C_12 
REMARK       I    between atoms: C_12  and  N_13 
REMARK    3  A    between atoms: N_13  and  C_14 
REMARK    4  A    between atoms: C_19  and  O_20 
ROOT
HETATM    1  C   UNL     1     -42.859  55.733 -54.496  1.00  0.00     0.036 A 
HETATM    2  C   UNL     1     -41.982  54.654 -54.397  1.00  0.00     0.049 A 
HETATM    3  C   UNL     1     -41.227  54.432 -53.224  1.00  0.00     0.063 A 
HETATM    4  C   UNL     1     -41.358  55.294 -52.122  1.00  0.00     0.075 A 
HETATM    5  N   UNL     1     -40.666  55.221 -50.898  1.00  0.00    -0.226 NA
HETATM    6  C   UNL     1     -40.456  54.081 -50.335  1.00  0.00     0.161 C 
HETATM    7  C   UNL     1     -40.838  52.712 -50.861  1.00  0.00     0.164 C 
HETATM    8  N   UNL     1     -40.115  52.532 -52.116  1.00  0.00    -0.336 N 
HETATM    9  C   UNL     1     -40.292  53.278 -53.261  1.00  0.00     0.257 C 
HETATM   10  O   UNL     1     -39.725  53.001 -54.316  1.00  0.00    -0.267 OA
HETATM   11  C   UNL     1     -40.387  51.528 -49.998  1.00  0.00     0.035 C 
HETATM   12  C   UNL     1     -39.984  50.472 -51.022  1.00  0.00     0.022 C 
HETATM   13  C   UNL     1     -39.348  51.302 -52.124  1.00  0.00     0.127 C 
HETATM   14  C   UNL     1     -42.225  56.387 -52.248  1.00  0.00     0.035 A 
HETATM   15  C   UNL     1     -42.963  56.610 -53.415  1.00  0.00     0.032 A 
ENDROOT
BRANCH   1  16
HETATM   16  N   UNL     1     -43.647  56.019 -55.632  1.00  0.00    -0.323 N 
HETATM   17  C   UNL     1     -43.296  56.804 -56.717  1.00  0.00     0.256 C 
HETATM   18  O   UNL     1     -42.221  57.367 -56.887  1.00  0.00    -0.267 OA
HETATM   19  H   UNL     1     -44.572  55.616 -55.629  1.00  0.00     0.169 HD
BRANCH  17  20
HETATM   20  C   UNL     1     -44.350  56.970 -57.763  1.00  0.00     0.033 A 
HETATM   21  C   UNL     1     -45.435  57.831 -57.613  1.00  0.00     0.019 A 
HETATM   22  C   UNL     1     -46.373  57.959 -58.645  1.00  0.00     0.031 A 
HETATM   23  C   UNL     1     -46.253  57.221 -59.839  1.00  0.00     0.044 A 
HETATM   24  C   UNL     1     -45.202  56.287 -59.967  1.00  0.00    -0.034 A 
HETATM   25  C   UNL     1     -45.036  55.322 -61.111  1.00  0.00     0.050 C 
HETATM   26  C   UNL     1     -44.251  56.196 -58.928  1.00  0.00     0.026 A 
BRANCH  23  27
HETATM   27  N   UNL     1     -47.210  57.470 -60.873  1.00  0.00    -0.332 N 
HETATM   28  C   UNL     1     -47.959  56.509 -61.535  1.00  0.00     0.096 A 
HETATM   29  C   UNL     1     -48.793  57.123 -62.443  1.00  0.00     0.019 A 
HETATM   30  C   UNL     1     -48.582  58.510 -62.326  1.00  0.00     0.019 A 
HETATM   31  C   UNL     1     -47.625  58.696 -61.353  1.00  0.00     0.096 A 
ENDBRANCH  23  27
ENDBRANCH  17  20
ENDBRANCH   1  16
BRANCH   6  32
HETATM   32  O   UNL     1     -39.848  54.121 -49.143  1.00  0.00    -0.346 OA
HETATM   33  H   UNL     1     -39.745  53.201 -48.845  1.00  0.00     0.219 HD
ENDBRANCH   6  32
TORSDOF 4
ENDMDL
MODEL 3
REMARK VINA RESULT:      -8.8      3.181     10.537
REMARK  4 active torsions:
REMARK  status: ('A' for Active; 'I' for Inactive)
REMARK    1  A    between atoms: C_3  and  N_4 
REMARK    2  A    between atoms: C_11  and  C_12 
REMARK       I    between atoms: C_12  and  N_13 
REMARK    3  A    between atoms: N_13  and  C_14 
REMARK    4  A    between atoms: C_19  and  O_20 
ROOT
HETATM    1  C   UNL     1     -44.579  58.999 -51.480  1.00  0.00     0.036 A 
HETATM    2  C   UNL     1     -44.007  57.731 -51.378  1.00  0.00     0.049 A 
HETATM    3  C   UNL     1     -43.873  56.897 -52.508  1.00  0.00     0.063 A 
HETATM    4  C   UNL     1     -44.306  57.337 -53.771  1.00  0.00     0.075 A 
HETATM    5  N   UNL     1     -44.262  56.622 -54.983  1.00  0.00    -0.226 NA
HETATM    6  C   UNL     1     -43.235  55.901 -55.277  1.00  0.00     0.161 C 
HETATM    7  C   UNL     1     -42.003  55.665 -54.427  1.00  0.00     0.164 C 
HETATM    8  N   UNL     1     -42.459  55.004 -53.209  1.00  0.00    -0.336 N 
HETATM    9  C   UNL     1     -43.295  55.551 -52.260  1.00  0.00     0.257 C 
HETATM   10  O   UNL     1     -43.550  54.976 -51.204  1.00  0.00    -0.267 OA
HETATM   11  C   UNL     1     -40.975  54.694 -55.017  1.00  0.00     0.035 C 
HETATM   12  C   UNL     1     -40.477  53.919 -53.802  1.00  0.00     0.022 C 
HETATM   13  C   UNL     1     -41.733  53.773 -52.960  1.00  0.00     0.127 C 
HETATM   14  C   UNL     1     -44.900  58.603 -53.852  1.00  0.00     0.035 A 
HETATM   15  C   UNL     1     -45.040  59.423 -52.727  1.00  0.00     0.032 A 
ENDROOT
BRANCH   1  16
HETATM   16  N   UNL     1     -44.743  59.889 -50.398  1.00  0.00    -0.323 N 
HETATM   17  C   UNL     1     -44.084  61.090 -50.195  1.00  0.00     0.256 C 
HETATM   18  O   UNL     1     -43.257  61.598 -50.942  1.00  0.00    -0.267 OA
HETATM   19  H   UNL     1     -45.403  59.595 -49.692  1.00  0.00     0.169 HD
BRANCH  17  20
HETATM   20  C   UNL     1     -44.426  61.811 -48.932  1.00  0.00     0.033 A 
HETATM   21  C   UNL     1     -44.444  63.201 -48.836  1.00  0.00     0.019 A 
HETATM   22  C   UNL     1     -44.800  63.814 -47.628  1.00  0.00     0.031 A 
HETATM   23  C   UNL     1     -45.131  63.050 -46.491  1.00  0.00     0.044 A 
HETATM   24  C   UNL     1     -45.037  61.644 -46.555  1.00  0.00    -0.034 A 
HETATM   25  C   UNL     1     -45.207  60.709 -45.387  1.00  0.00     0.050 C 
HETATM   26  C   UNL     1     -44.706  61.046 -47.791  1.00  0.00     0.026 A 
BRANCH  23  27
HETATM   27  N   UNL     1     -45.558  63.754 -45.320  1.00  0.00    -0.332 N 
HETATM   28  C   UNL     1     -46.867  64.085 -45.005  1.00  0.00     0.096 A 
HETATM   29  C   UNL     1     -46.895  64.733 -43.789  1.00  0.00     0.019 A 
HETATM   30  C   UNL     1     -45.570  64.782 -43.316  1.00  0.00     0.019 A 
HETATM   31  C   UNL     1     -44.777  64.167 -44.258  1.00  0.00     0.096 A 
ENDBRANCH  23  27
ENDBRANCH  17  20
ENDBRANCH   1  16
BRANCH   6  32
HETATM   32  O   UNL     1     -43.261  55.311 -56.479  1.00  0.00    -0.346 OA
HETATM   33  H   UNL     1     -44.051  55.641 -56.941  1.00  0.00     0.219 HD
ENDBRANCH   6  32
TORSDOF 4
ENDMDL
MODEL 4
REMARK VINA RESULT:      -8.7      1.973      2.610
REMARK  4 active torsions:
REMARK  status: ('A' for Active; 'I' for Inactive)
REMARK    1  A    between atoms: C_3  and  N_4 
REMARK    2  A    between atoms: C_11  and  C_12 
REMARK       I    between atoms: C_12  and  N_13 
REMARK    3  A    between atoms: N_13  and  C_14 
REMARK    4  A    between atoms: C_19  and  O_20 
ROOT
HETATM    1  C   UNL     1     -44.754  59.684 -51.915  1.00  0.00     0.036 A 
HETATM    2  C   UNL     1     -44.642  60.531 -50.814  1.00  0.00     0.049 A 
HETATM    3  C   UNL     1     -45.382  61.730 -50.737  1.00  0.00     0.063 A 
HETATM    4  C   UNL     1     -46.264  62.089 -51.772  1.00  0.00     0.075 A 
HETATM    5  N   UNL     1     -47.052  63.252 -51.854  1.00  0.00    -0.226 NA
HETATM    6  C   UNL     1     -47.652  63.708 -50.808  1.00  0.00     0.161 C 
HETATM    7  C   UNL     1     -47.591  63.154 -49.399  1.00  0.00     0.164 C 
HETATM    8  N   UNL     1     -46.198  63.249 -48.975  1.00  0.00    -0.336 N 
HETATM    9  C   UNL     1     -45.137  62.571 -49.536  1.00  0.00     0.257 C 
HETATM   10  O   UNL     1     -44.006  62.616 -49.058  1.00  0.00    -0.267 OA
HETATM   11  C   UNL     1     -48.357  63.960 -48.344  1.00  0.00     0.035 C 
HETATM   12  C   UNL     1     -47.459  63.885 -47.114  1.00  0.00     0.022 C 
HETATM   13  C   UNL     1     -46.065  63.953 -47.714  1.00  0.00     0.127 C 
HETATM   14  C   UNL     1     -46.346  61.238 -52.882  1.00  0.00     0.035 A 
HETATM   15  C   UNL     1     -45.602  60.056 -52.959  1.00  0.00     0.032 A 
ENDROOT
BRANCH   1  16
HETATM   16  N   UNL     1     -44.049  58.470 -52.062  1.00  0.00    -0.323 N 
HETATM   17  C   UNL     1     -44.312  57.268 -51.427  1.00  0.00     0.256 C 
HETATM   18  O   UNL     1     -45.226  57.048 -50.641  1.00  0.00    -0.267 OA
HETATM   19  H   UNL     1     -43.257  58.502 -52.688  1.00  0.00     0.169 HD
BRANCH  17  20
HETATM   20  C   UNL     1     -43.371  56.151 -51.740  1.00  0.00     0.033 A 
HETATM   21  C   UNL     1     -43.285  54.994 -50.967  1.00  0.00     0.019 A 
HETATM   22  C   UNL     1     -42.400  53.973 -51.332  1.00  0.00     0.031 A 
HETATM   23  C   UNL     1     -41.575  54.092 -52.468  1.00  0.00     0.044 A 
HETATM   24  C   UNL     1     -41.596  55.292 -53.210  1.00  0.00    -0.034 A 
HETATM   25  C   UNL     1     -40.666  55.624 -54.347  1.00  0.00     0.050 C 
HETATM   26  C   UNL     1     -42.518  56.297 -52.843  1.00  0.00     0.026 A 
BRANCH  23  27
HETATM   27  N   UNL     1     -40.756  52.970 -52.815  1.00  0.00    -0.332 N 
HETATM   28  C   UNL     1     -39.873  52.318 -51.970  1.00  0.00     0.096 A 
HETATM   29  C   UNL     1     -39.285  51.270 -52.643  1.00  0.00     0.019 A 
HETATM   30  C   UNL     1     -39.837  51.247 -53.937  1.00  0.00     0.019 A 
HETATM   31  C   UNL     1     -40.742  52.283 -54.013  1.00  0.00     0.096 A 
ENDBRANCH  23  27
ENDBRANCH  17  20
ENDBRANCH   1  16
BRANCH   6  32
HETATM   32  O   UNL     1     -48.429  64.781 -51.002  1.00  0.00    -0.346 OA
HETATM   33  H   UNL     1     -48.325  65.043 -51.932  1.00  0.00     0.219 HD
ENDBRANCH   6  32
TORSDOF 4
ENDMDL
MODEL 5
REMARK VINA RESULT:      -8.5      5.801      9.987
REMARK  4 active torsions:
REMARK  status: ('A' for Active; 'I' for Inactive)
REMARK    1  A    between atoms: C_3  and  N_4 
REMARK    2  A    between atoms: C_11  and  C_12 
REMARK       I    between atoms: C_12  and  N_13 
REMARK    3  A    between atoms: N_13  and  C_14 
REMARK    4  A    between atoms: C_19  and  O_20 
ROOT
HETATM    1  C   UNL     1     -41.484  55.478 -55.397  1.00  0.00     0.036 A 
HETATM    2  C   UNL     1     -41.994  55.531 -54.101  1.00  0.00     0.049 A 
HETATM    3  C   UNL     1     -41.682  54.533 -53.152  1.00  0.00     0.063 A 
HETATM    4  C   UNL     1     -40.834  53.466 -53.496  1.00  0.00     0.075 A 
HETATM    5  N   UNL     1     -40.446  52.389 -52.677  1.00  0.00    -0.226 NA
HETATM    6  C   UNL     1     -40.157  52.584 -51.436  1.00  0.00     0.161 C 
HETATM    7  C   UNL     1     -40.219  53.892 -50.673  1.00  0.00     0.164 C 
HETATM    8  N   UNL     1     -41.613  54.322 -50.697  1.00  0.00    -0.336 N 
HETATM    9  C   UNL     1     -42.328  54.675 -51.821  1.00  0.00     0.257 C 
HETATM   10  O   UNL     1     -43.467  55.131 -51.755  1.00  0.00    -0.267 OA
HETATM   11  C   UNL     1     -39.883  53.797 -49.181  1.00  0.00     0.035 C 
HETATM   12  C   UNL     1     -40.860  54.771 -48.532  1.00  0.00     0.022 C 
HETATM   13  C   UNL     1     -42.118  54.587 -49.364  1.00  0.00     0.127 C 
HETATM   14  C   UNL     1     -40.350  53.415 -54.810  1.00  0.00     0.035 A 
HETATM   15  C   UNL     1     -40.670  54.400 -55.750  1.00  0.00     0.032 A 
ENDROOT
BRANCH   1  16
HETATM   16  N   UNL     1     -41.748  56.438 -56.397  1.00  0.00    -0.323 N 
HETATM   17  C   UNL     1     -42.629  56.319 -57.458  1.00  0.00     0.256 C 
HETATM   18  O   UNL     1     -43.355  55.360 -57.694  1.00  0.00    -0.267 OA
HETATM   19  H   UNL     1     -41.213  57.291 -56.330  1.00  0.00     0.169 HD
BRANCH  17  20
HETATM   20  C   UNL     1     -42.675  57.482 -58.395  1.00  0.00     0.033 A 
HETATM   21  C   UNL     1     -43.239  57.406 -59.668  1.00  0.00     0.019 A 
HETATM   22  C   UNL     1     -43.274  58.542 -60.486  1.00  0.00     0.031 A 
HETATM   23  C   UNL     1     -42.733  59.770 -60.054  1.00  0.00     0.044 A 
HETATM   24  C   UNL     1     -42.088  59.835 -58.801  1.00  0.00    -0.034 A 
HETATM   25  C   UNL     1     -41.333  61.028 -58.276  1.00  0.00     0.050 C 
HETATM   26  C   UNL     1     -42.092  58.687 -57.980  1.00  0.00     0.026 A 
BRANCH  23  27
HETATM   27  N   UNL     1     -42.879  60.900 -60.920  1.00  0.00    -0.332 N 
HETATM   28  C   UNL     1     -42.045  61.225 -61.978  1.00  0.00     0.096 A 
HETATM   29  C   UNL     1     -42.515  62.362 -62.599  1.00  0.00     0.019 A 
HETATM   30  C   UNL     1     -43.693  62.742 -61.930  1.00  0.00     0.019 A 
HETATM   31  C   UNL     1     -43.902  61.828 -60.921  1.00  0.00     0.096 A 
ENDBRANCH  23  27
ENDBRANCH  17  20
ENDBRANCH   1  16
BRANCH   6  32
HETATM   32  O   UNL     1     -39.737  51.509 -50.758  1.00  0.00    -0.346 OA
HETATM   33  H   UNL     1     -38.887  51.242 -51.145  1.00  0.00     0.219 HD
ENDBRANCH   6  32
TORSDOF 4
ENDMDL
MODEL 6
REMARK VINA RESULT:      -8.4      5.758      6.852
REMARK  4 active torsions:
REMARK  status: ('A' for Active; 'I' for Inactive)
REMARK    1  A    between atoms: C_3  and  N_4 
REMARK    2  A    between atoms: C_11  and  C_12 
REMARK       I    between atoms: C_12  and  N_13 
REMARK    3  A    between atoms: N_13  and  C_14 
REMARK    4  A    between atoms: C_19  and  O_20 
ROOT
HETATM    1  C   UNL     1     -42.872  57.736 -56.886  1.00  0.00     0.036 A 
HETATM    2  C   UNL     1     -42.304  58.191 -58.075  1.00  0.00     0.049 A 
HETATM    3  C   UNL     1     -42.827  59.316 -58.750  1.00  0.00     0.063 A 
HETATM    4  C   UNL     1     -43.930  60.011 -58.225  1.00  0.00     0.075 A 
HETATM    5  N   UNL     1     -44.577  61.128 -58.784  1.00  0.00    -0.226 NA
HETATM    6  C   UNL     1     -43.891  62.072 -59.333  1.00  0.00     0.161 C 
HETATM    7  C   UNL     1     -42.387  62.131 -59.508  1.00  0.00     0.164 C 
HETATM    8  N   UNL     1     -42.023  61.002 -60.358  1.00  0.00    -0.336 N 
HETATM    9  C   UNL     1     -42.165  59.671 -60.033  1.00  0.00     0.257 C 
HETATM   10  O   UNL     1     -41.737  58.772 -60.753  1.00  0.00    -0.267 OA
HETATM   11  C   UNL     1     -41.863  63.355 -60.269  1.00  0.00     0.035 C 
HETATM   12  C   UNL     1     -40.723  62.792 -61.110  1.00  0.00     0.022 C 
HETATM   13  C   UNL     1     -41.246  61.422 -61.508  1.00  0.00     0.127 C 
HETATM   14  C   UNL     1     -44.503  59.525 -57.042  1.00  0.00     0.035 A 
HETATM   15  C   UNL     1     -43.989  58.404 -56.382  1.00  0.00     0.032 A 
ENDROOT
BRANCH   1  16
HETATM   16  N   UNL     1     -42.405  56.624 -56.154  1.00  0.00    -0.323 N 
HETATM   17  C   UNL     1     -41.699  56.643 -54.963  1.00  0.00     0.256 C 
HETATM   18  O   UNL     1     -41.381  57.640 -54.325  1.00  0.00    -0.267 OA
HETATM   19  H   UNL     1     -42.596  55.723 -56.567  1.00  0.00     0.169 HD
BRANCH  17  20
HETATM   20  C   UNL     1     -41.291  55.308 -54.430  1.00  0.00     0.033 A 
HETATM   21  C   UNL     1     -40.613  54.362 -55.198  1.00  0.00     0.019 A 
HETATM   22  C   UNL     1     -40.237  53.140 -54.628  1.00  0.00     0.031 A 
HETATM   23  C   UNL     1     -40.542  52.834 -53.287  1.00  0.00     0.044 A 
HETATM   24  C   UNL     1     -41.298  53.751 -52.527  1.00  0.00    -0.034 A 
HETATM   25  C   UNL     1     -41.829  53.497 -51.141  1.00  0.00     0.050 C 
HETATM   26  C   UNL     1     -41.641  54.990 -53.111  1.00  0.00     0.026 A 
BRANCH  23  27
HETATM   27  N   UNL     1     -40.052  51.596 -52.761  1.00  0.00    -0.332 N 
HETATM   28  C   UNL     1     -39.615  51.382 -51.463  1.00  0.00     0.096 A 
HETATM   29  C   UNL     1     -39.246  50.063 -51.317  1.00  0.00     0.019 A 
HETATM   30  C   UNL     1     -39.486  49.425 -52.548  1.00  0.00     0.019 A 
HETATM   31  C   UNL     1     -39.991  50.376 -53.407  1.00  0.00     0.096 A 
ENDBRANCH  23  27
ENDBRANCH  17  20
ENDBRANCH   1  16
BRANCH   6  32
HETATM   32  O   UNL     1     -44.592  63.122 -59.778  1.00  0.00    -0.346 OA
HETATM   33  H   UNL     1     -45.377  63.201 -59.209  1.00  0.00     0.219 HD
ENDBRANCH   6  32
TORSDOF 4
ENDMDL
MODEL 7
REMARK VINA RESULT:      -8.4      1.742      2.885
REMARK  4 active torsions:
REMARK  status: ('A' for Active; 'I' for Inactive)
REMARK    1  A    between atoms: C_3  and  N_4 
REMARK    2  A    between atoms: C_11  and  C_12 
REMARK       I    between atoms: C_12  and  N_13 
REMARK    3  A    between atoms: N_13  and  C_14 
REMARK    4  A    between atoms: C_19  and  O_20 
ROOT
HETATM    1  C   UNL     1     -42.639  58.781 -51.299  1.00  0.00     0.036 A 
HETATM    2  C   UNL     1     -43.951  59.227 -51.451  1.00  0.00     0.049 A 
HETATM    3  C   UNL     1     -44.332  60.527 -51.052  1.00  0.00     0.063 A 
HETATM    4  C   UNL     1     -43.384  61.407 -50.501  1.00  0.00     0.075 A 
HETATM    5  N   UNL     1     -43.606  62.717 -50.038  1.00  0.00    -0.226 NA
HETATM    6  C   UNL     1     -44.381  63.516 -50.689  1.00  0.00     0.161 C 
HETATM    7  C   UNL     1     -45.170  63.209 -51.946  1.00  0.00     0.164 C 
HETATM    8  N   UNL     1     -46.107  62.146 -51.599  1.00  0.00    -0.336 N 
HETATM    9  C   UNL     1     -45.769  60.865 -51.219  1.00  0.00     0.257 C 
HETATM   10  O   UNL     1     -46.613  59.989 -51.046  1.00  0.00    -0.267 OA
HETATM   11  C   UNL     1     -46.065  64.345 -52.452  1.00  0.00     0.035 C 
HETATM   12  C   UNL     1     -47.314  63.624 -52.948  1.00  0.00     0.022 C 
HETATM   13  C   UNL     1     -47.472  62.499 -51.938  1.00  0.00     0.127 C 
HETATM   14  C   UNL     1     -42.075  60.934 -50.333  1.00  0.00     0.035 A 
HETATM   15  C   UNL     1     -41.705  59.641 -50.720  1.00  0.00     0.032 A 
ENDROOT
BRANCH   1  16
HETATM   16  N   UNL     1     -42.184  57.499 -51.676  1.00  0.00    -0.323 N 
HETATM   17  C   UNL     1     -41.394  57.180 -52.768  1.00  0.00     0.256 C 
HETATM   18  O   UNL     1     -40.932  57.969 -53.584  1.00  0.00    -0.267 OA
HETATM   19  H   UNL     1     -42.493  56.740 -51.087  1.00  0.00     0.169 HD
BRANCH  17  20
HETATM   20  C   UNL     1     -41.099  55.727 -52.951  1.00  0.00     0.033 A 
HETATM   21  C   UNL     1     -40.973  55.133 -54.205  1.00  0.00     0.019 A 
HETATM   22  C   UNL     1     -40.668  53.770 -54.305  1.00  0.00     0.031 A 
HETATM   23  C   UNL     1     -40.498  52.972 -53.156  1.00  0.00     0.044 A 
HETATM   24  C   UNL     1     -40.704  53.547 -51.883  1.00  0.00    -0.034 A 
HETATM   25  C   UNL     1     -40.711  52.790 -50.581  1.00  0.00     0.050 C 
HETATM   26  C   UNL     1     -40.980  54.929 -51.804  1.00  0.00     0.026 A 
BRANCH  23  27
HETATM   27  N   UNL     1     -40.112  51.607 -53.346  1.00  0.00    -0.332 N 
HETATM   28  C   UNL     1     -40.233  50.886 -54.523  1.00  0.00     0.096 A 
HETATM   29  C   UNL     1     -39.731  49.617 -54.336  1.00  0.00     0.019 A 
HETATM   30  C   UNL     1     -39.255  49.550 -53.013  1.00  0.00     0.019 A 
HETATM   31  C   UNL     1     -39.484  50.779 -52.436  1.00  0.00     0.096 A 
ENDBRANCH  23  27
ENDBRANCH  17  20
ENDBRANCH   1  16
BRANCH   6  32
HETATM   32  O   UNL     1     -44.478  64.760 -50.204  1.00  0.00    -0.346 OA
HETATM   33  H   UNL     1     -44.890  64.691 -49.326  1.00  0.00     0.219 HD
ENDBRANCH   6  32
TORSDOF 4
ENDMDL
MODEL 8
REMARK VINA RESULT:      -8.3      2.012      2.259
REMARK  4 active torsions:
REMARK  status: ('A' for Active; 'I' for Inactive)
REMARK    1  A    between atoms: C_3  and  N_4 
REMARK    2  A    between atoms: C_11  and  C_12 
REMARK       I    between atoms: C_12  and  N_13 
REMARK    3  A    between atoms: N_13  and  C_14 
REMARK    4  A    between atoms: C_19  and  O_20 
ROOT
HETATM    1  C   UNL     1     -44.448  58.256 -52.210  1.00  0.00     0.036 A 
HETATM    2  C   UNL     1     -44.615  59.198 -53.224  1.00  0.00     0.049 A 
HETATM    3  C   UNL     1     -45.410  60.348 -53.029  1.00  0.00     0.063 A 
HETATM    4  C   UNL     1     -46.044  60.573 -51.794  1.00  0.00     0.075 A 
HETATM    5  N   UNL     1     -46.881  61.651 -51.450  1.00  0.00    -0.226 NA
HETATM    6  C   UNL     1     -46.594  62.847 -51.837  1.00  0.00     0.161 C 
HETATM    7  C   UNL     1     -45.428  63.279 -52.702  1.00  0.00     0.164 C 
HETATM    8  N   UNL     1     -45.595  62.611 -53.988  1.00  0.00    -0.336 N 
HETATM    9  C   UNL     1     -45.550  61.250 -54.201  1.00  0.00     0.257 C 
HETATM   10  O   UNL     1     -45.591  60.763 -55.329  1.00  0.00    -0.267 OA
HETATM   11  C   UNL     1     -45.390  64.769 -53.058  1.00  0.00     0.035 C 
HETATM   12  C   UNL     1     -44.897  64.781 -54.500  1.00  0.00     0.022 C 
HETATM   13  C   UNL     1     -45.565  63.551 -55.092  1.00  0.00     0.127 C 
HETATM   14  C   UNL     1     -45.885  59.604 -50.794  1.00  0.00     0.035 A 
HETATM   15  C   UNL     1     -45.105  58.461 -50.995  1.00  0.00     0.032 A 
ENDROOT
BRANCH   1  16
HETATM   16  N   UNL     1     -43.668  57.086 -52.329  1.00  0.00    -0.323 N 
HETATM   17  C   UNL     1     -42.407  56.865 -51.803  1.00  0.00     0.256 C 
HETATM   18  O   UNL     1     -41.760  57.648 -51.117  1.00  0.00    -0.267 OA
HETATM   19  H   UNL     1     -44.080  56.345 -52.877  1.00  0.00     0.169 HD
BRANCH  17  20
HETATM   20  C   UNL     1     -41.794  55.541 -52.124  1.00  0.00     0.033 A 
HETATM   21  C   UNL     1     -41.686  54.511 -51.191  1.00  0.00     0.019 A 
HETATM   22  C   UNL     1     -41.125  53.284 -51.566  1.00  0.00     0.031 A 
HETATM   23  C   UNL     1     -40.649  53.067 -52.874  1.00  0.00     0.044 A 
HETATM   24  C   UNL     1     -40.681  54.130 -53.802  1.00  0.00    -0.034 A 
HETATM   25  C   UNL     1     -40.070  54.096 -55.179  1.00  0.00     0.050 C 
HETATM   26  C   UNL     1     -41.278  55.348 -53.413  1.00  0.00     0.026 A 
BRANCH  23  27
HETATM   27  N   UNL     1     -40.163  51.760 -53.196  1.00  0.00    -0.332 N 
HETATM   28  C   UNL     1     -39.572  50.874 -52.310  1.00  0.00     0.096 A 
HETATM   29  C   UNL     1     -39.259  49.706 -52.971  1.00  0.00     0.019 A 
HETATM   30  C   UNL     1     -39.693  49.854 -54.301  1.00  0.00     0.019 A 
HETATM   31  C   UNL     1     -40.254  51.107 -54.410  1.00  0.00     0.096 A 
ENDBRANCH  23  27
ENDBRANCH  17  20
ENDBRANCH   1  16
BRANCH   6  32
HETATM   32  O   UNL     1     -47.415  63.813 -51.405  1.00  0.00    -0.346 OA
HETATM   33  H   UNL     1     -48.104  63.925 -52.083  1.00  0.00     0.219 HD
ENDBRANCH   6  32
TORSDOF 4
ENDMDL
MODEL 9
REMARK VINA RESULT:      -8.1      5.923     10.097
REMARK  4 active torsions:
REMARK  status: ('A' for Active; 'I' for Inactive)
REMARK    1  A    between atoms: C_3  and  N_4 
REMARK    2  A    between atoms: C_11  and  C_12 
REMARK       I    between atoms: C_12  and  N_13 
REMARK    3  A    between atoms: N_13  and  C_14 
REMARK    4  A    between atoms: C_19  and  O_20 
ROOT
HETATM    1  C   UNL     1     -42.917  55.215 -55.285  1.00  0.00     0.036 A 
HETATM    2  C   UNL     1     -43.139  55.065 -53.917  1.00  0.00     0.049 A 
HETATM    3  C   UNL     1     -42.325  54.217 -53.135  1.00  0.00     0.063 A 
HETATM    4  C   UNL     1     -41.260  53.513 -53.723  1.00  0.00     0.075 A 
HETATM    5  N   UNL     1     -40.378  52.619 -53.089  1.00  0.00    -0.226 NA
HETATM    6  C   UNL     1     -39.922  52.879 -51.911  1.00  0.00     0.161 C 
HETATM    7  C   UNL     1     -40.257  54.071 -51.038  1.00  0.00     0.164 C 
HETATM    8  N   UNL     1     -41.689  53.996 -50.764  1.00  0.00    -0.336 N 
HETATM    9  C   UNL     1     -42.694  54.103 -51.700  1.00  0.00     0.257 C 
HETATM   10  O   UNL     1     -43.881  54.139 -51.383  1.00  0.00    -0.267 OA
HETATM   11  C   UNL     1     -39.611  54.069 -49.648  1.00  0.00     0.035 C 
HETATM   12  C   UNL     1     -40.701  54.635 -48.746  1.00  0.00     0.022 C 
HETATM   13  C   UNL     1     -41.968  54.046 -49.342  1.00  0.00     0.127 C 
HETATM   14  C   UNL     1     -41.067  53.657 -55.103  1.00  0.00     0.035 A 
HETATM   15  C   UNL     1     -41.882  54.489 -55.877  1.00  0.00     0.032 A 
ENDROOT
BRANCH   1  16
HETATM   16  N   UNL     1     -43.685  56.044 -56.131  1.00  0.00    -0.323 N 
HETATM   17  C   UNL     1     -43.346  57.302 -56.601  1.00  0.00     0.256 C 
HETATM   18  O   UNL     1     -42.300  57.901 -56.380  1.00  0.00    -0.267 OA
HETATM   19  H   UNL     1     -44.586  55.675 -56.398  1.00  0.00     0.169 HD
BRANCH  17  20
HETATM   20  C   UNL     1     -44.375  57.974 -57.451  1.00  0.00     0.033 A 
HETATM   21  C   UNL     1     -44.658  59.336 -57.360  1.00  0.00     0.019 A 
HETATM   22  C   UNL     1     -45.616  59.909 -58.206  1.00  0.00     0.031 A 
HETATM   23  C   UNL     1     -46.319  59.130 -59.147  1.00  0.00     0.044 A 
HETATM   24  C   UNL     1     -46.097  57.737 -59.190  1.00  0.00    -0.034 A 
HETATM   25  C   UNL     1     -46.880  56.761 -60.028  1.00  0.00     0.050 C 
HETATM   26  C   UNL     1     -45.105  57.186 -58.350  1.00  0.00     0.026 A 
BRANCH  23  27
HETATM   27  N   UNL     1     -47.224  59.808 -60.025  1.00  0.00    -0.332 N 
HETATM   28  C   UNL     1     -48.497  60.245 -59.698  1.00  0.00     0.096 A 
HETATM   29  C   UNL     1     -49.058  60.877 -60.786  1.00  0.00     0.019 A 
HETATM   30  C   UNL     1     -48.097  60.862 -61.814  1.00  0.00     0.019 A 
HETATM   31  C   UNL     1     -46.984  60.218 -61.321  1.00  0.00     0.096 A 
ENDBRANCH  23  27
ENDBRANCH  17  20
ENDBRANCH   1  16
BRANCH   6  32
HETATM   32  O   UNL     1     -39.039  52.000 -51.420  1.00  0.00    -0.346 OA
HETATM   33  H   UNL     1     -38.278  51.992 -52.025  1.00  0.00     0.219 HD
ENDBRANCH   6  32
TORSDOF 4
ENDMDL
MODEL 10
REMARK VINA RESULT:      -7.5      6.839      8.178
REMARK  4 active torsions:
REMARK  status: ('A' for Active; 'I' for Inactive)
REMARK    1  A    between atoms: C_3  and  N_4 
REMARK    2  A    between atoms: C_11  and  C_12 
REMARK       I    between atoms: C_12  and  N_13 
REMARK    3  A    between atoms: N_13  and  C_14 
REMARK    4  A    between atoms: C_19  and  O_20 
ROOT
HETATM    1  C   UNL     1     -43.962  57.918 -57.496  1.00  0.00     0.036 A 
HETATM    2  C   UNL     1     -43.162  58.420 -58.522  1.00  0.00     0.049 A 
HETATM    3  C   UNL     1     -43.732  58.981 -59.685  1.00  0.00     0.063 A 
HETATM    4  C   UNL     1     -45.129  59.057 -59.826  1.00  0.00     0.075 A 
HETATM    5  N   UNL     1     -45.847  59.564 -60.924  1.00  0.00    -0.226 NA
HETATM    6  C   UNL     1     -45.449  60.633 -61.526  1.00  0.00     0.161 C 
HETATM    7  C   UNL     1     -44.211  61.451 -61.222  1.00  0.00     0.164 C 
HETATM    8  N   UNL     1     -43.067  60.573 -61.445  1.00  0.00    -0.336 N 
HETATM    9  C   UNL     1     -42.774  59.434 -60.727  1.00  0.00     0.257 C 
HETATM   10  O   UNL     1     -41.734  58.802 -60.899  1.00  0.00    -0.267 OA
HETATM   11  C   UNL     1     -43.960  62.636 -62.162  1.00  0.00     0.035 C 
HETATM   12  C   UNL     1     -42.445  62.642 -62.334  1.00  0.00     0.022 C 
HETATM   13  C   UNL     1     -42.106  61.161 -62.357  1.00  0.00     0.127 C 
HETATM   14  C   UNL     1     -45.918  58.526 -58.796  1.00  0.00     0.035 A 
HETATM   15  C   UNL     1     -45.349  57.961 -57.651  1.00  0.00     0.032 A 
ENDROOT
BRANCH   1  16
HETATM   16  N   UNL     1     -43.466  57.346 -56.305  1.00  0.00    -0.323 N 
HETATM   17  C   UNL     1     -42.970  56.064 -56.136  1.00  0.00     0.256 C 
HETATM   18  O   UNL     1     -42.854  55.211 -57.008  1.00  0.00    -0.267 OA
HETATM   19  H   UNL     1     -43.501  57.943 -55.491  1.00  0.00     0.169 HD
BRANCH  17  20
HETATM   20  C   UNL     1     -42.552  55.710 -54.747  1.00  0.00     0.033 A 
HETATM   21  C   UNL     1     -42.764  54.450 -54.191  1.00  0.00     0.019 A 
HETATM   22  C   UNL     1     -42.322  54.176 -52.891  1.00  0.00     0.031 A 
HETATM   23  C   UNL     1     -41.673  55.159 -52.117  1.00  0.00     0.044 A 
HETATM   24  C   UNL     1     -41.526  56.461 -52.641  1.00  0.00    -0.034 A 
HETATM   25  C   UNL     1     -40.997  57.647 -51.879  1.00  0.00     0.050 C 
HETATM   26  C   UNL     1     -41.951  56.707 -53.965  1.00  0.00     0.026 A 
BRANCH  23  27
HETATM   27  N   UNL     1     -41.183  54.773 -50.828  1.00  0.00    -0.332 N 
HETATM   28  C   UNL     1     -40.015  54.070 -50.581  1.00  0.00     0.096 A 
HETATM   29  C   UNL     1     -39.857  53.907 -49.222  1.00  0.00     0.019 A 
HETATM   30  C   UNL     1     -40.943  54.552 -48.599  1.00  0.00     0.019 A 
HETATM   31  C   UNL     1     -41.728  55.084 -49.598  1.00  0.00     0.096 A 
ENDBRANCH  23  27
ENDBRANCH  17  20
ENDBRANCH   1  16
BRANCH   6  32
HETATM   32  O   UNL     1     -46.235  61.072 -62.518  1.00  0.00    -0.346 OA
HETATM   33  H   UNL     1     -46.867  61.697 -62.124  1.00  0.00     0.219 HD
ENDBRANCH   6  32
TORSDOF 4
ENDMDL
