MODEL 1
REMARK VINA RESULT:      -7.9      0.000      0.000
REMARK  5 active torsions:
REMARK  status: ('A' for Active; 'I' for Inactive)
REMARK    1  A    between atoms: C_4  and  C_5 
REMARK    2  A    between atoms: C_5  and  N_6 
REMARK       I    between atoms: N_6  and  C_7 
REMARK    3  A    between atoms: C_7  and  C_8 
REMARK    4  A    between atoms: C_11  and  N_12 
REMARK       I    between atoms: N_12  and  C_13 
REMARK       I    between atoms: C_13  and  N_14 
REMARK    5  A    between atoms: N_14  and  C_15 
ROOT
HETATM    1  C   UNL     1     -42.641  54.944 -53.834  1.00  0.00     0.032 A 
HETATM    2  C   UNL     1     -43.384  56.128 -53.819  1.00  0.00     0.019 A 
HETATM    3  C   UNL     1     -43.801  56.712 -55.023  1.00  0.00     0.030 A 
HETATM    4  C   UNL     1     -43.475  56.127 -56.249  1.00  0.00     0.036 A 
HETATM    5  C   UNL     1     -42.773  54.916 -56.256  1.00  0.00     0.030 A 
HETATM    6  C   UNL     1     -42.361  54.327 -55.058  1.00  0.00     0.019 A 
ENDROOT
BRANCH   4   7
HETATM    7  N   UNL     1     -43.810  56.681 -57.502  1.00  0.00    -0.309 N 
HETATM    8  C   UNL     1     -43.195  57.718 -58.150  1.00  0.00     0.325 C 
HETATM    9  N   UNL     1     -43.729  58.088 -59.357  1.00  0.00    -0.306 N 
HETATM   10  O   UNL     1     -42.175  58.293 -57.776  1.00  0.00    -0.247 OA
HETATM   11  H   UNL     1     -43.117  58.705 -59.877  1.00  0.00     0.171 HD
HETATM   12  H   UNL     1     -44.406  56.112 -58.083  1.00  0.00     0.170 HD
BRANCH   9  13
HETATM   13  C   UNL     1     -44.965  57.826 -59.911  1.00  0.00     0.072 A 
HETATM   14  C   UNL     1     -46.143  58.594 -60.047  1.00  0.00     0.169 A 
HETATM   15  N   UNL     1     -47.127  57.921 -60.651  1.00  0.00    -0.185 NA
HETATM   16  N   UNL     1     -46.566  56.738 -60.947  1.00  0.00    -0.287 N 
HETATM   17  H   UNL     1     -47.129  56.045 -61.431  1.00  0.00     0.188 HD
HETATM   18  C   UNL     1     -45.267  56.639 -60.539  1.00  0.00     0.140 A 
ENDBRANCH   9  13
ENDBRANCH   4   7
BRANCH   1  19
HETATM   19  C   UNL     1     -42.113  54.309 -52.595  1.00  0.00     0.251 C 
HETATM   20  N   UNL     1     -40.747  54.176 -52.508  1.00  0.00    -0.353 N 
HETATM   21  H   UNL     1     -40.144  54.503 -53.249  1.00  0.00     0.163 HD
HETATM   22  O   UNL     1     -42.887  53.884 -51.745  1.00  0.00    -0.268 OA
BRANCH  20  23
HETATM   23  C   UNL     1     -40.146  53.454 -51.409  1.00  0.00     0.161 C 
BRANCH  23  24
HETATM   24  C   UNL     1     -39.910  52.002 -51.741  1.00  0.00    -0.041 A 
HETATM   25  C   UNL     1     -39.890  51.038 -50.722  1.00  0.00     0.009 A 
HETATM   26  C   UNL     1     -39.711  49.687 -51.024  1.00  0.00     0.001 A 
HETATM   27  C   UNL     1     -39.551  49.282 -52.348  1.00  0.00     0.000 A 
HETATM   28  C   UNL     1     -39.580  50.226 -53.372  1.00  0.00     0.001 A 
HETATM   29  C   UNL     1     -39.769  51.577 -53.071  1.00  0.00     0.009 A 
ENDBRANCH  23  24
ENDBRANCH  20  23
ENDBRANCH   1  19
TORSDOF 5
ENDMDL
MODEL 2
REMARK VINA RESULT:      -7.8     14.987     16.302
REMARK  5 active torsions:
REMARK  status: ('A' for Active; 'I' for Inactive)
REMARK    1  A    between atoms: C_4  and  C_5 
REMARK    2  A    between atoms: C_5  and  N_6 
REMARK       I    between atoms: N_6  and  C_7 
REMARK    3  A    between atoms: C_7  and  C_8 
REMARK    4  A    between atoms: C_11  and  N_12 
REMARK       I    between atoms: N_12  and  C_13 
REMARK       I    between atoms: C_13  and  N_14 
REMARK    5  A    between atoms: N_14  and  C_15 
ROOT
HETATM    1  C   UNL     1     -36.248  41.786 -54.862  1.00  0.00     0.032 A 
HETATM    2  C   UNL     1     -35.304  42.157 -55.824  1.00  0.00     0.019 A 
HETATM    3  C   UNL     1     -35.486  41.793 -57.165  1.00  0.00     0.030 A 
HETATM    4  C   UNL     1     -36.604  41.052 -57.557  1.00  0.00     0.036 A 
HETATM    5  C   UNL     1     -37.570  40.726 -56.597  1.00  0.00     0.030 A 
HETATM    6  C   UNL     1     -37.396  41.092 -55.260  1.00  0.00     0.019 A 
ENDROOT
BRANCH   4   7
HETATM    7  N   UNL     1     -36.831  40.602 -58.874  1.00  0.00    -0.309 N 
HETATM    8  C   UNL     1     -37.227  41.342 -59.955  1.00  0.00     0.325 C 
HETATM    9  N   UNL     1     -37.402  40.661 -61.131  1.00  0.00    -0.306 N 
HETATM   10  O   UNL     1     -37.372  42.563 -59.974  1.00  0.00    -0.247 OA
HETATM   11  H   UNL     1     -37.487  41.281 -61.928  1.00  0.00     0.171 HD
HETATM   12  H   UNL     1     -36.438  39.701 -59.098  1.00  0.00     0.170 HD
BRANCH   9  13
HETATM   13  C   UNL     1     -37.561  39.312 -61.374  1.00  0.00     0.072 A 
HETATM   14  C   UNL     1     -38.638  38.419 -61.180  1.00  0.00     0.169 A 
HETATM   15  N   UNL     1     -38.341  37.170 -61.552  1.00  0.00    -0.185 NA
HETATM   16  N   UNL     1     -37.091  37.271 -62.031  1.00  0.00    -0.287 N 
HETATM   17  H   UNL     1     -36.643  36.435 -62.392  1.00  0.00     0.188 HD
HETATM   18  C   UNL     1     -36.588  38.538 -61.962  1.00  0.00     0.140 A 
ENDBRANCH   9  13
ENDBRANCH   4   7
BRANCH   1  19
HETATM   19  C   UNL     1     -36.081  42.084 -53.413  1.00  0.00     0.251 C 
HETATM   20  N   UNL     1     -34.795  42.048 -52.923  1.00  0.00    -0.353 N 
HETATM   21  H   UNL     1     -34.014  41.836 -53.527  1.00  0.00     0.163 HD
HETATM   22  O   UNL     1     -37.064  42.288 -52.710  1.00  0.00    -0.268 OA
BRANCH  20  23
HETATM   23  C   UNL     1     -34.543  42.190 -51.507  1.00  0.00     0.161 C 
BRANCH  23  24
HETATM   24  C   UNL     1     -33.775  41.021 -50.943  1.00  0.00    -0.041 A 
HETATM   25  C   UNL     1     -34.401  40.121 -50.068  1.00  0.00     0.009 A 
HETATM   26  C   UNL     1     -33.709  39.014 -49.572  1.00  0.00     0.001 A 
HETATM   27  C   UNL     1     -32.384  38.793 -49.945  1.00  0.00     0.000 A 
HETATM   28  C   UNL     1     -31.754  39.672 -50.823  1.00  0.00     0.001 A 
HETATM   29  C   UNL     1     -32.448  40.774 -51.327  1.00  0.00     0.009 A 
ENDBRANCH  23  24
ENDBRANCH  20  23
ENDBRANCH   1  19
TORSDOF 5
ENDMDL
MODEL 3
REMARK VINA RESULT:      -7.7      4.724      5.394
REMARK  5 active torsions:
REMARK  status: ('A' for Active; 'I' for Inactive)
REMARK    1  A    between atoms: C_4  and  C_5 
REMARK    2  A    between atoms: C_5  and  N_6 
REMARK       I    between atoms: N_6  and  C_7 
REMARK    3  A    between atoms: C_7  and  C_8 
REMARK    4  A    between atoms: C_11  and  N_12 
REMARK       I    between atoms: N_12  and  C_13 
REMARK       I    between atoms: C_13  and  N_14 
REMARK    5  A    between atoms: N_14  and  C_15 
ROOT
HETATM    1  C   UNL     1     -41.600  56.040 -50.680  1.00  0.00     0.032 A 
HETATM    2  C   UNL     1     -40.960  57.218 -50.280  1.00  0.00     0.019 A 
HETATM    3  C   UNL     1     -41.313  58.443 -50.862  1.00  0.00     0.030 A 
HETATM    4  C   UNL     1     -42.299  58.504 -51.851  1.00  0.00     0.036 A 
HETATM    5  C   UNL     1     -42.970  57.330 -52.212  1.00  0.00     0.030 A 
HETATM    6  C   UNL     1     -42.626  56.107 -51.630  1.00  0.00     0.019 A 
ENDROOT
BRANCH   4   7
HETATM    7  N   UNL     1     -42.672  59.687 -52.521  1.00  0.00    -0.309 N 
HETATM    8  C   UNL     1     -42.057  60.269 -53.597  1.00  0.00     0.325 C 
HETATM    9  N   UNL     1     -42.604  61.439 -54.055  1.00  0.00    -0.306 N 
HETATM   10  O   UNL     1     -41.108  59.798 -54.222  1.00  0.00    -0.247 OA
HETATM   11  H   UNL     1     -42.244  61.704 -54.964  1.00  0.00     0.171 HD
HETATM   12  H   UNL     1     -43.611  60.009 -52.345  1.00  0.00     0.170 HD
BRANCH   9  13
HETATM   13  C   UNL     1     -43.474  62.323 -53.449  1.00  0.00     0.072 A 
HETATM   14  C   UNL     1     -43.281  63.444 -52.613  1.00  0.00     0.169 A 
HETATM   15  N   UNL     1     -44.432  64.009 -52.238  1.00  0.00    -0.185 NA
HETATM   16  N   UNL     1     -45.363  63.280 -52.874  1.00  0.00    -0.287 N 
HETATM   17  H   UNL     1     -46.339  63.532 -52.752  1.00  0.00     0.188 HD
HETATM   18  C   UNL     1     -44.837  62.270 -53.626  1.00  0.00     0.140 A 
ENDBRANCH   9  13
ENDBRANCH   4   7
BRANCH   1  19
HETATM   19  C   UNL     1     -41.226  54.701 -50.149  1.00  0.00     0.251 C 
HETATM   20  N   UNL     1     -40.357  53.958 -50.915  1.00  0.00    -0.353 N 
HETATM   21  H   UNL     1     -39.993  54.317 -51.785  1.00  0.00     0.163 HD
HETATM   22  O   UNL     1     -41.733  54.288 -49.112  1.00  0.00    -0.268 OA
BRANCH  20  23
HETATM   23  C   UNL     1     -40.039  52.594 -50.553  1.00  0.00     0.161 C 
BRANCH  23  24
HETATM   24  C   UNL     1     -39.904  51.700 -51.760  1.00  0.00    -0.041 A 
HETATM   25  C   UNL     1     -39.642  50.331 -51.600  1.00  0.00     0.009 A 
HETATM   26  C   UNL     1     -39.554  49.489 -52.710  1.00  0.00     0.001 A 
HETATM   27  C   UNL     1     -39.728  50.004 -53.994  1.00  0.00     0.000 A 
HETATM   28  C   UNL     1     -40.000  51.359 -54.168  1.00  0.00     0.001 A 
HETATM   29  C   UNL     1     -40.098  52.200 -53.057  1.00  0.00     0.009 A 
ENDBRANCH  23  24
ENDBRANCH  20  23
ENDBRANCH   1  19
TORSDOF 5
ENDMDL
MODEL 4
REMARK VINA RESULT:      -7.7      5.128      7.047
REMARK  5 active torsions:
REMARK  status: ('A' for Active; 'I' for Inactive)
REMARK    1  A    between atoms: C_4  and  C_5 
REMARK    2  A    between atoms: C_5  and  N_6 
REMARK       I    between atoms: N_6  and  C_7 
REMARK    3  A    between atoms: C_7  and  C_8 
REMARK    4  A    between atoms: C_11  and  N_12 
REMARK       I    between atoms: N_12  and  C_13 
REMARK       I    between atoms: C_13  and  N_14 
REMARK    5  A    between atoms: N_14  and  C_15 
ROOT
HETATM    1  C   UNL     1     -42.725  56.013 -52.789  1.00  0.00     0.032 A 
HETATM    2  C   UNL     1     -42.008  56.362 -51.640  1.00  0.00     0.019 A 
HETATM    3  C   UNL     1     -42.362  57.504 -50.910  1.00  0.00     0.030 A 
HETATM    4  C   UNL     1     -43.426  58.311 -51.320  1.00  0.00     0.036 A 
HETATM    5  C   UNL     1     -44.171  57.930 -52.443  1.00  0.00     0.030 A 
HETATM    6  C   UNL     1     -43.826  56.789 -53.171  1.00  0.00     0.019 A 
ENDROOT
BRANCH   4   7
HETATM    7  N   UNL     1     -43.809  59.503 -50.671  1.00  0.00    -0.309 N 
HETATM    8  C   UNL     1     -43.050  60.622 -50.459  1.00  0.00     0.325 C 
HETATM    9  N   UNL     1     -43.650  61.648 -49.777  1.00  0.00    -0.306 N 
HETATM   10  O   UNL     1     -41.911  60.807 -50.884  1.00  0.00    -0.247 OA
HETATM   11  H   UNL     1     -43.123  62.511 -49.836  1.00  0.00     0.171 HD
HETATM   12  H   UNL     1     -44.803  59.638 -50.561  1.00  0.00     0.170 HD
BRANCH   9  13
HETATM   13  C   UNL     1     -44.776  61.660 -48.980  1.00  0.00     0.072 A 
HETATM   14  C   UNL     1     -46.125  62.003 -49.223  1.00  0.00     0.169 A 
HETATM   15  N   UNL     1     -46.890  61.877 -48.135  1.00  0.00    -0.185 NA
HETATM   16  N   UNL     1     -46.043  61.405 -47.206  1.00  0.00    -0.287 N 
HETATM   17  H   UNL     1     -46.404  61.215 -46.276  1.00  0.00     0.188 HD
HETATM   18  C   UNL     1     -44.770  61.243 -47.669  1.00  0.00     0.140 A 
ENDBRANCH   9  13
ENDBRANCH   4   7
BRANCH   1  19
HETATM   19  C   UNL     1     -42.359  54.851 -53.645  1.00  0.00     0.251 C 
HETATM   20  N   UNL     1     -41.055  54.420 -53.569  1.00  0.00    -0.353 N 
HETATM   21  H   UNL     1     -40.393  54.871 -52.955  1.00  0.00     0.163 HD
HETATM   22  O   UNL     1     -43.186  54.368 -54.410  1.00  0.00    -0.268 OA
BRANCH  20  23
HETATM   23  C   UNL     1     -40.568  53.388 -54.457  1.00  0.00     0.161 C 
BRANCH  23  24
HETATM   24  C   UNL     1     -40.173  52.135 -53.715  1.00  0.00    -0.041 A 
HETATM   25  C   UNL     1     -39.892  52.186 -52.342  1.00  0.00     0.009 A 
HETATM   26  C   UNL     1     -39.564  51.025 -51.640  1.00  0.00     0.001 A 
HETATM   27  C   UNL     1     -39.514  49.799 -52.301  1.00  0.00     0.000 A 
HETATM   28  C   UNL     1     -39.802  49.731 -53.662  1.00  0.00     0.001 A 
HETATM   29  C   UNL     1     -40.140  50.891 -54.363  1.00  0.00     0.009 A 
ENDBRANCH  23  24
ENDBRANCH  20  23
ENDBRANCH   1  19
TORSDOF 5
ENDMDL
MODEL 5
REMARK VINA RESULT:      -7.6      1.522      2.056
REMARK  5 active torsions:
REMARK  status: ('A' for Active; 'I' for Inactive)
REMARK    1  A    between atoms: C_4  and  C_5 
REMARK    2  A    between atoms: C_5  and  N_6 
REMARK       I    between atoms: N_6  and  C_7 
REMARK    3  A    between atoms: C_7  and  C_8 
REMARK    4  A    between atoms: C_11  and  N_12 
REMARK       I    between atoms: N_12  and  C_13 
REMARK       I    between atoms: C_13  and  N_14 
REMARK    5  A    between atoms: N_14  and  C_15 
ROOT
HETATM    1  C   UNL     1     -42.586  55.119 -54.144  1.00  0.00     0.032 A 
HETATM    2  C   UNL     1     -43.567  56.115 -54.181  1.00  0.00     0.019 A 
HETATM    3  C   UNL     1     -43.864  56.764 -55.387  1.00  0.00     0.030 A 
HETATM    4  C   UNL     1     -43.183  56.432 -56.562  1.00  0.00     0.036 A 
HETATM    5  C   UNL     1     -42.237  55.401 -56.527  1.00  0.00     0.030 A 
HETATM    6  C   UNL     1     -41.942  54.746 -55.329  1.00  0.00     0.019 A 
ENDROOT
BRANCH   4   7
HETATM    7  N   UNL     1     -43.386  57.075 -57.800  1.00  0.00    -0.309 N 
HETATM    8  C   UNL     1     -43.812  56.515 -58.974  1.00  0.00     0.325 C 
HETATM    9  N   UNL     1     -43.908  57.355 -60.053  1.00  0.00    -0.306 N 
HETATM   10  O   UNL     1     -44.177  55.350 -59.123  1.00  0.00    -0.247 OA
HETATM   11  H   UNL     1     -44.420  56.939 -60.822  1.00  0.00     0.171 HD
HETATM   12  H   UNL     1     -43.452  58.080 -57.762  1.00  0.00     0.170 HD
BRANCH   9  13
HETATM   13  C   UNL     1     -43.357  58.601 -60.274  1.00  0.00     0.072 A 
HETATM   14  C   UNL     1     -43.858  59.914 -60.134  1.00  0.00     0.169 A 
HETATM   15  N   UNL     1     -42.963  60.843 -60.481  1.00  0.00    -0.185 NA
HETATM   16  N   UNL     1     -41.871  60.129 -60.796  1.00  0.00    -0.287 N 
HETATM   17  H   UNL     1     -41.035  60.627 -61.087  1.00  0.00     0.188 HD
HETATM   18  C   UNL     1     -42.052  58.782 -60.671  1.00  0.00     0.140 A 
ENDBRANCH   9  13
ENDBRANCH   4   7
BRANCH   1  19
HETATM   19  C   UNL     1     -42.179  54.438 -52.884  1.00  0.00     0.251 C 
HETATM   20  N   UNL     1     -40.826  54.297 -52.672  1.00  0.00    -0.353 N 
HETATM   21  H   UNL     1     -40.156  54.648 -53.341  1.00  0.00     0.163 HD
HETATM   22  O   UNL     1     -43.030  53.986 -52.127  1.00  0.00    -0.268 OA
BRANCH  20  23
HETATM   23  C   UNL     1     -40.333  53.534 -51.548  1.00  0.00     0.161 C 
BRANCH  23  24
HETATM   24  C   UNL     1     -40.020  52.106 -51.920  1.00  0.00    -0.041 A 
HETATM   25  C   UNL     1     -39.874  51.131 -50.921  1.00  0.00     0.009 A 
HETATM   26  C   UNL     1     -39.623  49.800 -51.259  1.00  0.00     0.001 A 
HETATM   27  C   UNL     1     -39.516  49.426 -52.597  1.00  0.00     0.000 A 
HETATM   28  C   UNL     1     -39.671  50.380 -53.600  1.00  0.00     0.001 A 
HETATM   29  C   UNL     1     -39.932  51.711 -53.264  1.00  0.00     0.009 A 
ENDBRANCH  23  24
ENDBRANCH  20  23
ENDBRANCH   1  19
TORSDOF 5
ENDMDL
MODEL 6
REMARK VINA RESULT:      -7.6      2.040      9.400
REMARK  5 active torsions:
REMARK  status: ('A' for Active; 'I' for Inactive)
REMARK    1  A    between atoms: C_4  and  C_5 
REMARK    2  A    between atoms: C_5  and  N_6 
REMARK       I    between atoms: N_6  and  C_7 
REMARK    3  A    between atoms: C_7  and  C_8 
REMARK    4  A    between atoms: C_11  and  N_12 
REMARK       I    between atoms: N_12  and  C_13 
REMARK       I    between atoms: C_13  and  N_14 
REMARK    5  A    between atoms: N_14  and  C_15 
ROOT
HETATM    1  C   UNL     1     -42.864  56.304 -55.228  1.00  0.00     0.032 A 
HETATM    2  C   UNL     1     -43.708  55.593 -54.369  1.00  0.00     0.019 A 
HETATM    3  C   UNL     1     -43.181  54.617 -53.514  1.00  0.00     0.030 A 
HETATM    4  C   UNL     1     -41.812  54.335 -53.511  1.00  0.00     0.036 A 
HETATM    5  C   UNL     1     -40.966  55.084 -54.338  1.00  0.00     0.030 A 
HETATM    6  C   UNL     1     -41.486  56.063 -55.188  1.00  0.00     0.019 A 
ENDROOT
BRANCH   4   7
HETATM    7  N   UNL     1     -41.214  53.332 -52.721  1.00  0.00    -0.309 N 
HETATM    8  C   UNL     1     -40.502  53.492 -51.563  1.00  0.00     0.325 C 
HETATM    9  N   UNL     1     -39.999  52.353 -50.992  1.00  0.00    -0.306 N 
HETATM   10  O   UNL     1     -40.336  54.553 -50.964  1.00  0.00    -0.247 OA
HETATM   11  H   UNL     1     -39.672  52.507 -50.046  1.00  0.00     0.171 HD
HETATM   12  H   UNL     1     -41.538  52.393 -52.893  1.00  0.00     0.170 HD
BRANCH   9  13
HETATM   13  C   UNL     1     -39.800  51.094 -51.521  1.00  0.00     0.072 A 
HETATM   14  C   UNL     1     -39.564  50.627 -52.833  1.00  0.00     0.169 A 
HETATM   15  N   UNL     1     -39.440  49.298 -52.890  1.00  0.00    -0.185 NA
HETATM   16  N   UNL     1     -39.546  48.916 -51.607  1.00  0.00    -0.287 N 
HETATM   17  H   UNL     1     -39.471  47.927 -51.391  1.00  0.00     0.188 HD
HETATM   18  C   UNL     1     -39.745  49.957 -50.748  1.00  0.00     0.140 A 
ENDBRANCH   9  13
ENDBRANCH   4   7
BRANCH   1  19
HETATM   19  C   UNL     1     -43.369  57.306 -56.206  1.00  0.00     0.251 C 
HETATM   20  N   UNL     1     -44.705  57.232 -56.525  1.00  0.00    -0.353 N 
HETATM   21  H   UNL     1     -45.303  56.535 -56.106  1.00  0.00     0.163 HD
HETATM   22  O   UNL     1     -42.595  58.102 -56.726  1.00  0.00    -0.268 OA
BRANCH  20  23
HETATM   23  C   UNL     1     -45.261  58.072 -57.563  1.00  0.00     0.161 C 
BRANCH  23  24
HETATM   24  C   UNL     1     -45.566  57.299 -58.821  1.00  0.00    -0.041 A 
HETATM   25  C   UNL     1     -44.541  56.629 -59.505  1.00  0.00     0.009 A 
HETATM   26  C   UNL     1     -44.821  55.878 -60.649  1.00  0.00     0.001 A 
HETATM   27  C   UNL     1     -46.129  55.788 -61.122  1.00  0.00     0.000 A 
HETATM   28  C   UNL     1     -47.159  56.438 -60.447  1.00  0.00     0.001 A 
HETATM   29  C   UNL     1     -46.882  57.180 -59.297  1.00  0.00     0.009 A 
ENDBRANCH  23  24
ENDBRANCH  20  23
ENDBRANCH   1  19
TORSDOF 5
ENDMDL
MODEL 7
REMARK VINA RESULT:      -7.5      1.695      2.344
REMARK  5 active torsions:
REMARK  status: ('A' for Active; 'I' for Inactive)
REMARK    1  A    between atoms: C_4  and  C_5 
REMARK    2  A    between atoms: C_5  and  N_6 
REMARK       I    between atoms: N_6  and  C_7 
REMARK    3  A    between atoms: C_7  and  C_8 
REMARK    4  A    between atoms: C_11  and  N_12 
REMARK       I    between atoms: N_12  and  C_13 
REMARK       I    between atoms: C_13  and  N_14 
REMARK    5  A    between atoms: N_14  and  C_15 
ROOT
HETATM    1  C   UNL     1     -42.342  55.334 -54.959  1.00  0.00     0.032 A 
HETATM    2  C   UNL     1     -42.874  54.600 -56.024  1.00  0.00     0.019 A 
HETATM    3  C   UNL     1     -43.225  55.246 -57.217  1.00  0.00     0.030 A 
HETATM    4  C   UNL     1     -43.056  56.626 -57.356  1.00  0.00     0.036 A 
HETATM    5  C   UNL     1     -42.478  57.347 -56.305  1.00  0.00     0.030 A 
HETATM    6  C   UNL     1     -42.121  56.706 -55.116  1.00  0.00     0.019 A 
ENDROOT
BRANCH   4   7
HETATM    7  N   UNL     1     -43.435  57.356 -58.502  1.00  0.00    -0.309 N 
HETATM    8  C   UNL     1     -43.050  57.139 -59.797  1.00  0.00     0.325 C 
HETATM    9  N   UNL     1     -43.542  58.009 -60.735  1.00  0.00    -0.306 N 
HETATM   10  O   UNL     1     -42.363  56.200 -60.194  1.00  0.00    -0.247 OA
HETATM   11  H   UNL     1     -43.397  57.679 -61.682  1.00  0.00     0.171 HD
HETATM   12  H   UNL     1     -44.248  57.943 -58.394  1.00  0.00     0.170 HD
BRANCH   9  13
HETATM   13  C   UNL     1     -44.105  59.261 -60.593  1.00  0.00     0.072 A 
HETATM   14  C   UNL     1     -43.556  60.549 -60.411  1.00  0.00     0.169 A 
HETATM   15  N   UNL     1     -44.492  61.495 -60.305  1.00  0.00    -0.185 NA
HETATM   16  N   UNL     1     -45.642  60.822 -60.468  1.00  0.00    -0.287 N 
HETATM   17  H   UNL     1     -46.514  61.341 -60.439  1.00  0.00     0.188 HD
HETATM   18  C   UNL     1     -45.460  59.483 -60.661  1.00  0.00     0.140 A 
ENDBRANCH   9  13
ENDBRANCH   4   7
BRANCH   1  19
HETATM   19  C   UNL     1     -42.011  54.719 -53.644  1.00  0.00     0.251 C 
HETATM   20  N   UNL     1     -40.691  54.388 -53.437  1.00  0.00    -0.353 N 
HETATM   21  H   UNL     1     -39.993  54.565 -54.144  1.00  0.00     0.163 HD
HETATM   22  O   UNL     1     -42.901  54.478 -52.837  1.00  0.00    -0.268 OA
BRANCH  20  23
HETATM   23  C   UNL     1     -40.291  53.665 -52.250  1.00  0.00     0.161 C 
BRANCH  23  24
HETATM   24  C   UNL     1     -40.066  52.199 -52.522  1.00  0.00    -0.041 A 
HETATM   25  C   UNL     1     -40.111  51.709 -53.836  1.00  0.00     0.009 A 
HETATM   26  C   UNL     1     -39.865  50.361 -54.101  1.00  0.00     0.001 A 
HETATM   27  C   UNL     1     -39.569  49.486 -53.057  1.00  0.00     0.000 A 
HETATM   28  C   UNL     1     -39.509  49.960 -51.749  1.00  0.00     0.001 A 
HETATM   29  C   UNL     1     -39.745  51.311 -51.484  1.00  0.00     0.009 A 
ENDBRANCH  23  24
ENDBRANCH  20  23
ENDBRANCH   1  19
TORSDOF 5
ENDMDL
MODEL 8
REMARK VINA RESULT:      -7.3      2.235      9.362
REMARK  5 active torsions:
REMARK  status: ('A' for Active; 'I' for Inactive)
REMARK    1  A    between atoms: C_4  and  C_5 
REMARK    2  A    between atoms: C_5  and  N_6 
REMARK       I    between atoms: N_6  and  C_7 
REMARK    3  A    between atoms: C_7  and  C_8 
REMARK    4  A    between atoms: C_11  and  N_12 
REMARK       I    between atoms: N_12  and  C_13 
REMARK       I    between atoms: C_13  and  N_14 
REMARK    5  A    between atoms: N_14  and  C_15 
ROOT
HETATM    1  C   UNL     1     -43.281  56.315 -55.082  1.00  0.00     0.032 A 
HETATM    2  C   UNL     1     -43.862  55.833 -53.905  1.00  0.00     0.019 A 
HETATM    3  C   UNL     1     -43.205  54.857 -53.145  1.00  0.00     0.030 A 
HETATM    4  C   UNL     1     -41.969  54.347 -53.554  1.00  0.00     0.036 A 
HETATM    5  C   UNL     1     -41.371  54.868 -54.707  1.00  0.00     0.030 A 
HETATM    6  C   UNL     1     -42.019  55.847 -55.464  1.00  0.00     0.019 A 
ENDROOT
BRANCH   4   7
HETATM    7  N   UNL     1     -41.272  53.327 -52.874  1.00  0.00    -0.309 N 
HETATM    8  C   UNL     1     -40.454  53.455 -51.785  1.00  0.00     0.325 C 
HETATM    9  N   UNL     1     -39.870  52.305 -51.320  1.00  0.00    -0.306 N 
HETATM   10  O   UNL     1     -40.256  54.492 -51.154  1.00  0.00    -0.247 OA
HETATM   11  H   UNL     1     -39.455  52.426 -50.404  1.00  0.00     0.171 HD
HETATM   12  H   UNL     1     -41.590  52.388 -53.058  1.00  0.00     0.170 HD
BRANCH   9  13
HETATM   13  C   UNL     1     -39.693  51.078 -51.926  1.00  0.00     0.072 A 
HETATM   14  C   UNL     1     -39.604  50.675 -53.277  1.00  0.00     0.169 A 
HETATM   15  N   UNL     1     -39.442  49.355 -53.408  1.00  0.00    -0.185 NA
HETATM   16  N   UNL     1     -39.378  48.917 -52.141  1.00  0.00    -0.287 N 
HETATM   17  H   UNL     1     -39.242  47.924 -51.980  1.00  0.00     0.188 HD
HETATM   18  C   UNL     1     -39.505  49.914 -51.218  1.00  0.00     0.140 A 
ENDBRANCH   9  13
ENDBRANCH   4   7
BRANCH   1  19
HETATM   19  C   UNL     1     -43.957  57.303 -55.967  1.00  0.00     0.251 C 
HETATM   20  N   UNL     1     -44.374  56.842 -57.195  1.00  0.00    -0.353 N 
HETATM   21  H   UNL     1     -44.231  55.880 -57.466  1.00  0.00     0.163 HD
HETATM   22  O   UNL     1     -44.064  58.472 -55.614  1.00  0.00    -0.268 OA
BRANCH  20  23
HETATM   23  C   UNL     1     -44.919  57.754 -58.177  1.00  0.00     0.161 C 
BRANCH  23  24
HETATM   24  C   UNL     1     -43.878  58.216 -59.166  1.00  0.00    -0.041 A 
HETATM   25  C   UNL     1     -43.986  59.479 -59.767  1.00  0.00     0.009 A 
HETATM   26  C   UNL     1     -43.007  59.930 -60.653  1.00  0.00     0.001 A 
HETATM   27  C   UNL     1     -41.907  59.127 -60.949  1.00  0.00     0.000 A 
HETATM   28  C   UNL     1     -41.780  57.876 -60.350  1.00  0.00     0.001 A 
HETATM   29  C   UNL     1     -42.754  57.427 -59.456  1.00  0.00     0.009 A 
ENDBRANCH  23  24
ENDBRANCH  20  23
ENDBRANCH   1  19
TORSDOF 5
ENDMDL
MODEL 9
REMARK VINA RESULT:      -7.2      5.063      6.189
REMARK  5 active torsions:
REMARK  status: ('A' for Active; 'I' for Inactive)
REMARK    1  A    between atoms: C_4  and  C_5 
REMARK    2  A    between atoms: C_5  and  N_6 
REMARK       I    between atoms: N_6  and  C_7 
REMARK    3  A    between atoms: C_7  and  C_8 
REMARK    4  A    between atoms: C_11  and  N_12 
REMARK       I    between atoms: N_12  and  C_13 
REMARK       I    between atoms: C_13  and  N_14 
REMARK    5  A    between atoms: N_14  and  C_15 
ROOT
HETATM    1  C   UNL     1     -41.724  56.088 -50.647  1.00  0.00     0.032 A 
HETATM    2  C   UNL     1     -43.082  55.932 -50.943  1.00  0.00     0.019 A 
HETATM    3  C   UNL     1     -43.862  57.049 -51.273  1.00  0.00     0.030 A 
HETATM    4  C   UNL     1     -43.299  58.327 -51.304  1.00  0.00     0.036 A 
HETATM    5  C   UNL     1     -41.929  58.470 -51.054  1.00  0.00     0.030 A 
HETATM    6  C   UNL     1     -41.146  57.359 -50.731  1.00  0.00     0.019 A 
ENDROOT
BRANCH   4   7
HETATM    7  N   UNL     1     -44.027  59.504 -51.574  1.00  0.00    -0.309 N 
HETATM    8  C   UNL     1     -44.038  60.236 -52.730  1.00  0.00     0.325 C 
HETATM    9  N   UNL     1     -44.818  61.363 -52.734  1.00  0.00    -0.306 N 
HETATM   10  O   UNL     1     -43.467  59.933 -53.776  1.00  0.00    -0.247 OA
HETATM   11  H   UNL     1     -44.950  61.738 -53.666  1.00  0.00     0.171 HD
HETATM   12  H   UNL     1     -44.792  59.695 -50.944  1.00  0.00     0.170 HD
BRANCH   9  13
HETATM   13  C   UNL     1     -45.358  62.086 -51.690  1.00  0.00     0.072 A 
HETATM   14  C   UNL     1     -46.637  62.105 -51.091  1.00  0.00     0.169 A 
HETATM   15  N   UNL     1     -46.723  62.991 -50.095  1.00  0.00    -0.185 NA
HETATM   16  N   UNL     1     -45.485  63.505 -50.021  1.00  0.00    -0.287 N 
HETATM   17  H   UNL     1     -45.296  64.209 -49.314  1.00  0.00     0.188 HD
HETATM   18  C   UNL     1     -44.627  62.982 -50.945  1.00  0.00     0.140 A 
ENDBRANCH   9  13
ENDBRANCH   4   7
BRANCH   1  19
HETATM   19  C   UNL     1     -40.857  54.953 -50.226  1.00  0.00     0.251 C 
HETATM   20  N   UNL     1     -40.470  54.077 -51.214  1.00  0.00    -0.353 N 
HETATM   21  H   UNL     1     -40.759  54.211 -52.171  1.00  0.00     0.163 HD
HETATM   22  O   UNL     1     -40.573  54.803 -49.043  1.00  0.00    -0.268 OA
BRANCH  20  23
HETATM   23  C   UNL     1     -39.742  52.871 -50.885  1.00  0.00     0.161 C 
BRANCH  23  24
HETATM   24  C   UNL     1     -39.825  51.837 -51.978  1.00  0.00    -0.041 A 
HETATM   25  C   UNL     1     -40.114  52.223 -53.296  1.00  0.00     0.009 A 
HETATM   26  C   UNL     1     -40.155  51.276 -54.321  1.00  0.00     0.001 A 
HETATM   27  C   UNL     1     -39.906  49.933 -54.043  1.00  0.00     0.000 A 
HETATM   28  C   UNL     1     -39.606  49.537 -52.742  1.00  0.00     0.001 A 
HETATM   29  C   UNL     1     -39.555  50.484 -51.718  1.00  0.00     0.009 A 
ENDBRANCH  23  24
ENDBRANCH  20  23
ENDBRANCH   1  19
TORSDOF 5
ENDMDL
MODEL 10
REMARK VINA RESULT:      -7.1     14.802     17.924
REMARK  5 active torsions:
REMARK  status: ('A' for Active; 'I' for Inactive)
REMARK    1  A    between atoms: C_4  and  C_5 
REMARK    2  A    between atoms: C_5  and  N_6 
REMARK       I    between atoms: N_6  and  C_7 
REMARK    3  A    between atoms: C_7  and  C_8 
REMARK    4  A    between atoms: C_11  and  N_12 
REMARK       I    between atoms: N_12  and  C_13 
REMARK       I    between atoms: C_13  and  N_14 
REMARK    5  A    between atoms: N_14  and  C_15 
ROOT
HETATM    1  C   UNL     1     -33.387  39.071 -50.357  1.00  0.00     0.032 A 
HETATM    2  C   UNL     1     -33.353  40.469 -50.337  1.00  0.00     0.019 A 
HETATM    3  C   UNL     1     -33.989  41.203 -51.347  1.00  0.00     0.030 A 
HETATM    4  C   UNL     1     -34.659  40.552 -52.387  1.00  0.00     0.036 A 
HETATM    5  C   UNL     1     -34.731  39.154 -52.375  1.00  0.00     0.030 A 
HETATM    6  C   UNL     1     -34.103  38.418 -51.367  1.00  0.00     0.019 A 
ENDROOT
BRANCH   4   7
HETATM    7  N   UNL     1     -35.276  41.217 -53.466  1.00  0.00    -0.309 N 
HETATM    8  C   UNL     1     -36.471  41.884 -53.465  1.00  0.00     0.325 C 
HETATM    9  N   UNL     1     -36.867  42.431 -54.658  1.00  0.00    -0.306 N 
HETATM   10  O   UNL     1     -37.177  42.090 -52.480  1.00  0.00    -0.247 OA
HETATM   11  H   UNL     1     -37.637  43.080 -54.549  1.00  0.00     0.171 HD
HETATM   12  H   UNL     1     -34.675  41.425 -54.249  1.00  0.00     0.170 HD
BRANCH   9  13
HETATM   13  C   UNL     1     -36.448  42.175 -55.947  1.00  0.00     0.072 A 
HETATM   14  C   UNL     1     -37.102  41.659 -57.088  1.00  0.00     0.169 A 
HETATM   15  N   UNL     1     -36.291  41.566 -58.146  1.00  0.00    -0.185 NA
HETATM   16  N   UNL     1     -35.129  42.068 -57.698  1.00  0.00    -0.287 N 
HETATM   17  H   UNL     1     -34.344  42.113 -58.340  1.00  0.00     0.188 HD
HETATM   18  C   UNL     1     -35.179  42.462 -56.393  1.00  0.00     0.140 A 
ENDBRANCH   9  13
ENDBRANCH   4   7
BRANCH   1  19
HETATM   19  C   UNL     1     -32.677  38.234 -49.352  1.00  0.00     0.251 C 
HETATM   20  N   UNL     1     -32.836  38.591 -48.033  1.00  0.00    -0.353 N 
HETATM   21  H   UNL     1     -33.413  39.378 -47.773  1.00  0.00     0.163 HD
HETATM   22  O   UNL     1     -31.948  37.319 -49.719  1.00  0.00    -0.268 OA
BRANCH  20  23
HETATM   23  C   UNL     1     -32.082  37.926 -46.994  1.00  0.00     0.161 C 
BRANCH  23  24
HETATM   24  C   UNL     1     -31.276  38.894 -46.164  1.00  0.00    -0.041 A 
HETATM   25  C   UNL     1     -30.558  39.928 -46.782  1.00  0.00     0.009 A 
HETATM   26  C   UNL     1     -29.842  40.851 -46.019  1.00  0.00     0.001 A 
HETATM   27  C   UNL     1     -29.834  40.754 -44.629  1.00  0.00     0.000 A 
HETATM   28  C   UNL     1     -30.552  39.739 -44.000  1.00  0.00     0.001 A 
HETATM   29  C   UNL     1     -31.278  38.821 -44.762  1.00  0.00     0.009 A 
ENDBRANCH  23  24
ENDBRANCH  20  23
ENDBRANCH   1  19
TORSDOF 5
ENDMDL
