MODEL 1
REMARK VINA RESULT:      -8.6      0.000      0.000
REMARK  3 active torsions:
REMARK  status: ('A' for Active; 'I' for Inactive)
REMARK    1  A    between atoms: C_6  and  N_7 
REMARK       I    between atoms: N_7  and  C_8 
REMARK       I    between atoms: C_8  and  N_9 
REMARK    2  A    between atoms: N_9  and  C_10 
REMARK    3  A    between atoms: C_11  and  C_12 
ROOT
HETATM    1  C   UNL     1     -43.332  55.871 -53.840  1.00  0.00     0.049 A 
HETATM    2  C   UNL     1     -43.356  56.535 -52.599  1.00  0.00     0.021 A 
HETATM    3  C   UNL     1     -44.162  57.669 -52.417  1.00  0.00     0.016 A 
HETATM    4  C   UNL     1     -44.952  58.137 -53.468  1.00  0.00     0.001 A 
HETATM    5  C   UNL     1     -44.963  57.459 -54.685  1.00  0.00     0.002 A 
HETATM    6  C   UNL     1     -44.168  56.323 -54.867  1.00  0.00     0.030 A 
ENDROOT
BRANCH   1   7
HETATM    7  N   UNL     1     -42.523  54.744 -54.106  1.00  0.00    -0.308 N 
HETATM    8  C   UNL     1     -41.392  54.799 -54.878  1.00  0.00     0.325 C 
HETATM    9  N   UNL     1     -40.575  53.704 -54.843  1.00  0.00    -0.309 N 
HETATM   10  O   UNL     1     -41.138  55.709 -55.666  1.00  0.00    -0.247 OA
HETATM   11  H   UNL     1     -39.913  53.709 -55.609  1.00  0.00     0.170 HD
HETATM   12  H   UNL     1     -42.967  53.836 -54.117  1.00  0.00     0.170 HD
BRANCH   9  13
HETATM   13  C   UNL     1     -40.345  52.761 -53.822  1.00  0.00     0.039 A 
HETATM   14  C   UNL     1     -40.271  53.078 -52.467  1.00  0.00     0.072 A 
HETATM   15  C   UNL     1     -39.967  52.085 -51.536  1.00  0.00     0.124 A 
HETATM   16  C   UNL     1     -39.736  50.764 -51.923  1.00  0.00    -0.023 A 
HETATM   17  F   UNL     1     -39.879  52.425 -50.242  1.00  0.00    -0.205 F 
HETATM   18  C   UNL     1     -39.356  49.721 -50.918  1.00  0.00     0.051 C 
HETATM   19  C   UNL     1     -39.792  50.451 -53.284  1.00  0.00     0.012 A 
HETATM   20  C   UNL     1     -40.092  51.443 -54.223  1.00  0.00     0.030 A 
ENDBRANCH   9  13
ENDBRANCH   1   7
BRANCH   2  21
HETATM   21  C   UNL     1     -42.705  55.958 -51.398  1.00  0.00     0.089 A 
HETATM   22  N   UNL     1     -43.143  54.833 -50.917  1.00  0.00    -0.171 NA
HETATM   23  N   UNL     1     -42.500  54.349 -49.814  1.00  0.00    -0.243 N 
HETATM   24  C   UNL     1     -41.440  54.943 -49.180  1.00  0.00     0.261 A 
HETATM   25  H   UNL     1     -42.832  53.464 -49.448  1.00  0.00     0.192 HD
HETATM   26  O   UNL     1     -40.890  54.464 -48.194  1.00  0.00    -0.267 OA
HETATM   27  C   UNL     1     -40.982  56.225 -49.750  1.00  0.00     0.078 A 
HETATM   28  C   UNL     1     -41.586  56.740 -50.824  1.00  0.00     0.040 A 
ENDBRANCH   2  21
TORSDOF 3
ENDMDL
MODEL 2
REMARK VINA RESULT:      -8.5      1.921      4.260
REMARK  3 active torsions:
REMARK  status: ('A' for Active; 'I' for Inactive)
REMARK    1  A    between atoms: C_6  and  N_7 
REMARK       I    between atoms: N_7  and  C_8 
REMARK       I    between atoms: C_8  and  N_9 
REMARK    2  A    between atoms: N_9  and  C_10 
REMARK    3  A    between atoms: C_11  and  C_12 
ROOT
HETATM    1  C   UNL     1     -41.131  57.060 -51.071  1.00  0.00     0.049 A 
HETATM    2  C   UNL     1     -42.131  57.362 -52.015  1.00  0.00     0.021 A 
HETATM    3  C   UNL     1     -42.647  58.664 -52.108  1.00  0.00     0.016 A 
HETATM    4  C   UNL     1     -42.164  59.666 -51.268  1.00  0.00     0.001 A 
HETATM    5  C   UNL     1     -41.145  59.382 -50.360  1.00  0.00     0.002 A 
HETATM    6  C   UNL     1     -40.621  58.089 -50.271  1.00  0.00     0.030 A 
ENDROOT
BRANCH   1   7
HETATM    7  N   UNL     1     -40.585  55.769 -50.899  1.00  0.00    -0.308 N 
HETATM    8  C   UNL     1     -40.970  54.922 -49.892  1.00  0.00     0.325 C 
HETATM    9  N   UNL     1     -40.553  53.625 -49.995  1.00  0.00    -0.309 N 
HETATM   10  O   UNL     1     -41.557  55.282 -48.873  1.00  0.00    -0.247 OA
HETATM   11  H   UNL     1     -40.652  53.131 -49.116  1.00  0.00     0.170 HD
HETATM   12  H   UNL     1     -39.636  55.612 -51.210  1.00  0.00     0.170 HD
BRANCH   9  13
HETATM   13  C   UNL     1     -40.271  52.836 -51.128  1.00  0.00     0.039 A 
HETATM   14  C   UNL     1     -40.489  53.248 -52.441  1.00  0.00     0.072 A 
HETATM   15  C   UNL     1     -40.246  52.368 -53.496  1.00  0.00     0.124 A 
HETATM   16  C   UNL     1     -39.781  51.071 -53.275  1.00  0.00    -0.023 A 
HETATM   17  F   UNL     1     -40.487  52.784 -54.747  1.00  0.00    -0.205 F 
HETATM   18  C   UNL     1     -39.577  50.119 -54.413  1.00  0.00     0.051 C 
HETATM   19  C   UNL     1     -39.580  50.652 -51.956  1.00  0.00     0.012 A 
HETATM   20  C   UNL     1     -39.826  51.528 -50.894  1.00  0.00     0.030 A 
ENDBRANCH   9  13
ENDBRANCH   1   7
BRANCH   2  21
HETATM   21  C   UNL     1     -42.524  56.393 -53.066  1.00  0.00     0.089 A 
HETATM   22  N   UNL     1     -43.433  55.503 -52.800  1.00  0.00    -0.171 NA
HETATM   23  N   UNL     1     -43.757  54.641 -53.809  1.00  0.00    -0.243 N 
HETATM   24  C   UNL     1     -43.210  54.639 -55.066  1.00  0.00     0.261 A 
HETATM   25  H   UNL     1     -44.476  53.956 -53.607  1.00  0.00     0.192 HD
HETATM   26  O   UNL     1     -43.540  53.848 -55.943  1.00  0.00    -0.267 OA
HETATM   27  C   UNL     1     -42.174  55.658 -55.322  1.00  0.00     0.078 A 
HETATM   28  C   UNL     1     -41.819  56.516 -54.362  1.00  0.00     0.040 A 
ENDBRANCH   2  21
TORSDOF 3
ENDMDL
MODEL 3
REMARK VINA RESULT:      -8.1      3.487      6.430
REMARK  3 active torsions:
REMARK  status: ('A' for Active; 'I' for Inactive)
REMARK    1  A    between atoms: C_6  and  N_7 
REMARK       I    between atoms: N_7  and  C_8 
REMARK       I    between atoms: C_8  and  N_9 
REMARK    2  A    between atoms: N_9  and  C_10 
REMARK    3  A    between atoms: C_11  and  C_12 
ROOT
HETATM    1  C   UNL     1     -40.994  54.005 -54.425  1.00  0.00     0.049 A 
HETATM    2  C   UNL     1     -41.232  54.339 -53.078  1.00  0.00     0.021 A 
HETATM    3  C   UNL     1     -40.757  53.512 -52.048  1.00  0.00     0.016 A 
HETATM    4  C   UNL     1     -40.038  52.357 -52.358  1.00  0.00     0.001 A 
HETATM    5  C   UNL     1     -39.765  52.044 -53.689  1.00  0.00     0.002 A 
HETATM    6  C   UNL     1     -40.228  52.871 -54.717  1.00  0.00     0.030 A 
ENDROOT
BRANCH   1   7
HETATM    7  N   UNL     1     -41.466  54.771 -55.513  1.00  0.00    -0.308 N 
HETATM    8  C   UNL     1     -42.759  54.713 -55.964  1.00  0.00     0.325 C 
HETATM    9  N   UNL     1     -43.141  55.684 -56.848  1.00  0.00    -0.309 N 
HETATM   10  O   UNL     1     -43.538  53.796 -55.711  1.00  0.00    -0.247 OA
HETATM   11  H   UNL     1     -44.001  55.439 -57.322  1.00  0.00     0.170 HD
HETATM   12  H   UNL     1     -40.805  55.025 -56.234  1.00  0.00     0.170 HD
BRANCH   9  13
HETATM   13  C   UNL     1     -42.696  57.011 -57.004  1.00  0.00     0.039 A 
HETATM   14  C   UNL     1     -42.657  57.949 -55.973  1.00  0.00     0.072 A 
HETATM   15  C   UNL     1     -42.269  59.262 -56.241  1.00  0.00     0.124 A 
HETATM   16  C   UNL     1     -41.910  59.671 -57.526  1.00  0.00    -0.023 A 
HETATM   17  F   UNL     1     -42.263  60.147 -55.235  1.00  0.00    -0.205 F 
HETATM   18  C   UNL     1     -41.550  61.097 -57.809  1.00  0.00     0.051 C 
HETATM   19  C   UNL     1     -41.969  58.736 -58.563  1.00  0.00     0.012 A 
HETATM   20  C   UNL     1     -42.361  57.419 -58.301  1.00  0.00     0.030 A 
ENDBRANCH   9  13
ENDBRANCH   1   7
BRANCH   2  21
HETATM   21  C   UNL     1     -41.801  55.653 -52.693  1.00  0.00     0.089 A 
HETATM   22  N   UNL     1     -41.115  56.733 -52.922  1.00  0.00    -0.171 NA
HETATM   23  N   UNL     1     -41.693  57.913 -52.552  1.00  0.00    -0.243 N 
HETATM   24  C   UNL     1     -42.925  58.052 -51.967  1.00  0.00     0.261 A 
HETATM   25  H   UNL     1     -41.164  58.756 -52.743  1.00  0.00     0.192 HD
HETATM   26  O   UNL     1     -43.405  59.138 -51.659  1.00  0.00    -0.267 OA
HETATM   27  C   UNL     1     -43.665  56.801 -51.714  1.00  0.00     0.078 A 
HETATM   28  C   UNL     1     -43.135  55.623 -52.053  1.00  0.00     0.040 A 
ENDBRANCH   2  21
TORSDOF 3
ENDMDL
MODEL 4
REMARK VINA RESULT:      -8.0      3.898      6.703
REMARK  3 active torsions:
REMARK  status: ('A' for Active; 'I' for Inactive)
REMARK    1  A    between atoms: C_6  and  N_7 
REMARK       I    between atoms: N_7  and  C_8 
REMARK       I    between atoms: C_8  and  N_9 
REMARK    2  A    between atoms: N_9  and  C_10 
REMARK    3  A    between atoms: C_11  and  C_12 
ROOT
HETATM    1  C   UNL     1     -41.151  54.263 -54.542  1.00  0.00     0.049 A 
HETATM    2  C   UNL     1     -41.380  54.800 -53.260  1.00  0.00     0.021 A 
HETATM    3  C   UNL     1     -40.913  54.129 -52.119  1.00  0.00     0.016 A 
HETATM    4  C   UNL     1     -40.212  52.931 -52.253  1.00  0.00     0.001 A 
HETATM    5  C   UNL     1     -39.948  52.418 -53.522  1.00  0.00     0.002 A 
HETATM    6  C   UNL     1     -40.403  53.088 -54.662  1.00  0.00     0.030 A 
ENDROOT
BRANCH   1   7
HETATM    7  N   UNL     1     -41.616  54.865 -55.732  1.00  0.00    -0.308 N 
HETATM    8  C   UNL     1     -42.894  54.705 -56.202  1.00  0.00     0.325 C 
HETATM    9  N   UNL     1     -43.280  55.538 -57.214  1.00  0.00    -0.309 N 
HETATM   10  O   UNL     1     -43.652  53.803 -55.849  1.00  0.00    -0.247 OA
HETATM   11  H   UNL     1     -44.120  55.205 -57.672  1.00  0.00     0.170 HD
HETATM   12  H   UNL     1     -40.943  55.044 -56.465  1.00  0.00     0.170 HD
BRANCH   9  13
HETATM   13  C   UNL     1     -42.872  56.849 -57.533  1.00  0.00     0.039 A 
HETATM   14  C   UNL     1     -42.489  57.260 -58.809  1.00  0.00     0.072 A 
HETATM   15  C   UNL     1     -42.030  58.561 -59.012  1.00  0.00     0.124 A 
HETATM   16  C   UNL     1     -41.946  59.480 -57.964  1.00  0.00    -0.023 A 
HETATM   17  F   UNL     1     -41.647  58.921 -60.245  1.00  0.00    -0.205 F 
HETATM   18  C   UNL     1     -41.400  60.856 -58.187  1.00  0.00     0.051 C 
HETATM   19  C   UNL     1     -42.312  59.061 -56.682  1.00  0.00     0.012 A 
HETATM   20  C   UNL     1     -42.768  57.756 -56.471  1.00  0.00     0.030 A 
ENDBRANCH   9  13
ENDBRANCH   1   7
BRANCH   2  21
HETATM   21  C   UNL     1     -41.927  56.165 -53.077  1.00  0.00     0.089 A 
HETATM   22  N   UNL     1     -43.215  56.327 -52.997  1.00  0.00    -0.171 NA
HETATM   23  N   UNL     1     -43.659  57.606 -52.823  1.00  0.00    -0.243 N 
HETATM   24  C   UNL     1     -42.868  58.722 -52.722  1.00  0.00     0.261 A 
HETATM   25  H   UNL     1     -44.662  57.731 -52.747  1.00  0.00     0.192 HD
HETATM   26  O   UNL     1     -43.316  59.852 -52.558  1.00  0.00    -0.267 OA
HETATM   27  C   UNL     1     -41.414  58.495 -52.829  1.00  0.00     0.078 A 
HETATM   28  C   UNL     1     -40.935  57.262 -53.009  1.00  0.00     0.040 A 
ENDBRANCH   2  21
TORSDOF 3
ENDMDL
MODEL 5
REMARK VINA RESULT:      -7.9      3.292      6.351
REMARK  3 active torsions:
REMARK  status: ('A' for Active; 'I' for Inactive)
REMARK    1  A    between atoms: C_6  and  N_7 
REMARK       I    between atoms: N_7  and  C_8 
REMARK       I    between atoms: C_8  and  N_9 
REMARK    2  A    between atoms: N_9  and  C_10 
REMARK    3  A    between atoms: C_11  and  C_12 
ROOT
HETATM    1  C   UNL     1     -41.481  55.139 -52.472  1.00  0.00     0.049 A 
HETATM    2  C   UNL     1     -40.623  54.189 -51.884  1.00  0.00     0.021 A 
HETATM    3  C   UNL     1     -40.178  54.358 -50.564  1.00  0.00     0.016 A 
HETATM    4  C   UNL     1     -40.593  55.467 -49.826  1.00  0.00     0.001 A 
HETATM    5  C   UNL     1     -41.474  56.388 -50.390  1.00  0.00     0.002 A 
HETATM    6  C   UNL     1     -41.928  56.218 -51.701  1.00  0.00     0.030 A 
ENDROOT
BRANCH   1   7
HETATM    7  N   UNL     1     -41.944  55.052 -53.803  1.00  0.00    -0.308 N 
HETATM    8  C   UNL     1     -43.234  54.716 -54.126  1.00  0.00     0.325 C 
HETATM    9  N   UNL     1     -43.609  54.916 -55.425  1.00  0.00    -0.309 N 
HETATM   10  O   UNL     1     -44.014  54.156 -53.358  1.00  0.00    -0.247 OA
HETATM   11  H   UNL     1     -44.465  54.423 -55.645  1.00  0.00     0.170 HD
HETATM   12  H   UNL     1     -41.277  54.800 -54.520  1.00  0.00     0.170 HD
BRANCH   9  13
HETATM   13  C   UNL     1     -43.164  55.855 -56.376  1.00  0.00     0.039 A 
HETATM   14  C   UNL     1     -42.748  57.149 -56.064  1.00  0.00     0.072 A 
HETATM   15  C   UNL     1     -42.393  58.031 -57.084  1.00  0.00     0.124 A 
HETATM   16  C   UNL     1     -42.438  57.654 -58.427  1.00  0.00    -0.023 A 
HETATM   17  F   UNL     1     -42.021  59.276 -56.754  1.00  0.00    -0.205 F 
HETATM   18  C   UNL     1     -42.107  58.630 -59.513  1.00  0.00     0.051 C 
HETATM   19  C   UNL     1     -42.873  56.363 -58.741  1.00  0.00     0.012 A 
HETATM   20  C   UNL     1     -43.234  55.475 -57.722  1.00  0.00     0.030 A 
ENDBRANCH   9  13
ENDBRANCH   1   7
BRANCH   2  21
HETATM   21  C   UNL     1     -40.327  52.897 -52.546  1.00  0.00     0.089 A 
HETATM   22  N   UNL     1     -40.510  52.783 -53.828  1.00  0.00    -0.171 NA
HETATM   23  N   UNL     1     -40.214  51.571 -54.382  1.00  0.00    -0.243 N 
HETATM   24  C   UNL     1     -39.743  50.475 -53.706  1.00  0.00     0.261 A 
HETATM   25  H   UNL     1     -40.344  51.487 -55.384  1.00  0.00     0.192 HD
HETATM   26  O   UNL     1     -39.485  49.408 -54.251  1.00  0.00    -0.267 OA
HETATM   27  C   UNL     1     -39.561  50.642 -52.252  1.00  0.00     0.078 A 
HETATM   28  C   UNL     1     -39.845  51.808 -51.665  1.00  0.00     0.040 A 
ENDBRANCH   2  21
TORSDOF 3
ENDMDL
MODEL 6
REMARK VINA RESULT:      -7.8      2.438      4.735
REMARK  3 active torsions:
REMARK  status: ('A' for Active; 'I' for Inactive)
REMARK    1  A    between atoms: C_6  and  N_7 
REMARK       I    between atoms: N_7  and  C_8 
REMARK       I    between atoms: C_8  and  N_9 
REMARK    2  A    between atoms: N_9  and  C_10 
REMARK    3  A    between atoms: C_11  and  C_12 
ROOT
HETATM    1  C   UNL     1     -42.863  58.627 -51.756  1.00  0.00     0.049 A 
HETATM    2  C   UNL     1     -43.245  59.050 -53.044  1.00  0.00     0.021 A 
HETATM    3  C   UNL     1     -43.421  60.415 -53.318  1.00  0.00     0.016 A 
HETATM    4  C   UNL     1     -43.210  61.360 -52.314  1.00  0.00     0.001 A 
HETATM    5  C   UNL     1     -42.792  60.949 -51.049  1.00  0.00     0.002 A 
HETATM    6  C   UNL     1     -42.605  59.591 -50.775  1.00  0.00     0.030 A 
ENDROOT
BRANCH   1   7
HETATM    7  N   UNL     1     -42.696  57.271 -51.399  1.00  0.00    -0.308 N 
HETATM    8  C   UNL     1     -43.733  56.468 -51.003  1.00  0.00     0.325 C 
HETATM    9  N   UNL     1     -43.475  55.128 -50.933  1.00  0.00    -0.309 N 
HETATM   10  O   UNL     1     -44.820  56.889 -50.609  1.00  0.00    -0.247 OA
HETATM   11  H   UNL     1     -44.187  54.638 -50.404  1.00  0.00     0.170 HD
HETATM   12  H   UNL     1     -41.806  56.992 -51.008  1.00  0.00     0.170 HD
BRANCH   9  13
HETATM   13  C   UNL     1     -42.573  54.327 -51.660  1.00  0.00     0.039 A 
HETATM   14  C   UNL     1     -41.443  53.724 -51.109  1.00  0.00     0.072 A 
HETATM   15  C   UNL     1     -40.568  53.007 -51.925  1.00  0.00     0.124 A 
HETATM   16  C   UNL     1     -40.793  52.869 -53.296  1.00  0.00    -0.023 A 
HETATM   17  F   UNL     1     -39.478  52.459 -51.371  1.00  0.00    -0.205 F 
HETATM   18  C   UNL     1     -39.817  52.143 -54.168  1.00  0.00     0.051 C 
HETATM   19  C   UNL     1     -41.916  53.489 -53.851  1.00  0.00     0.012 A 
HETATM   20  C   UNL     1     -42.795  54.213 -53.038  1.00  0.00     0.030 A 
ENDBRANCH   9  13
ENDBRANCH   1   7
BRANCH   2  21
HETATM   21  C   UNL     1     -43.274  58.112 -54.191  1.00  0.00     0.089 A 
HETATM   22  N   UNL     1     -44.296  57.322 -54.340  1.00  0.00    -0.171 NA
HETATM   23  N   UNL     1     -44.269  56.485 -55.418  1.00  0.00    -0.243 N 
HETATM   24  C   UNL     1     -43.266  56.410 -56.349  1.00  0.00     0.261 A 
HETATM   25  H   UNL     1     -45.072  55.879 -55.542  1.00  0.00     0.192 HD
HETATM   26  O   UNL     1     -43.291  55.645 -57.306  1.00  0.00    -0.267 OA
HETATM   27  C   UNL     1     -42.119  57.314 -56.137  1.00  0.00     0.078 A 
HETATM   28  C   UNL     1     -42.099  58.145 -55.091  1.00  0.00     0.040 A 
ENDBRANCH   2  21
TORSDOF 3
ENDMDL
MODEL 7
REMARK VINA RESULT:      -7.7     14.077     17.102
REMARK  3 active torsions:
REMARK  status: ('A' for Active; 'I' for Inactive)
REMARK    1  A    between atoms: C_6  and  N_7 
REMARK       I    between atoms: N_7  and  C_8 
REMARK       I    between atoms: C_8  and  N_9 
REMARK    2  A    between atoms: N_9  and  C_10 
REMARK    3  A    between atoms: C_11  and  C_12 
ROOT
HETATM    1  C   UNL     1     -34.102  40.474 -52.458  1.00  0.00     0.049 A 
HETATM    2  C   UNL     1     -32.926  39.869 -52.942  1.00  0.00     0.021 A 
HETATM    3  C   UNL     1     -31.894  39.518 -52.058  1.00  0.00     0.016 A 
HETATM    4  C   UNL     1     -32.036  39.759 -50.692  1.00  0.00     0.001 A 
HETATM    5  C   UNL     1     -33.215  40.320 -50.203  1.00  0.00     0.002 A 
HETATM    6  C   UNL     1     -34.249  40.662 -51.079  1.00  0.00     0.030 A 
ENDROOT
BRANCH   1   7
HETATM    7  N   UNL     1     -35.167  40.882 -53.290  1.00  0.00    -0.308 N 
HETATM    8  C   UNL     1     -35.617  42.176 -53.350  1.00  0.00     0.325 C 
HETATM    9  N   UNL     1     -36.473  42.477 -54.372  1.00  0.00    -0.309 N 
HETATM   10  O   UNL     1     -35.387  43.027 -52.492  1.00  0.00    -0.247 OA
HETATM   11  H   UNL     1     -36.951  43.355 -54.211  1.00  0.00     0.170 HD
HETATM   12  H   UNL     1     -35.883  40.203 -53.508  1.00  0.00     0.170 HD
BRANCH   9  13
HETATM   13  C   UNL     1     -36.594  41.926 -55.663  1.00  0.00     0.039 A 
HETATM   14  C   UNL     1     -37.795  41.482 -56.214  1.00  0.00     0.072 A 
HETATM   15  C   UNL     1     -37.803  40.883 -57.474  1.00  0.00     0.124 A 
HETATM   16  C   UNL     1     -36.631  40.715 -58.212  1.00  0.00    -0.023 A 
HETATM   17  F   UNL     1     -38.970  40.445 -57.968  1.00  0.00    -0.205 F 
HETATM   18  C   UNL     1     -36.648  40.021 -59.539  1.00  0.00     0.051 C 
HETATM   19  C   UNL     1     -35.424  41.143 -57.651  1.00  0.00     0.012 A 
HETATM   20  C   UNL     1     -35.409  41.740 -56.386  1.00  0.00     0.030 A 
ENDBRANCH   9  13
ENDBRANCH   1   7
BRANCH   2  21
HETATM   21  C   UNL     1     -32.815  39.401 -54.344  1.00  0.00     0.089 A 
HETATM   22  N   UNL     1     -33.608  38.460 -54.764  1.00  0.00    -0.171 NA
HETATM   23  N   UNL     1     -33.463  38.075 -56.066  1.00  0.00    -0.243 N 
HETATM   24  C   UNL     1     -32.562  38.594 -56.959  1.00  0.00     0.261 A 
HETATM   25  H   UNL     1     -34.091  37.352 -56.397  1.00  0.00     0.192 HD
HETATM   26  O   UNL     1     -32.475  38.219 -58.123  1.00  0.00    -0.267 OA
HETATM   27  C   UNL     1     -31.673  39.651 -56.439  1.00  0.00     0.078 A 
HETATM   28  C   UNL     1     -31.773  40.054 -55.169  1.00  0.00     0.040 A 
ENDBRANCH   2  21
TORSDOF 3
ENDMDL
MODEL 8
REMARK VINA RESULT:      -7.7     14.107     16.226
REMARK  3 active torsions:
REMARK  status: ('A' for Active; 'I' for Inactive)
REMARK    1  A    between atoms: C_6  and  N_7 
REMARK       I    between atoms: N_7  and  C_8 
REMARK       I    between atoms: C_8  and  N_9 
REMARK    2  A    between atoms: N_9  and  C_10 
REMARK    3  A    between atoms: C_11  and  C_12 
ROOT
HETATM    1  C   UNL     1     -33.356  40.543 -52.425  1.00  0.00     0.049 A 
HETATM    2  C   UNL     1     -34.425  40.284 -51.547  1.00  0.00     0.021 A 
HETATM    3  C   UNL     1     -34.175  39.907 -50.218  1.00  0.00     0.016 A 
HETATM    4  C   UNL     1     -32.862  39.797 -49.761  1.00  0.00     0.001 A 
HETATM    5  C   UNL     1     -31.801  40.093 -50.616  1.00  0.00     0.002 A 
HETATM    6  C   UNL     1     -32.046  40.477 -51.937  1.00  0.00     0.030 A 
ENDROOT
BRANCH   1   7
HETATM    7  N   UNL     1     -33.530  40.896 -53.782  1.00  0.00    -0.308 N 
HETATM    8  C   UNL     1     -32.675  40.494 -54.775  1.00  0.00     0.325 C 
HETATM    9  N   UNL     1     -33.097  40.691 -56.060  1.00  0.00    -0.309 N 
HETATM   10  O   UNL     1     -31.532  40.082 -54.578  1.00  0.00    -0.247 OA
HETATM   11  H   UNL     1     -32.334  40.611 -56.720  1.00  0.00     0.170 HD
HETATM   12  H   UNL     1     -33.993  41.770 -53.986  1.00  0.00     0.170 HD
BRANCH   9  13
HETATM   13  C   UNL     1     -34.396  40.725 -56.606  1.00  0.00     0.039 A 
HETATM   14  C   UNL     1     -35.305  41.761 -56.398  1.00  0.00     0.072 A 
HETATM   15  C   UNL     1     -36.595  41.670 -56.922  1.00  0.00     0.124 A 
HETATM   16  C   UNL     1     -37.008  40.561 -57.661  1.00  0.00    -0.023 A 
HETATM   17  F   UNL     1     -37.454  42.671 -56.686  1.00  0.00    -0.205 F 
HETATM   18  C   UNL     1     -38.413  40.453 -58.169  1.00  0.00     0.051 C 
HETATM   19  C   UNL     1     -36.102  39.514 -57.852  1.00  0.00     0.012 A 
HETATM   20  C   UNL     1     -34.809  39.597 -57.326  1.00  0.00     0.030 A 
ENDBRANCH   9  13
ENDBRANCH   1   7
BRANCH   2  21
HETATM   21  C   UNL     1     -35.827  40.591 -51.919  1.00  0.00     0.089 A 
HETATM   22  N   UNL     1     -36.081  41.665 -52.606  1.00  0.00    -0.171 NA
HETATM   23  N   UNL     1     -37.389  41.891 -52.924  1.00  0.00    -0.243 N 
HETATM   24  C   UNL     1     -38.446  41.086 -52.586  1.00  0.00     0.261 A 
HETATM   25  H   UNL     1     -37.585  42.721 -53.472  1.00  0.00     0.192 HD
HETATM   26  O   UNL     1     -39.606  41.329 -52.902  1.00  0.00    -0.267 OA
HETATM   27  C   UNL     1     -38.116  39.884 -51.796  1.00  0.00     0.078 A 
HETATM   28  C   UNL     1     -36.851  39.627 -51.455  1.00  0.00     0.040 A 
ENDBRANCH   2  21
TORSDOF 3
ENDMDL
MODEL 9
REMARK VINA RESULT:      -7.5     14.275     16.419
REMARK  3 active torsions:
REMARK  status: ('A' for Active; 'I' for Inactive)
REMARK    1  A    between atoms: C_6  and  N_7 
REMARK       I    between atoms: N_7  and  C_8 
REMARK       I    between atoms: C_8  and  N_9 
REMARK    2  A    between atoms: N_9  and  C_10 
REMARK    3  A    between atoms: C_11  and  C_12 
ROOT
HETATM    1  C   UNL     1     -34.440  40.092 -53.328  1.00  0.00     0.049 A 
HETATM    2  C   UNL     1     -34.433  39.361 -52.124  1.00  0.00     0.021 A 
HETATM    3  C   UNL     1     -33.219  39.038 -51.499  1.00  0.00     0.016 A 
HETATM    4  C   UNL     1     -32.013  39.448 -52.066  1.00  0.00     0.001 A 
HETATM    5  C   UNL     1     -32.017  40.207 -53.235  1.00  0.00     0.002 A 
HETATM    6  C   UNL     1     -33.224  40.540 -53.856  1.00  0.00     0.030 A 
ENDROOT
BRANCH   1   7
HETATM    7  N   UNL     1     -35.619  40.428 -54.029  1.00  0.00    -0.308 N 
HETATM    8  C   UNL     1     -36.275  41.621 -53.862  1.00  0.00     0.325 C 
HETATM    9  N   UNL     1     -37.245  41.916 -54.778  1.00  0.00    -0.309 N 
HETATM   10  O   UNL     1     -36.119  42.365 -52.896  1.00  0.00    -0.247 OA
HETATM   11  H   UNL     1     -37.845  42.666 -54.457  1.00  0.00     0.170 HD
HETATM   12  H   UNL     1     -36.231  39.675 -54.312  1.00  0.00     0.170 HD
BRANCH   9  13
HETATM   13  C   UNL     1     -37.376  41.545 -56.131  1.00  0.00     0.039 A 
HETATM   14  C   UNL     1     -38.078  40.424 -56.571  1.00  0.00     0.072 A 
HETATM   15  C   UNL     1     -38.090  40.099 -57.927  1.00  0.00     0.124 A 
HETATM   16  C   UNL     1     -37.416  40.873 -58.872  1.00  0.00    -0.023 A 
HETATM   17  F   UNL     1     -38.755  39.002 -58.317  1.00  0.00    -0.205 F 
HETATM   18  C   UNL     1     -37.393  40.480 -60.317  1.00  0.00     0.051 C 
HETATM   19  C   UNL     1     -36.696  41.986 -58.429  1.00  0.00     0.012 A 
HETATM   20  C   UNL     1     -36.676  42.315 -57.069  1.00  0.00     0.030 A 
ENDBRANCH   9  13
ENDBRANCH   1   7
BRANCH   2  21
HETATM   21  C   UNL     1     -35.683  39.089 -51.375  1.00  0.00     0.089 A 
HETATM   22  N   UNL     1     -36.597  38.339 -51.916  1.00  0.00    -0.171 NA
HETATM   23  N   UNL     1     -37.723  38.118 -51.177  1.00  0.00    -0.243 N 
HETATM   24  C   UNL     1     -37.967  38.615 -49.922  1.00  0.00     0.261 A 
HETATM   25  H   UNL     1     -38.429  37.522 -51.593  1.00  0.00     0.192 HD
HETATM   26  O   UNL     1     -38.994  38.382 -49.294  1.00  0.00    -0.267 OA
HETATM   27  C   UNL     1     -36.910  39.471 -49.349  1.00  0.00     0.078 A 
HETATM   28  C   UNL     1     -35.795  39.720 -50.040  1.00  0.00     0.040 A 
ENDBRANCH   2  21
TORSDOF 3
ENDMDL
MODEL 10
REMARK VINA RESULT:      -7.4      3.189      7.526
REMARK  3 active torsions:
REMARK  status: ('A' for Active; 'I' for Inactive)
REMARK    1  A    between atoms: C_6  and  N_7 
REMARK       I    between atoms: N_7  and  C_8 
REMARK       I    between atoms: C_8  and  N_9 
REMARK    2  A    between atoms: N_9  and  C_10 
REMARK    3  A    between atoms: C_11  and  C_12 
ROOT
HETATM    1  C   UNL     1     -41.350  55.892 -50.629  1.00  0.00     0.049 A 
HETATM    2  C   UNL     1     -41.375  55.244 -51.879  1.00  0.00     0.021 A 
HETATM    3  C   UNL     1     -40.801  53.972 -52.029  1.00  0.00     0.016 A 
HETATM    4  C   UNL     1     -40.209  53.342 -50.935  1.00  0.00     0.001 A 
HETATM    5  C   UNL     1     -40.218  53.962 -49.686  1.00  0.00     0.002 A 
HETATM    6  C   UNL     1     -40.798  55.225 -49.531  1.00  0.00     0.030 A 
ENDROOT
BRANCH   1   7
HETATM    7  N   UNL     1     -41.879  57.183 -50.410  1.00  0.00    -0.308 N 
HETATM    8  C   UNL     1     -41.140  58.329 -50.550  1.00  0.00     0.325 C 
HETATM    9  N   UNL     1     -41.835  59.505 -50.557  1.00  0.00    -0.309 N 
HETATM   10  O   UNL     1     -39.910  58.361 -50.554  1.00  0.00    -0.247 OA
HETATM   11  H   UNL     1     -41.225  60.300 -50.409  1.00  0.00     0.170 HD
HETATM   12  H   UNL     1     -42.636  57.276 -49.746  1.00  0.00     0.170 HD
BRANCH   9  13
HETATM   13  C   UNL     1     -43.149  59.795 -50.975  1.00  0.00     0.039 A 
HETATM   14  C   UNL     1     -43.720  59.310 -52.151  1.00  0.00     0.072 A 
HETATM   15  C   UNL     1     -45.005  59.711 -52.517  1.00  0.00     0.124 A 
HETATM   16  C   UNL     1     -45.749  60.592 -51.731  1.00  0.00    -0.023 A 
HETATM   17  F   UNL     1     -45.519  59.246 -53.664  1.00  0.00    -0.205 F 
HETATM   18  C   UNL     1     -47.105  61.056 -52.165  1.00  0.00     0.051 C 
HETATM   19  C   UNL     1     -45.169  61.093 -50.562  1.00  0.00     0.012 A 
HETATM   20  C   UNL     1     -43.879  60.698 -50.192  1.00  0.00     0.030 A 
ENDBRANCH   9  13
ENDBRANCH   1   7
BRANCH   2  21
HETATM   21  C   UNL     1     -42.171  55.773 -53.012  1.00  0.00     0.089 A 
HETATM   22  N   UNL     1     -43.469  55.713 -52.959  1.00  0.00    -0.171 NA
HETATM   23  N   UNL     1     -44.148  56.222 -54.028  1.00  0.00    -0.243 N 
HETATM   24  C   UNL     1     -43.581  56.788 -55.141  1.00  0.00     0.261 A 
HETATM   25  H   UNL     1     -45.160  56.188 -53.981  1.00  0.00     0.192 HD
HETATM   26  O   UNL     1     -44.236  57.239 -56.075  1.00  0.00    -0.267 OA
HETATM   27  C   UNL     1     -42.106  56.826 -55.167  1.00  0.00     0.078 A 
HETATM   28  C   UNL     1     -41.400  56.333 -54.146  1.00  0.00     0.040 A 
ENDBRANCH   2  21
TORSDOF 3
ENDMDL
