MODEL 1
REMARK VINA RESULT:      -7.4      0.000      0.000
REMARK  9 active torsions:
REMARK  status: ('A' for Active; 'I' for Inactive)
REMARK       I    between atoms: N_2  and  C_3 
REMARK    1  A    between atoms: C_3  and  C_4 
REMARK    2  A    between atoms: C_7  and  N_8 
REMARK       I    between atoms: N_8  and  C_9 
REMARK    3  A    between atoms: C_9  and  C_10 
REMARK    4  A    between atoms: C_10  and  O_11 
REMARK    5  A    between atoms: O_11  and  C_12 
REMARK    6  A    between atoms: C_12  and  C_13 
REMARK    7  A    between atoms: C_14  and  N_15 
REMARK    8  A    between atoms: N_15  and  C_16 
REMARK    9  A    between atoms: C_16  and  C_17 
ROOT
HETATM    1  O   UNL     1     -40.433  54.644 -53.724  1.00  0.00    -0.308 OA
ENDROOT
BRANCH   1   2
HETATM    2  C   UNL     1     -40.592  54.376 -55.122  1.00  0.00     0.282 C 
BRANCH   2   3
HETATM    3  C   UNL     1     -41.977  54.801 -55.617  1.00  0.00     0.246 C 
HETATM    4  N   UNL     1     -41.931  55.871 -56.495  1.00  0.00    -0.325 N 
HETATM    5  H   UNL     1     -41.021  56.318 -56.610  1.00  0.00     0.169 HD
HETATM    6  O   UNL     1     -42.987  54.211 -55.244  1.00  0.00    -0.271 OA
BRANCH   4   7
HETATM    7  C   UNL     1     -42.973  56.379 -57.292  1.00  0.00     0.034 A 
HETATM    8  C   UNL     1     -43.862  57.374 -56.875  1.00  0.00     0.030 A 
HETATM    9  C   UNL     1     -44.899  57.796 -57.714  1.00  0.00     0.019 A 
HETATM   10  C   UNL     1     -45.042  57.229 -58.984  1.00  0.00     0.032 A 
HETATM   11  C   UNL     1     -44.176  56.218 -59.401  1.00  0.00     0.019 A 
HETATM   12  C   UNL     1     -43.139  55.804 -58.560  1.00  0.00     0.030 A 
BRANCH  10  13
HETATM   13  C   UNL     1     -46.152  57.635 -59.873  1.00  0.00     0.253 C 
HETATM   14  N   UNL     1     -46.076  58.863 -60.527  1.00  0.00    -0.357 N 
HETATM   15  C   UNL     1     -47.236  59.329 -61.267  1.00  0.00     0.152 C 
HETATM   16  C   UNL     1     -44.865  59.660 -60.664  1.00  0.00     0.152 C 
HETATM   17  O   UNL     1     -47.100  56.860 -59.983  1.00  0.00    -0.267 OA
ENDBRANCH  10  13
ENDBRANCH   4   7
ENDBRANCH   2   3
ENDBRANCH   1   2
BRANCH   1  18
HETATM   18  C   UNL     1     -40.446  53.554 -52.919  1.00  0.00     0.295 C 
HETATM   19  O   UNL     1     -40.333  52.393 -53.286  1.00  0.00    -0.259 OA
BRANCH  18  20
HETATM   20  C   UNL     1     -40.707  53.954 -51.522  1.00  0.00     0.060 A 
HETATM   21  C   UNL     1     -41.831  54.746 -51.202  1.00  0.00     0.025 A 
HETATM   22  C   UNL     1     -41.993  55.090 -49.850  1.00  0.00     0.024 A 
HETATM   23  C   UNL     1     -41.048  54.732 -48.880  1.00  0.00     0.002 A 
HETATM   24  C   UNL     1     -39.926  53.989 -49.229  1.00  0.00     0.001 A 
HETATM   25  C   UNL     1     -39.757  53.592 -50.550  1.00  0.00     0.019 A 
BRANCH  21  26
HETATM   26  N   UNL     1     -42.808  55.029 -52.172  1.00  0.00    -0.286 NA
HETATM   27  H   UNL     1     -42.541  54.661 -53.088  1.00  0.00     0.128 HD
BRANCH  26  28
HETATM   28  C   UNL     1     -43.383  56.369 -52.284  1.00  0.00     0.157 C 
BRANCH  28  29
HETATM   29  C   UNL     1     -42.382  57.434 -52.588  1.00  0.00     0.065 A 
HETATM   30  O   UNL     1     -42.174  57.720 -53.907  1.00  0.00    -0.326 OA
HETATM   31  C   UNL     1     -41.217  58.682 -53.959  1.00  0.00     0.142 A 
HETATM   32  C   UNL     1     -40.804  59.019 -52.692  1.00  0.00     0.027 A 
HETATM   33  C   UNL     1     -41.555  58.213 -51.804  1.00  0.00     0.036 A 
ENDBRANCH  28  29
ENDBRANCH  26  28
ENDBRANCH  21  26
ENDBRANCH  18  20
ENDBRANCH   1  18
TORSDOF 9
ENDMDL
MODEL 2
REMARK VINA RESULT:      -7.3      2.291      3.406
REMARK  9 active torsions:
REMARK  status: ('A' for Active; 'I' for Inactive)
REMARK       I    between atoms: N_2  and  C_3 
REMARK    1  A    between atoms: C_3  and  C_4 
REMARK    2  A    between atoms: C_7  and  N_8 
REMARK       I    between atoms: N_8  and  C_9 
REMARK    3  A    between atoms: C_9  and  C_10 
REMARK    4  A    between atoms: C_10  and  O_11 
REMARK    5  A    between atoms: O_11  and  C_12 
REMARK    6  A    between atoms: C_12  and  C_13 
REMARK    7  A    between atoms: C_14  and  N_15 
REMARK    8  A    between atoms: N_15  and  C_16 
REMARK    9  A    between atoms: C_16  and  C_17 
ROOT
HETATM    1  O   UNL     1     -41.840  53.911 -53.895  1.00  0.00    -0.308 OA
ENDROOT
BRANCH   1   2
HETATM    2  C   UNL     1     -42.842  53.913 -54.919  1.00  0.00     0.282 C 
BRANCH   2   3
HETATM    3  C   UNL     1     -42.995  55.302 -55.546  1.00  0.00     0.246 C 
HETATM    4  N   UNL     1     -42.385  55.403 -56.785  1.00  0.00    -0.325 N 
HETATM    5  H   UNL     1     -41.816  54.606 -57.072  1.00  0.00     0.169 HD
HETATM    6  O   UNL     1     -43.611  56.191 -54.965  1.00  0.00    -0.271 OA
BRANCH   4   7
HETATM    7  C   UNL     1     -42.502  56.447 -57.722  1.00  0.00     0.034 A 
HETATM    8  C   UNL     1     -42.302  57.796 -57.418  1.00  0.00     0.030 A 
HETATM    9  C   UNL     1     -42.478  58.778 -58.398  1.00  0.00     0.019 A 
HETATM   10  C   UNL     1     -42.845  58.409 -59.695  1.00  0.00     0.032 A 
HETATM   11  C   UNL     1     -43.072  57.068 -60.005  1.00  0.00     0.019 A 
HETATM   12  C   UNL     1     -42.889  56.091 -59.022  1.00  0.00     0.030 A 
BRANCH  10  13
HETATM   13  C   UNL     1     -43.071  59.434 -60.738  1.00  0.00     0.253 C 
HETATM   14  N   UNL     1     -44.375  59.835 -61.017  1.00  0.00    -0.357 N 
HETATM   15  C   UNL     1     -44.604  60.717 -62.149  1.00  0.00     0.152 C 
HETATM   16  C   UNL     1     -45.528  59.568 -60.168  1.00  0.00     0.152 C 
HETATM   17  O   UNL     1     -42.081  59.877 -61.317  1.00  0.00    -0.267 OA
ENDBRANCH  10  13
ENDBRANCH   4   7
ENDBRANCH   2   3
ENDBRANCH   1   2
BRANCH   1  18
HETATM   18  C   UNL     1     -40.611  53.497 -54.287  1.00  0.00     0.295 C 
HETATM   19  O   UNL     1     -39.904  54.044 -55.120  1.00  0.00    -0.259 OA
BRANCH  18  20
HETATM   20  C   UNL     1     -40.268  52.222 -53.625  1.00  0.00     0.060 A 
HETATM   21  C   UNL     1     -39.881  52.201 -52.267  1.00  0.00     0.025 A 
HETATM   22  C   UNL     1     -39.561  50.946 -51.725  1.00  0.00     0.024 A 
HETATM   23  C   UNL     1     -39.549  49.785 -52.508  1.00  0.00     0.002 A 
HETATM   24  C   UNL     1     -39.892  49.841 -53.854  1.00  0.00     0.001 A 
HETATM   25  C   UNL     1     -40.259  51.058 -54.414  1.00  0.00     0.019 A 
BRANCH  21  26
HETATM   26  N   UNL     1     -39.974  53.360 -51.478  1.00  0.00    -0.286 NA
HETATM   27  H   UNL     1     -39.055  53.658 -51.142  1.00  0.00     0.128 HD
BRANCH  26  28
HETATM   28  C   UNL     1     -40.985  53.467 -50.426  1.00  0.00     0.157 C 
BRANCH  28  29
HETATM   29  C   UNL     1     -41.999  54.535 -50.667  1.00  0.00     0.065 A 
HETATM   30  O   UNL     1     -41.520  55.772 -50.994  1.00  0.00    -0.326 OA
HETATM   31  C   UNL     1     -42.595  56.588 -51.139  1.00  0.00     0.142 A 
HETATM   32  C   UNL     1     -43.761  55.897 -50.908  1.00  0.00     0.027 A 
HETATM   33  C   UNL     1     -43.378  54.570 -50.602  1.00  0.00     0.036 A 
ENDBRANCH  28  29
ENDBRANCH  26  28
ENDBRANCH  21  26
ENDBRANCH  18  20
ENDBRANCH   1  18
TORSDOF 9
ENDMDL
MODEL 3
REMARK VINA RESULT:      -7.2      3.291      5.818
REMARK  9 active torsions:
REMARK  status: ('A' for Active; 'I' for Inactive)
REMARK       I    between atoms: N_2  and  C_3 
REMARK    1  A    between atoms: C_3  and  C_4 
REMARK    2  A    between atoms: C_7  and  N_8 
REMARK       I    between atoms: N_8  and  C_9 
REMARK    3  A    between atoms: C_9  and  C_10 
REMARK    4  A    between atoms: C_10  and  O_11 
REMARK    5  A    between atoms: O_11  and  C_12 
REMARK    6  A    between atoms: C_12  and  C_13 
REMARK    7  A    between atoms: C_14  and  N_15 
REMARK    8  A    between atoms: N_15  and  C_16 
REMARK    9  A    between atoms: C_16  and  C_17 
ROOT
HETATM    1  O   UNL     1     -41.414  53.094 -50.486  1.00  0.00    -0.308 OA
ENDROOT
BRANCH   1   2
HETATM    2  C   UNL     1     -41.776  54.331 -49.863  1.00  0.00     0.282 C 
BRANCH   2   3
HETATM    3  C   UNL     1     -42.304  55.339 -50.888  1.00  0.00     0.246 C 
HETATM    4  N   UNL     1     -42.101  56.654 -50.504  1.00  0.00    -0.325 N 
HETATM    5  H   UNL     1     -41.748  56.795 -49.557  1.00  0.00     0.169 HD
HETATM    6  O   UNL     1     -42.836  54.960 -51.927  1.00  0.00    -0.271 OA
BRANCH   4   7
HETATM    7  C   UNL     1     -42.267  57.815 -51.281  1.00  0.00     0.034 A 
HETATM    8  C   UNL     1     -41.208  58.600 -51.749  1.00  0.00     0.030 A 
HETATM    9  C   UNL     1     -41.459  59.764 -52.483  1.00  0.00     0.019 A 
HETATM   10  C   UNL     1     -42.776  60.142 -52.760  1.00  0.00     0.032 A 
HETATM   11  C   UNL     1     -43.840  59.381 -52.277  1.00  0.00     0.019 A 
HETATM   12  C   UNL     1     -43.583  58.215 -51.549  1.00  0.00     0.030 A 
BRANCH  10  13
HETATM   13  C   UNL     1     -43.065  61.388 -53.504  1.00  0.00     0.253 C 
HETATM   14  N   UNL     1     -43.442  62.524 -52.792  1.00  0.00    -0.357 N 
HETATM   15  C   UNL     1     -43.881  63.694 -53.533  1.00  0.00     0.152 C 
HETATM   16  C   UNL     1     -43.286  62.697 -51.354  1.00  0.00     0.152 C 
HETATM   17  O   UNL     1     -42.963  61.351 -54.728  1.00  0.00    -0.267 OA
ENDBRANCH  10  13
ENDBRANCH   4   7
ENDBRANCH   2   3
ENDBRANCH   1   2
BRANCH   1  18
HETATM   18  C   UNL     1     -40.115  52.989 -50.858  1.00  0.00     0.295 C 
HETATM   19  O   UNL     1     -39.188  53.645 -50.407  1.00  0.00    -0.259 OA
BRANCH  18  20
HETATM   20  C   UNL     1     -39.978  52.022 -51.965  1.00  0.00     0.060 A 
HETATM   21  C   UNL     1     -40.307  52.394 -53.286  1.00  0.00     0.025 A 
HETATM   22  C   UNL     1     -40.158  51.405 -54.273  1.00  0.00     0.024 A 
HETATM   23  C   UNL     1     -39.776  50.095 -53.953  1.00  0.00     0.002 A 
HETATM   24  C   UNL     1     -39.500  49.744 -52.637  1.00  0.00     0.001 A 
HETATM   25  C   UNL     1     -39.593  50.708 -51.641  1.00  0.00     0.019 A 
BRANCH  21  26
HETATM   26  N   UNL     1     -40.611  53.729 -53.600  1.00  0.00    -0.286 NA
HETATM   27  H   UNL     1     -41.484  54.027 -53.159  1.00  0.00     0.128 HD
BRANCH  26  28
HETATM   28  C   UNL     1     -40.521  54.211 -54.979  1.00  0.00     0.157 C 
BRANCH  28  29
HETATM   29  C   UNL     1     -41.459  55.329 -55.292  1.00  0.00     0.065 A 
HETATM   30  O   UNL     1     -42.298  55.145 -56.353  1.00  0.00    -0.326 OA
HETATM   31  C   UNL     1     -43.035  56.278 -56.479  1.00  0.00     0.142 A 
HETATM   32  C   UNL     1     -42.682  57.191 -55.514  1.00  0.00     0.027 A 
HETATM   33  C   UNL     1     -41.663  56.581 -54.746  1.00  0.00     0.036 A 
ENDBRANCH  28  29
ENDBRANCH  26  28
ENDBRANCH  21  26
ENDBRANCH  18  20
ENDBRANCH   1  18
TORSDOF 9
ENDMDL
MODEL 4
REMARK VINA RESULT:      -7.2      3.369      5.437
REMARK  9 active torsions:
REMARK  status: ('A' for Active; 'I' for Inactive)
REMARK       I    between atoms: N_2  and  C_3 
REMARK    1  A    between atoms: C_3  and  C_4 
REMARK    2  A    between atoms: C_7  and  N_8 
REMARK       I    between atoms: N_8  and  C_9 
REMARK    3  A    between atoms: C_9  and  C_10 
REMARK    4  A    between atoms: C_10  and  O_11 
REMARK    5  A    between atoms: O_11  and  C_12 
REMARK    6  A    between atoms: C_12  and  C_13 
REMARK    7  A    between atoms: C_14  and  N_15 
REMARK    8  A    between atoms: N_15  and  C_16 
REMARK    9  A    between atoms: C_16  and  C_17 
ROOT
HETATM    1  O   UNL     1     -42.401  53.928 -54.466  1.00  0.00    -0.308 OA
ENDROOT
BRANCH   1   2
HETATM    2  C   UNL     1     -42.963  54.676 -55.550  1.00  0.00     0.282 C 
BRANCH   2   3
HETATM    3  C   UNL     1     -43.230  56.129 -55.147  1.00  0.00     0.246 C 
HETATM    4  N   UNL     1     -44.199  56.247 -54.166  1.00  0.00    -0.325 N 
HETATM    5  H   UNL     1     -44.696  55.390 -53.921  1.00  0.00     0.169 HD
HETATM    6  O   UNL     1     -42.612  57.051 -55.672  1.00  0.00    -0.271 OA
BRANCH   4   7
HETATM    7  C   UNL     1     -44.541  57.392 -53.423  1.00  0.00     0.034 A 
HETATM    8  C   UNL     1     -44.997  58.585 -53.992  1.00  0.00     0.030 A 
HETATM    9  C   UNL     1     -45.277  59.693 -53.186  1.00  0.00     0.019 A 
HETATM   10  C   UNL     1     -45.112  59.607 -51.801  1.00  0.00     0.032 A 
HETATM   11  C   UNL     1     -44.634  58.430 -51.224  1.00  0.00     0.019 A 
HETATM   12  C   UNL     1     -44.360  57.324 -52.034  1.00  0.00     0.030 A 
BRANCH  10  13
HETATM   13  C   UNL     1     -45.368  60.778 -50.934  1.00  0.00     0.253 C 
HETATM   14  N   UNL     1     -44.363  61.727 -50.769  1.00  0.00    -0.357 N 
HETATM   15  C   UNL     1     -44.558  62.785 -49.792  1.00  0.00     0.152 C 
HETATM   16  C   UNL     1     -43.180  61.842 -51.611  1.00  0.00     0.152 C 
HETATM   17  O   UNL     1     -46.469  60.847 -50.390  1.00  0.00    -0.267 OA
ENDBRANCH  10  13
ENDBRANCH   4   7
ENDBRANCH   2   3
ENDBRANCH   1   2
BRANCH   1  18
HETATM   18  C   UNL     1     -41.068  53.705 -54.544  1.00  0.00     0.295 C 
HETATM   19  O   UNL     1     -40.335  54.062 -55.455  1.00  0.00    -0.259 OA
BRANCH  18  20
HETATM   20  C   UNL     1     -40.621  52.880 -53.404  1.00  0.00     0.060 A 
HETATM   21  C   UNL     1     -40.788  53.339 -52.079  1.00  0.00     0.025 A 
HETATM   22  C   UNL     1     -40.323  52.494 -51.058  1.00  0.00     0.024 A 
HETATM   23  C   UNL     1     -39.657  51.294 -51.340  1.00  0.00     0.002 A 
HETATM   24  C   UNL     1     -39.466  50.887 -52.656  1.00  0.00     0.001 A 
HETATM   25  C   UNL     1     -39.954  51.675 -53.690  1.00  0.00     0.019 A 
BRANCH  21  26
HETATM   26  N   UNL     1     -41.527  54.503 -51.812  1.00  0.00    -0.286 NA
HETATM   27  H   UNL     1     -41.774  54.994 -52.675  1.00  0.00     0.128 HD
BRANCH  26  28
HETATM   28  C   UNL     1     -41.097  55.438 -50.772  1.00  0.00     0.157 C 
BRANCH  28  29
HETATM   29  C   UNL     1     -41.011  56.856 -51.231  1.00  0.00     0.065 A 
HETATM   30  O   UNL     1     -40.913  57.059 -52.578  1.00  0.00    -0.326 OA
HETATM   31  C   UNL     1     -40.817  58.399 -52.772  1.00  0.00     0.142 A 
HETATM   32  C   UNL     1     -40.849  59.063 -51.569  1.00  0.00     0.027 A 
HETATM   33  C   UNL     1     -40.973  58.068 -50.571  1.00  0.00     0.036 A 
ENDBRANCH  28  29
ENDBRANCH  26  28
ENDBRANCH  21  26
ENDBRANCH  18  20
ENDBRANCH   1  18
TORSDOF 9
ENDMDL
MODEL 5
REMARK VINA RESULT:      -7.2      3.096      5.425
REMARK  9 active torsions:
REMARK  status: ('A' for Active; 'I' for Inactive)
REMARK       I    between atoms: N_2  and  C_3 
REMARK    1  A    between atoms: C_3  and  C_4 
REMARK    2  A    between atoms: C_7  and  N_8 
REMARK       I    between atoms: N_8  and  C_9 
REMARK    3  A    between atoms: C_9  and  C_10 
REMARK    4  A    between atoms: C_10  and  O_11 
REMARK    5  A    between atoms: O_11  and  C_12 
REMARK    6  A    between atoms: C_12  and  C_13 
REMARK    7  A    between atoms: C_14  and  N_15 
REMARK    8  A    between atoms: N_15  and  C_16 
REMARK    9  A    between atoms: C_16  and  C_17 
ROOT
HETATM    1  O   UNL     1     -41.592  53.406 -50.741  1.00  0.00    -0.308 OA
ENDROOT
BRANCH   1   2
HETATM    2  C   UNL     1     -41.912  54.658 -50.125  1.00  0.00     0.282 C 
BRANCH   2   3
HETATM    3  C   UNL     1     -42.465  55.657 -51.146  1.00  0.00     0.246 C 
HETATM    4  N   UNL     1     -42.446  56.963 -50.686  1.00  0.00    -0.325 N 
HETATM    5  H   UNL     1     -42.190  57.091 -49.707  1.00  0.00     0.169 HD
HETATM    6  O   UNL     1     -42.865  55.279 -52.243  1.00  0.00    -0.271 OA
BRANCH   4   7
HETATM    7  C   UNL     1     -42.680  58.140 -51.421  1.00  0.00     0.034 A 
HETATM    8  C   UNL     1     -43.927  58.764 -51.523  1.00  0.00     0.030 A 
HETATM    9  C   UNL     1     -44.085  59.911 -52.308  1.00  0.00     0.019 A 
HETATM   10  C   UNL     1     -42.986  60.446 -52.988  1.00  0.00     0.032 A 
HETATM   11  C   UNL     1     -41.743  59.818 -52.914  1.00  0.00     0.019 A 
HETATM   12  C   UNL     1     -41.590  58.675 -52.124  1.00  0.00     0.030 A 
BRANCH  10  13
HETATM   13  C   UNL     1     -43.139  61.637 -53.852  1.00  0.00     0.253 C 
HETATM   14  N   UNL     1     -43.480  61.458 -55.191  1.00  0.00    -0.357 N 
HETATM   15  C   UNL     1     -43.467  62.614 -56.071  1.00  0.00     0.152 C 
HETATM   16  C   UNL     1     -44.004  60.224 -55.759  1.00  0.00     0.152 C 
HETATM   17  O   UNL     1     -42.945  62.736 -53.337  1.00  0.00    -0.267 OA
ENDBRANCH  10  13
ENDBRANCH   4   7
ENDBRANCH   2   3
ENDBRANCH   1   2
BRANCH   1  18
HETATM   18  C   UNL     1     -40.270  53.126 -50.835  1.00  0.00     0.295 C 
HETATM   19  O   UNL     1     -39.374  53.693 -50.226  1.00  0.00    -0.259 OA
BRANCH  18  20
HETATM   20  C   UNL     1     -40.040  52.084 -51.855  1.00  0.00     0.060 A 
HETATM   21  C   UNL     1     -40.248  52.363 -53.223  1.00  0.00     0.025 A 
HETATM   22  C   UNL     1     -40.017  51.309 -54.122  1.00  0.00     0.024 A 
HETATM   23  C   UNL     1     -39.673  50.025 -53.680  1.00  0.00     0.002 A 
HETATM   24  C   UNL     1     -39.517  49.766 -52.323  1.00  0.00     0.001 A 
HETATM   25  C   UNL     1     -39.693  50.796 -51.408  1.00  0.00     0.019 A 
BRANCH  21  26
HETATM   26  N   UNL     1     -40.515  53.673 -53.655  1.00  0.00    -0.286 NA
HETATM   27  H   UNL     1     -41.345  54.056 -53.195  1.00  0.00     0.128 HD
BRANCH  26  28
HETATM   28  C   UNL     1     -40.493  54.010 -55.078  1.00  0.00     0.157 C 
BRANCH  28  29
HETATM   29  C   UNL     1     -41.498  55.041 -55.472  1.00  0.00     0.065 A 
HETATM   30  O   UNL     1     -41.314  56.298 -54.972  1.00  0.00    -0.326 OA
HETATM   31  C   UNL     1     -42.343  57.060 -55.424  1.00  0.00     0.142 A 
HETATM   32  C   UNL     1     -43.189  56.311 -56.207  1.00  0.00     0.027 A 
HETATM   33  C   UNL     1     -42.646  55.005 -56.239  1.00  0.00     0.036 A 
ENDBRANCH  28  29
ENDBRANCH  26  28
ENDBRANCH  21  26
ENDBRANCH  18  20
ENDBRANCH   1  18
TORSDOF 9
ENDMDL
MODEL 6
REMARK VINA RESULT:      -7.0      2.672      4.570
REMARK  9 active torsions:
REMARK  status: ('A' for Active; 'I' for Inactive)
REMARK       I    between atoms: N_2  and  C_3 
REMARK    1  A    between atoms: C_3  and  C_4 
REMARK    2  A    between atoms: C_7  and  N_8 
REMARK       I    between atoms: N_8  and  C_9 
REMARK    3  A    between atoms: C_9  and  C_10 
REMARK    4  A    between atoms: C_10  and  O_11 
REMARK    5  A    between atoms: O_11  and  C_12 
REMARK    6  A    between atoms: C_12  and  C_13 
REMARK    7  A    between atoms: C_14  and  N_15 
REMARK    8  A    between atoms: N_15  and  C_16 
REMARK    9  A    between atoms: C_16  and  C_17 
ROOT
HETATM    1  O   UNL     1     -42.362  54.177 -51.180  1.00  0.00    -0.308 OA
ENDROOT
BRANCH   1   2
HETATM    2  C   UNL     1     -42.921  55.107 -50.245  1.00  0.00     0.282 C 
BRANCH   2   3
HETATM    3  C   UNL     1     -43.715  56.206 -50.957  1.00  0.00     0.246 C 
HETATM    4  N   UNL     1     -43.069  56.696 -52.080  1.00  0.00    -0.325 N 
HETATM    5  H   UNL     1     -42.114  56.367 -52.227  1.00  0.00     0.169 HD
HETATM    6  O   UNL     1     -44.808  56.568 -50.533  1.00  0.00    -0.271 OA
BRANCH   4   7
HETATM    7  C   UNL     1     -43.589  57.546 -53.073  1.00  0.00     0.034 A 
HETATM    8  C   UNL     1     -44.717  57.248 -53.844  1.00  0.00     0.030 A 
HETATM    9  C   UNL     1     -45.147  58.129 -54.841  1.00  0.00     0.019 A 
HETATM   10  C   UNL     1     -44.453  59.323 -55.063  1.00  0.00     0.032 A 
HETATM   11  C   UNL     1     -43.313  59.619 -54.317  1.00  0.00     0.019 A 
HETATM   12  C   UNL     1     -42.890  58.736 -53.318  1.00  0.00     0.030 A 
BRANCH  10  13
HETATM   13  C   UNL     1     -44.870  60.252 -56.135  1.00  0.00     0.253 C 
HETATM   14  N   UNL     1     -45.806  61.241 -55.843  1.00  0.00    -0.357 N 
HETATM   15  C   UNL     1     -46.333  62.044 -56.934  1.00  0.00     0.152 C 
HETATM   16  C   UNL     1     -46.195  61.650 -54.500  1.00  0.00     0.152 C 
HETATM   17  O   UNL     1     -44.366  60.095 -57.246  1.00  0.00    -0.267 OA
ENDBRANCH  10  13
ENDBRANCH   4   7
ENDBRANCH   2   3
ENDBRANCH   1   2
BRANCH   1  18
HETATM   18  C   UNL     1     -41.016  54.034 -51.122  1.00  0.00     0.295 C 
HETATM   19  O   UNL     1     -40.260  54.666 -50.400  1.00  0.00    -0.259 OA
BRANCH  18  20
HETATM   20  C   UNL     1     -40.564  53.055 -52.131  1.00  0.00     0.060 A 
HETATM   21  C   UNL     1     -40.950  53.189 -53.483  1.00  0.00     0.025 A 
HETATM   22  C   UNL     1     -40.483  52.205 -54.370  1.00  0.00     0.024 A 
HETATM   23  C   UNL     1     -39.739  51.104 -53.925  1.00  0.00     0.002 A 
HETATM   24  C   UNL     1     -39.410  50.973 -52.581  1.00  0.00     0.001 A 
HETATM   25  C   UNL     1     -39.815  51.952 -51.682  1.00  0.00     0.019 A 
BRANCH  21  26
HETATM   26  N   UNL     1     -41.628  54.337 -53.924  1.00  0.00    -0.286 NA
HETATM   27  H   UNL     1     -41.853  54.960 -53.144  1.00  0.00     0.128 HD
BRANCH  26  28
HETATM   28  C   UNL     1     -42.748  54.230 -54.859  1.00  0.00     0.157 C 
BRANCH  28  29
HETATM   29  C   UNL     1     -42.714  55.236 -55.961  1.00  0.00     0.065 A 
HETATM   30  O   UNL     1     -41.975  56.363 -55.740  1.00  0.00    -0.326 OA
HETATM   31  C   UNL     1     -42.104  57.145 -56.842  1.00  0.00     0.142 A 
HETATM   32  C   UNL     1     -42.918  56.541 -57.770  1.00  0.00     0.027 A 
HETATM   33  C   UNL     1     -43.314  55.307 -57.203  1.00  0.00     0.036 A 
ENDBRANCH  28  29
ENDBRANCH  26  28
ENDBRANCH  21  26
ENDBRANCH  18  20
ENDBRANCH   1  18
TORSDOF 9
ENDMDL
MODEL 7
REMARK VINA RESULT:      -7.0      2.799      3.755
REMARK  9 active torsions:
REMARK  status: ('A' for Active; 'I' for Inactive)
REMARK       I    between atoms: N_2  and  C_3 
REMARK    1  A    between atoms: C_3  and  C_4 
REMARK    2  A    between atoms: C_7  and  N_8 
REMARK       I    between atoms: N_8  and  C_9 
REMARK    3  A    between atoms: C_9  and  C_10 
REMARK    4  A    between atoms: C_10  and  O_11 
REMARK    5  A    between atoms: O_11  and  C_12 
REMARK    6  A    between atoms: C_12  and  C_13 
REMARK    7  A    between atoms: C_14  and  N_15 
REMARK    8  A    between atoms: N_15  and  C_16 
REMARK    9  A    between atoms: C_16  and  C_17 
ROOT
HETATM    1  O   UNL     1     -41.985  54.920 -55.445  1.00  0.00    -0.308 OA
ENDROOT
BRANCH   1   2
HETATM    2  C   UNL     1     -42.851  55.034 -56.580  1.00  0.00     0.282 C 
BRANCH   2   3
HETATM    3  C   UNL     1     -43.025  56.495 -57.005  1.00  0.00     0.246 C 
HETATM    4  N   UNL     1     -42.044  56.921 -57.884  1.00  0.00    -0.325 N 
HETATM    5  H   UNL     1     -41.273  56.272 -58.046  1.00  0.00     0.169 HD
HETATM    6  O   UNL     1     -43.961  57.167 -56.580  1.00  0.00    -0.271 OA
BRANCH   4   7
HETATM    7  C   UNL     1     -42.011  58.115 -58.628  1.00  0.00     0.034 A 
HETATM    8  C   UNL     1     -42.109  58.171 -60.022  1.00  0.00     0.030 A 
HETATM    9  C   UNL     1     -42.026  59.397 -60.690  1.00  0.00     0.019 A 
HETATM   10  C   UNL     1     -41.856  60.577 -59.961  1.00  0.00     0.032 A 
HETATM   11  C   UNL     1     -41.733  60.532 -58.572  1.00  0.00     0.019 A 
HETATM   12  C   UNL     1     -41.821  59.304 -57.910  1.00  0.00     0.030 A 
BRANCH  10  13
HETATM   13  C   UNL     1     -41.731  61.881 -60.649  1.00  0.00     0.253 C 
HETATM   14  N   UNL     1     -42.889  62.550 -61.039  1.00  0.00    -0.357 N 
HETATM   15  C   UNL     1     -42.759  63.745 -61.856  1.00  0.00     0.152 C 
HETATM   16  C   UNL     1     -44.230  62.241 -60.563  1.00  0.00     0.152 C 
HETATM   17  O   UNL     1     -40.595  62.305 -60.851  1.00  0.00    -0.267 OA
ENDBRANCH  10  13
ENDBRANCH   4   7
ENDBRANCH   2   3
ENDBRANCH   1   2
BRANCH   1  18
HETATM   18  C   UNL     1     -42.559  54.423 -54.324  1.00  0.00     0.295 C 
HETATM   19  O   UNL     1     -43.692  54.665 -53.932  1.00  0.00    -0.259 OA
BRANCH  18  20
HETATM   20  C   UNL     1     -41.588  53.602 -53.574  1.00  0.00     0.060 A 
HETATM   21  C   UNL     1     -41.277  53.907 -52.231  1.00  0.00     0.025 A 
HETATM   22  C   UNL     1     -40.333  53.080 -51.601  1.00  0.00     0.024 A 
HETATM   23  C   UNL     1     -39.675  52.053 -52.290  1.00  0.00     0.002 A 
HETATM   24  C   UNL     1     -39.968  51.801 -53.626  1.00  0.00     0.001 A 
HETATM   25  C   UNL     1     -40.930  52.570 -54.269  1.00  0.00     0.019 A 
BRANCH  21  26
HETATM   26  N   UNL     1     -42.002  54.888 -51.533  1.00  0.00    -0.286 NA
HETATM   27  H   UNL     1     -42.958  54.968 -51.888  1.00  0.00     0.128 HD
BRANCH  26  28
HETATM   28  C   UNL     1     -41.419  56.205 -51.274  1.00  0.00     0.157 C 
BRANCH  28  29
HETATM   29  C   UNL     1     -41.613  57.182 -52.386  1.00  0.00     0.065 A 
HETATM   30  O   UNL     1     -42.835  57.785 -52.464  1.00  0.00    -0.326 OA
HETATM   31  C   UNL     1     -42.807  58.602 -53.548  1.00  0.00     0.142 A 
HETATM   32  C   UNL     1     -41.584  58.532 -54.172  1.00  0.00     0.027 A 
HETATM   33  C   UNL     1     -40.811  57.614 -53.423  1.00  0.00     0.036 A 
ENDBRANCH  28  29
ENDBRANCH  26  28
ENDBRANCH  21  26
ENDBRANCH  18  20
ENDBRANCH   1  18
TORSDOF 9
ENDMDL
MODEL 8
REMARK VINA RESULT:      -6.9      2.693      7.961
REMARK  9 active torsions:
REMARK  status: ('A' for Active; 'I' for Inactive)
REMARK       I    between atoms: N_2  and  C_3 
REMARK    1  A    between atoms: C_3  and  C_4 
REMARK    2  A    between atoms: C_7  and  N_8 
REMARK       I    between atoms: N_8  and  C_9 
REMARK    3  A    between atoms: C_9  and  C_10 
REMARK    4  A    between atoms: C_10  and  O_11 
REMARK    5  A    between atoms: O_11  and  C_12 
REMARK    6  A    between atoms: C_12  and  C_13 
REMARK    7  A    between atoms: C_14  and  N_15 
REMARK    8  A    between atoms: N_15  and  C_16 
REMARK    9  A    between atoms: C_16  and  C_17 
ROOT
HETATM    1  O   UNL     1     -43.856  58.240 -58.807  1.00  0.00    -0.308 OA
ENDROOT
BRANCH   1   2
HETATM    2  C   UNL     1     -44.504  56.963 -58.832  1.00  0.00     0.282 C 
BRANCH   2   3
HETATM    3  C   UNL     1     -43.704  55.915 -58.051  1.00  0.00     0.246 C 
HETATM    4  N   UNL     1     -43.249  56.385 -56.831  1.00  0.00    -0.325 N 
HETATM    5  H   UNL     1     -43.387  57.380 -56.653  1.00  0.00     0.169 HD
HETATM    6  O   UNL     1     -43.524  54.791 -58.510  1.00  0.00    -0.271 OA
BRANCH   4   7
HETATM    7  C   UNL     1     -42.672  55.645 -55.782  1.00  0.00     0.034 A 
HETATM    8  C   UNL     1     -43.394  54.807 -54.927  1.00  0.00     0.030 A 
HETATM    9  C   UNL     1     -42.751  54.136 -53.882  1.00  0.00     0.019 A 
HETATM   10  C   UNL     1     -41.375  54.294 -53.695  1.00  0.00     0.032 A 
HETATM   11  C   UNL     1     -40.648  55.147 -54.526  1.00  0.00     0.019 A 
HETATM   12  C   UNL     1     -41.296  55.811 -55.572  1.00  0.00     0.030 A 
BRANCH  10  13
HETATM   13  C   UNL     1     -40.681  53.622 -52.574  1.00  0.00     0.253 C 
HETATM   14  N   UNL     1     -40.196  52.330 -52.761  1.00  0.00    -0.357 N 
HETATM   15  C   UNL     1     -39.664  51.616 -51.613  1.00  0.00     0.152 C 
HETATM   16  C   UNL     1     -40.033  51.680 -54.054  1.00  0.00     0.152 C 
HETATM   17  O   UNL     1     -40.576  54.247 -51.521  1.00  0.00    -0.267 OA
ENDBRANCH  10  13
ENDBRANCH   4   7
ENDBRANCH   2   3
ENDBRANCH   1   2
BRANCH   1  18
HETATM   18  C   UNL     1     -42.757  58.348 -59.591  1.00  0.00     0.295 C 
HETATM   19  O   UNL     1     -42.311  57.476 -60.321  1.00  0.00    -0.259 OA
BRANCH  18  20
HETATM   20  C   UNL     1     -42.105  59.655 -59.376  1.00  0.00     0.060 A 
HETATM   21  C   UNL     1     -41.862  60.129 -58.068  1.00  0.00     0.025 A 
HETATM   22  C   UNL     1     -41.248  61.387 -57.960  1.00  0.00     0.024 A 
HETATM   23  C   UNL     1     -40.962  62.169 -59.087  1.00  0.00     0.002 A 
HETATM   24  C   UNL     1     -41.252  61.697 -60.362  1.00  0.00     0.001 A 
HETATM   25  C   UNL     1     -41.817  60.437 -60.511  1.00  0.00     0.019 A 
BRANCH  21  26
HETATM   26  N   UNL     1     -42.082  59.301 -56.955  1.00  0.00    -0.286 NA
HETATM   27  H   UNL     1     -42.504  58.411 -57.229  1.00  0.00     0.128 HD
BRANCH  26  28
HETATM   28  C   UNL     1     -42.703  59.832 -55.741  1.00  0.00     0.157 C 
BRANCH  28  29
HETATM   29  C   UNL     1     -42.175  59.233 -54.479  1.00  0.00     0.065 A 
HETATM   30  O   UNL     1     -40.873  59.505 -54.170  1.00  0.00    -0.326 OA
HETATM   31  C   UNL     1     -40.594  58.847 -53.016  1.00  0.00     0.142 A 
HETATM   32  C   UNL     1     -41.696  58.153 -52.578  1.00  0.00     0.027 A 
HETATM   33  C   UNL     1     -42.720  58.400 -53.522  1.00  0.00     0.036 A 
ENDBRANCH  28  29
ENDBRANCH  26  28
ENDBRANCH  21  26
ENDBRANCH  18  20
ENDBRANCH   1  18
TORSDOF 9
ENDMDL
MODEL 9
REMARK VINA RESULT:      -6.9      3.136      5.036
REMARK  9 active torsions:
REMARK  status: ('A' for Active; 'I' for Inactive)
REMARK       I    between atoms: N_2  and  C_3 
REMARK    1  A    between atoms: C_3  and  C_4 
REMARK    2  A    between atoms: C_7  and  N_8 
REMARK       I    between atoms: N_8  and  C_9 
REMARK    3  A    between atoms: C_9  and  C_10 
REMARK    4  A    between atoms: C_10  and  O_11 
REMARK    5  A    between atoms: O_11  and  C_12 
REMARK    6  A    between atoms: C_12  and  C_13 
REMARK    7  A    between atoms: C_14  and  N_15 
REMARK    8  A    between atoms: N_15  and  C_16 
REMARK    9  A    between atoms: C_16  and  C_17 
ROOT
HETATM    1  O   UNL     1     -42.623  55.819 -55.102  1.00  0.00    -0.308 OA
ENDROOT
BRANCH   1   2
HETATM    2  C   UNL     1     -42.818  55.561 -56.497  1.00  0.00     0.282 C 
BRANCH   2   3
HETATM    3  C   UNL     1     -43.150  56.847 -57.261  1.00  0.00     0.246 C 
HETATM    4  N   UNL     1     -42.025  57.479 -57.764  1.00  0.00    -0.325 N 
HETATM    5  H   UNL     1     -41.126  57.097 -57.471  1.00  0.00     0.169 HD
HETATM    6  O   UNL     1     -44.311  57.222 -57.386  1.00  0.00    -0.271 OA
BRANCH   4   7
HETATM    7  C   UNL     1     -41.973  58.549 -58.677  1.00  0.00     0.034 A 
HETATM    8  C   UNL     1     -42.090  58.401 -60.062  1.00  0.00     0.030 A 
HETATM    9  C   UNL     1     -41.986  59.512 -60.905  1.00  0.00     0.019 A 
HETATM   10  C   UNL     1     -41.776  60.783 -60.361  1.00  0.00     0.032 A 
HETATM   11  C   UNL     1     -41.632  60.939 -58.982  1.00  0.00     0.019 A 
HETATM   12  C   UNL     1     -41.742  59.825 -58.144  1.00  0.00     0.030 A 
BRANCH  10  13
HETATM   13  C   UNL     1     -41.627  61.966 -61.236  1.00  0.00     0.253 C 
HETATM   14  N   UNL     1     -42.771  62.641 -61.655  1.00  0.00    -0.357 N 
HETATM   15  C   UNL     1     -42.632  63.698 -62.642  1.00  0.00     0.152 C 
HETATM   16  C   UNL     1     -44.095  62.481 -61.069  1.00  0.00     0.152 C 
HETATM   17  O   UNL     1     -40.486  62.290 -61.558  1.00  0.00    -0.267 OA
ENDBRANCH  10  13
ENDBRANCH   4   7
ENDBRANCH   2   3
ENDBRANCH   1   2
BRANCH   1  18
HETATM   18  C   UNL     1     -41.395  55.509 -54.620  1.00  0.00     0.295 C 
HETATM   19  O   UNL     1     -40.555  54.829 -55.190  1.00  0.00    -0.259 OA
BRANCH  18  20
HETATM   20  C   UNL     1     -41.236  56.038 -53.251  1.00  0.00     0.060 A 
HETATM   21  C   UNL     1     -41.281  55.170 -52.138  1.00  0.00     0.025 A 
HETATM   22  C   UNL     1     -41.133  55.762 -50.873  1.00  0.00     0.024 A 
HETATM   23  C   UNL     1     -41.025  57.150 -50.716  1.00  0.00     0.002 A 
HETATM   24  C   UNL     1     -41.028  57.986 -51.827  1.00  0.00     0.001 A 
HETATM   25  C   UNL     1     -41.126  57.432 -53.097  1.00  0.00     0.019 A 
BRANCH  21  26
HETATM   26  N   UNL     1     -41.311  53.777 -52.317  1.00  0.00    -0.286 NA
HETATM   27  H   UNL     1     -42.162  53.368 -51.925  1.00  0.00     0.128 HD
BRANCH  26  28
HETATM   28  C   UNL     1     -40.137  52.959 -52.008  1.00  0.00     0.157 C 
BRANCH  28  29
HETATM   29  C   UNL     1     -40.030  51.719 -52.832  1.00  0.00     0.065 A 
HETATM   30  O   UNL     1     -39.598  50.593 -52.191  1.00  0.00    -0.326 OA
HETATM   31  C   UNL     1     -39.545  49.603 -53.118  1.00  0.00     0.142 A 
HETATM   32  C   UNL     1     -39.935  50.075 -54.349  1.00  0.00     0.027 A 
HETATM   33  C   UNL     1     -40.247  51.443 -54.167  1.00  0.00     0.036 A 
ENDBRANCH  28  29
ENDBRANCH  26  28
ENDBRANCH  21  26
ENDBRANCH  18  20
ENDBRANCH   1  18
TORSDOF 9
ENDMDL
MODEL 10
REMARK VINA RESULT:      -6.9      2.635      8.242
REMARK  9 active torsions:
REMARK  status: ('A' for Active; 'I' for Inactive)
REMARK       I    between atoms: N_2  and  C_3 
REMARK    1  A    between atoms: C_3  and  C_4 
REMARK    2  A    between atoms: C_7  and  N_8 
REMARK       I    between atoms: N_8  and  C_9 
REMARK    3  A    between atoms: C_9  and  C_10 
REMARK    4  A    between atoms: C_10  and  O_11 
REMARK    5  A    between atoms: O_11  and  C_12 
REMARK    6  A    between atoms: C_12  and  C_13 
REMARK    7  A    between atoms: C_14  and  N_15 
REMARK    8  A    between atoms: N_15  and  C_16 
REMARK    9  A    between atoms: C_16  and  C_17 
ROOT
HETATM    1  O   UNL     1     -42.215  57.606 -59.156  1.00  0.00    -0.308 OA
ENDROOT
BRANCH   1   2
HETATM    2  C   UNL     1     -42.974  56.461 -58.752  1.00  0.00     0.282 C 
BRANCH   2   3
HETATM    3  C   UNL     1     -43.037  56.343 -57.226  1.00  0.00     0.246 C 
HETATM    4  N   UNL     1     -42.344  55.246 -56.743  1.00  0.00    -0.325 N 
HETATM    5  H   UNL     1     -41.989  54.594 -57.443  1.00  0.00     0.169 HD
HETATM    6  O   UNL     1     -43.649  57.169 -56.556  1.00  0.00    -0.271 OA
BRANCH   4   7
HETATM    7  C   UNL     1     -42.021  54.951 -55.405  1.00  0.00     0.034 A 
HETATM    8  C   UNL     1     -40.720  54.977 -54.892  1.00  0.00     0.030 A 
HETATM    9  C   UNL     1     -40.477  54.630 -53.559  1.00  0.00     0.019 A 
HETATM   10  C   UNL     1     -41.542  54.266 -52.728  1.00  0.00     0.032 A 
HETATM   11  C   UNL     1     -42.839  54.213 -53.236  1.00  0.00     0.019 A 
HETATM   12  C   UNL     1     -43.077  54.565 -54.568  1.00  0.00     0.030 A 
BRANCH  10  13
HETATM   13  C   UNL     1     -41.303  53.862 -51.325  1.00  0.00     0.253 C 
HETATM   14  N   UNL     1     -41.452  54.811 -50.317  1.00  0.00    -0.357 N 
HETATM   15  C   UNL     1     -41.059  54.455 -48.964  1.00  0.00     0.152 C 
HETATM   16  C   UNL     1     -42.120  56.096 -50.474  1.00  0.00     0.152 C 
HETATM   17  O   UNL     1     -40.973  52.696 -51.122  1.00  0.00    -0.267 OA
ENDBRANCH  10  13
ENDBRANCH   4   7
ENDBRANCH   2   3
ENDBRANCH   1   2
BRANCH   1  18
HETATM   18  C   UNL     1     -42.941  58.647 -59.629  1.00  0.00     0.295 C 
HETATM   19  O   UNL     1     -44.060  58.576 -60.116  1.00  0.00    -0.259 OA
BRANCH  18  20
HETATM   20  C   UNL     1     -42.151  59.893 -59.558  1.00  0.00     0.060 A 
HETATM   21  C   UNL     1     -41.805  60.451 -58.308  1.00  0.00     0.025 A 
HETATM   22  C   UNL     1     -41.063  61.644 -58.337  1.00  0.00     0.024 A 
HETATM   23  C   UNL     1     -40.750  62.289 -59.541  1.00  0.00     0.002 A 
HETATM   24  C   UNL     1     -41.142  61.740 -60.756  1.00  0.00     0.001 A 
HETATM   25  C   UNL     1     -41.837  60.537 -60.769  1.00  0.00     0.019 A 
BRANCH  21  26
HETATM   26  N   UNL     1     -42.058  59.752 -57.116  1.00  0.00    -0.286 NA
HETATM   27  H   UNL     1     -42.655  58.938 -57.281  1.00  0.00     0.128 HD
BRANCH  26  28
HETATM   28  C   UNL     1     -42.452  60.465 -55.901  1.00  0.00     0.157 C 
BRANCH  28  29
HETATM   29  C   UNL     1     -42.015  59.799 -54.639  1.00  0.00     0.065 A 
HETATM   30  O   UNL     1     -42.169  60.513 -53.485  1.00  0.00    -0.326 OA
HETATM   31  C   UNL     1     -41.688  59.744 -52.475  1.00  0.00     0.142 A 
HETATM   32  C   UNL     1     -41.224  58.545 -52.962  1.00  0.00     0.027 A 
HETATM   33  C   UNL     1     -41.433  58.579 -54.361  1.00  0.00     0.036 A 
ENDBRANCH  28  29
ENDBRANCH  26  28
ENDBRANCH  21  26
ENDBRANCH  18  20
ENDBRANCH   1  18
TORSDOF 9
ENDMDL
