MODEL 1
REMARK VINA RESULT:      -9.7      0.000      0.000
REMARK  1 active torsions:
REMARK  status: ('A' for Active; 'I' for Inactive)
REMARK       I    between atoms: N_9  and  C_10 
REMARK    1  A    between atoms: C_10  and  C_11 
ROOT
HETATM    1  C   UNL     1     -40.284  54.165 -48.995  1.00  0.00     0.002 A 
HETATM    2  C   UNL     1     -39.846  53.471 -50.122  1.00  0.00     0.031 A 
HETATM    3  C   UNL     1     -40.489  53.665 -51.345  1.00  0.00     0.056 A 
HETATM    4  C   UNL     1     -41.563  54.562 -51.469  1.00  0.00     0.036 A 
HETATM    5  N   UNL     1     -42.278  54.694 -52.670  1.00  0.00    -0.273 NA
HETATM    6  C   UNL     1     -41.546  54.318 -53.911  1.00  0.00     0.100 C 
HETATM    7  C   UNL     1     -40.617  55.465 -54.358  1.00  0.00     0.055 C 
HETATM    8  C   UNL     1     -41.372  56.664 -54.913  1.00  0.00     0.128 C 
HETATM    9  N   UNL     1     -42.338  56.272 -55.933  1.00  0.00    -0.348 N 
HETATM   10  C   UNL     1     -42.603  57.198 -56.948  1.00  0.00     0.253 C 
HETATM   11  O   UNL     1     -42.103  58.322 -56.972  1.00  0.00    -0.267 OA
HETATM   12  C   UNL     1     -43.294  55.246 -55.513  1.00  0.00     0.128 C 
HETATM   13  C   UNL     1     -42.576  54.001 -55.012  1.00  0.00     0.055 C 
HETATM   14  C   UNL     1     -40.649  53.064 -53.695  1.00  0.00     0.245 C 
HETATM   15  O   UNL     1     -40.343  52.282 -54.596  1.00  0.00    -0.271 OA
HETATM   16  N   UNL     1     -40.076  52.921 -52.456  1.00  0.00    -0.324 N 
HETATM   17  C   UNL     1     -42.018  55.214 -50.317  1.00  0.00     0.026 A 
HETATM   18  C   UNL     1     -41.374  55.029 -49.090  1.00  0.00     0.002 A 
HETATM   19  H   UNL     1     -42.770  55.581 -52.725  1.00  0.00     0.129 HD
HETATM   20  H   UNL     1     -39.413  52.167 -52.349  1.00  0.00     0.169 HD
ENDROOT
BRANCH  10  21
HETATM   21  C   UNL     1     -43.504  56.829 -58.066  1.00  0.00     0.034 A 
HETATM   22  C   UNL     1     -44.762  57.435 -58.203  1.00  0.00     0.051 A 
HETATM   23  C   UNL     1     -45.576  57.034 -59.271  1.00  0.00     0.085 A 
HETATM   24  C   UNL     1     -45.139  56.030 -60.129  1.00  0.00     0.062 A 
HETATM   25  N   UNL     1     -46.816  57.491 -59.645  1.00  0.00    -0.242 NA
HETATM   26  N   UNL     1     -46.163  55.889 -61.031  1.00  0.00    -0.349 N 
HETATM   27  C   UNL     1     -43.912  55.378 -59.989  1.00  0.00     0.033 A 
HETATM   28  H   UNL     1     -46.191  55.236 -61.800  1.00  0.00     0.167 HD
HETATM   29  C   UNL     1     -47.140  56.787 -60.705  1.00  0.00     0.208 A 
HETATM   30  C   UNL     1     -43.100  55.800 -58.930  1.00  0.00     0.019 A 
ENDBRANCH  10  21
TORSDOF 1
ENDMDL
MODEL 2
REMARK VINA RESULT:      -9.0      4.384      7.757
REMARK  1 active torsions:
REMARK  status: ('A' for Active; 'I' for Inactive)
REMARK       I    between atoms: N_9  and  C_10 
REMARK    1  A    between atoms: C_10  and  C_11 
ROOT
HETATM    1  C   UNL     1     -44.812  61.411 -52.569  1.00  0.00     0.002 A 
HETATM    2  C   UNL     1     -43.673  61.108 -51.823  1.00  0.00     0.031 A 
HETATM    3  C   UNL     1     -43.194  59.798 -51.797  1.00  0.00     0.056 A 
HETATM    4  C   UNL     1     -43.827  58.776 -52.525  1.00  0.00     0.036 A 
HETATM    5  N   UNL     1     -43.411  57.438 -52.430  1.00  0.00    -0.273 NA
HETATM    6  C   UNL     1     -41.996  57.221 -52.025  1.00  0.00     0.100 C 
HETATM    7  C   UNL     1     -41.053  57.410 -53.231  1.00  0.00     0.055 C 
HETATM    8  C   UNL     1     -41.157  56.286 -54.252  1.00  0.00     0.128 C 
HETATM    9  N   UNL     1     -41.038  54.974 -53.628  1.00  0.00    -0.348 N 
HETATM   10  C   UNL     1     -40.469  53.953 -54.397  1.00  0.00     0.253 C 
HETATM   11  O   UNL     1     -40.128  54.111 -55.568  1.00  0.00    -0.267 OA
HETATM   12  C   UNL     1     -41.979  54.726 -52.534  1.00  0.00     0.128 C 
HETATM   13  C   UNL     1     -41.860  55.795 -51.457  1.00  0.00     0.055 C 
HETATM   14  C   UNL     1     -41.545  58.235 -50.933  1.00  0.00     0.245 C 
HETATM   15  O   UNL     1     -40.662  57.999 -50.107  1.00  0.00    -0.271 OA
HETATM   16  N   UNL     1     -42.083  59.495 -51.002  1.00  0.00    -0.324 N 
HETATM   17  C   UNL     1     -44.995  59.090 -53.229  1.00  0.00     0.026 A 
HETATM   18  C   UNL     1     -45.477  60.402 -53.264  1.00  0.00     0.002 A 
HETATM   19  H   UNL     1     -43.708  56.890 -53.232  1.00  0.00     0.129 HD
HETATM   20  H   UNL     1     -41.713  60.180 -50.358  1.00  0.00     0.169 HD
ENDROOT
BRANCH  10  21
HETATM   21  C   UNL     1     -40.234  52.619 -53.792  1.00  0.00     0.034 A 
HETATM   22  C   UNL     1     -40.098  52.475 -52.404  1.00  0.00     0.051 A 
HETATM   23  C   UNL     1     -39.863  51.191 -51.893  1.00  0.00     0.085 A 
HETATM   24  C   UNL     1     -39.730  50.117 -52.767  1.00  0.00     0.062 A 
HETATM   25  N   UNL     1     -39.732  50.779 -50.589  1.00  0.00    -0.242 NA
HETATM   26  N   UNL     1     -39.505  49.040 -51.946  1.00  0.00    -0.349 N 
HETATM   27  C   UNL     1     -39.816  50.239 -54.155  1.00  0.00     0.033 A 
HETATM   28  H   UNL     1     -39.354  48.088 -52.244  1.00  0.00     0.167 HD
HETATM   29  C   UNL     1     -39.520  49.485 -50.654  1.00  0.00     0.208 A 
HETATM   30  C   UNL     1     -40.070  51.523 -54.652  1.00  0.00     0.019 A 
ENDBRANCH  10  21
TORSDOF 1
ENDMDL
MODEL 3
REMARK VINA RESULT:      -8.8      3.981      5.539
REMARK  1 active torsions:
REMARK  status: ('A' for Active; 'I' for Inactive)
REMARK       I    between atoms: N_9  and  C_10 
REMARK    1  A    between atoms: C_10  and  C_11 
ROOT
HETATM    1  C   UNL     1     -39.484  49.407 -52.454  1.00  0.00     0.002 A 
HETATM    2  C   UNL     1     -39.706  50.263 -51.375  1.00  0.00     0.031 A 
HETATM    3  C   UNL     1     -40.014  51.604 -51.610  1.00  0.00     0.056 A 
HETATM    4  C   UNL     1     -40.123  52.108 -52.916  1.00  0.00     0.036 A 
HETATM    5  N   UNL     1     -40.337  53.474 -53.164  1.00  0.00    -0.273 NA
HETATM    6  C   UNL     1     -40.996  54.240 -52.071  1.00  0.00     0.100 C 
HETATM    7  C   UNL     1     -42.522  54.014 -52.097  1.00  0.00     0.055 C 
HETATM    8  C   UNL     1     -43.206  54.693 -53.276  1.00  0.00     0.128 C 
HETATM    9  N   UNL     1     -42.829  56.096 -53.386  1.00  0.00    -0.348 N 
HETATM   10  C   UNL     1     -43.782  56.971 -53.919  1.00  0.00     0.253 C 
HETATM   11  O   UNL     1     -44.875  56.592 -54.338  1.00  0.00    -0.267 OA
HETATM   12  C   UNL     1     -41.387  56.343 -53.452  1.00  0.00     0.128 C 
HETATM   13  C   UNL     1     -40.672  55.735 -52.254  1.00  0.00     0.055 C 
HETATM   14  C   UNL     1     -40.495  53.792 -50.667  1.00  0.00     0.245 C 
HETATM   15  O   UNL     1     -40.484  54.529 -49.680  1.00  0.00    -0.271 OA
HETATM   16  N   UNL     1     -40.179  52.465 -50.519  1.00  0.00    -0.324 N 
HETATM   17  C   UNL     1     -39.851  51.245 -53.984  1.00  0.00     0.026 A 
HETATM   18  C   UNL     1     -39.548  49.900 -53.756  1.00  0.00     0.002 A 
HETATM   19  H   UNL     1     -40.728  53.637 -54.087  1.00  0.00     0.129 HD
HETATM   20  H   UNL     1     -39.955  52.155 -49.584  1.00  0.00     0.169 HD
ENDROOT
BRANCH  10  21
HETATM   21  C   UNL     1     -43.498  58.426 -53.975  1.00  0.00     0.034 A 
HETATM   22  C   UNL     1     -43.765  59.251 -52.872  1.00  0.00     0.051 A 
HETATM   23  C   UNL     1     -43.490  60.620 -52.990  1.00  0.00     0.085 A 
HETATM   24  C   UNL     1     -43.006  61.123 -54.194  1.00  0.00     0.062 A 
HETATM   25  N   UNL     1     -43.622  61.622 -52.060  1.00  0.00    -0.242 NA
HETATM   26  N   UNL     1     -42.860  62.468 -53.962  1.00  0.00    -0.349 N 
HETATM   27  C   UNL     1     -42.776  60.333 -55.321  1.00  0.00     0.033 A 
HETATM   28  H   UNL     1     -42.533  63.153 -54.627  1.00  0.00     0.167 HD
HETATM   29  C   UNL     1     -43.234  62.717 -52.672  1.00  0.00     0.208 A 
HETATM   30  C   UNL     1     -43.036  58.964 -55.185  1.00  0.00     0.019 A 
ENDBRANCH  10  21
TORSDOF 1
ENDMDL
MODEL 4
REMARK VINA RESULT:      -8.6      4.670      6.948
REMARK  1 active torsions:
REMARK  status: ('A' for Active; 'I' for Inactive)
REMARK       I    between atoms: N_9  and  C_10 
REMARK    1  A    between atoms: C_10  and  C_11 
ROOT
HETATM    1  C   UNL     1     -39.518  51.171 -53.342  1.00  0.00     0.002 A 
HETATM    2  C   UNL     1     -40.447  51.757 -54.201  1.00  0.00     0.031 A 
HETATM    3  C   UNL     1     -41.156  52.885 -53.785  1.00  0.00     0.056 A 
HETATM    4  C   UNL     1     -40.939  53.455 -52.519  1.00  0.00     0.036 A 
HETATM    5  N   UNL     1     -41.713  54.530 -52.053  1.00  0.00    -0.273 NA
HETATM    6  C   UNL     1     -42.339  55.386 -53.098  1.00  0.00     0.100 C 
HETATM    7  C   UNL     1     -41.312  56.392 -53.659  1.00  0.00     0.055 C 
HETATM    8  C   UNL     1     -40.952  57.492 -52.670  1.00  0.00     0.128 C 
HETATM    9  N   UNL     1     -42.139  58.129 -52.113  1.00  0.00    -0.348 N 
HETATM   10  C   UNL     1     -42.029  59.479 -51.759  1.00  0.00     0.253 C 
HETATM   11  O   UNL     1     -40.976  60.108 -51.848  1.00  0.00    -0.267 OA
HETATM   12  C   UNL     1     -43.096  57.212 -51.493  1.00  0.00     0.128 C 
HETATM   13  C   UNL     1     -43.533  56.132 -52.472  1.00  0.00     0.055 C 
HETATM   14  C   UNL     1     -42.855  54.545 -54.302  1.00  0.00     0.245 C 
HETATM   15  O   UNL     1     -43.791  54.891 -55.023  1.00  0.00    -0.271 OA
HETATM   16  N   UNL     1     -42.125  53.430 -54.633  1.00  0.00    -0.324 N 
HETATM   17  C   UNL     1     -40.037  52.825 -51.654  1.00  0.00     0.026 A 
HETATM   18  C   UNL     1     -39.319  51.700 -52.068  1.00  0.00     0.002 A 
HETATM   19  H   UNL     1     -41.244  55.045 -51.313  1.00  0.00     0.129 HD
HETATM   20  H   UNL     1     -42.400  52.946 -55.475  1.00  0.00     0.169 HD
ENDROOT
BRANCH  10  21
HETATM   21  C   UNL     1     -43.223  60.212 -51.272  1.00  0.00     0.034 A 
HETATM   22  C   UNL     1     -43.270  60.717 -49.964  1.00  0.00     0.051 A 
HETATM   23  C   UNL     1     -44.431  61.388 -49.557  1.00  0.00     0.085 A 
HETATM   24  C   UNL     1     -45.506  61.497 -50.434  1.00  0.00     0.062 A 
HETATM   25  N   UNL     1     -44.713  62.001 -48.360  1.00  0.00    -0.242 NA
HETATM   26  N   UNL     1     -46.452  62.190 -49.721  1.00  0.00    -0.349 N 
HETATM   27  C   UNL     1     -45.503  60.965 -51.724  1.00  0.00     0.033 A 
HETATM   28  H   UNL     1     -47.372  62.445 -50.048  1.00  0.00     0.167 HD
HETATM   29  C   UNL     1     -45.931  62.474 -48.490  1.00  0.00     0.208 A 
HETATM   30  C   UNL     1     -44.332  60.313 -52.126  1.00  0.00     0.019 A 
ENDBRANCH  10  21
TORSDOF 1
ENDMDL
MODEL 5
REMARK VINA RESULT:      -8.4      5.299      7.827
REMARK  1 active torsions:
REMARK  status: ('A' for Active; 'I' for Inactive)
REMARK       I    between atoms: N_9  and  C_10 
REMARK    1  A    between atoms: C_10  and  C_11 
ROOT
HETATM    1  C   UNL     1     -40.086  52.275 -53.943  1.00  0.00     0.002 A 
HETATM    2  C   UNL     1     -40.300  52.453 -52.576  1.00  0.00     0.031 A 
HETATM    3  C   UNL     1     -40.656  53.713 -52.092  1.00  0.00     0.056 A 
HETATM    4  C   UNL     1     -40.821  54.806 -52.959  1.00  0.00     0.036 A 
HETATM    5  N   UNL     1     -41.085  56.098 -52.475  1.00  0.00    -0.273 NA
HETATM    6  C   UNL     1     -41.733  56.174 -51.137  1.00  0.00     0.100 C 
HETATM    7  C   UNL     1     -43.251  55.928 -51.257  1.00  0.00     0.055 C 
HETATM    8  C   UNL     1     -43.992  57.082 -51.918  1.00  0.00     0.128 C 
HETATM    9  N   UNL     1     -43.661  58.361 -51.303  1.00  0.00    -0.348 N 
HETATM   10  C   UNL     1     -44.657  59.344 -51.306  1.00  0.00     0.253 C 
HETATM   11  O   UNL     1     -45.751  59.185 -51.846  1.00  0.00    -0.267 OA
HETATM   12  C   UNL     1     -42.231  58.668 -51.251  1.00  0.00     0.128 C 
HETATM   13  C   UNL     1     -41.461  57.567 -50.537  1.00  0.00     0.055 C 
HETATM   14  C   UNL     1     -41.174  55.096 -50.162  1.00  0.00     0.245 C 
HETATM   15  O   UNL     1     -41.155  55.229 -48.937  1.00  0.00    -0.271 OA
HETATM   16  N   UNL     1     -40.813  53.893 -50.714  1.00  0.00    -0.324 N 
HETATM   17  C   UNL     1     -40.556  54.618 -54.321  1.00  0.00     0.026 A 
HETATM   18  C   UNL     1     -40.206  53.358 -54.812  1.00  0.00     0.002 A 
HETATM   19  H   UNL     1     -41.509  56.690 -53.182  1.00  0.00     0.129 HD
HETATM   20  H   UNL     1     -40.550  53.161 -50.069  1.00  0.00     0.169 HD
ENDROOT
BRANCH  10  21
HETATM   21  C   UNL     1     -44.420  60.636 -50.616  1.00  0.00     0.034 A 
HETATM   22  C   UNL     1     -43.633  61.633 -51.213  1.00  0.00     0.051 A 
HETATM   23  C   UNL     1     -43.432  62.826 -50.506  1.00  0.00     0.085 A 
HETATM   24  C   UNL     1     -43.975  62.971 -49.233  1.00  0.00     0.062 A 
HETATM   25  N   UNL     1     -42.746  63.957 -50.877  1.00  0.00    -0.242 NA
HETATM   26  N   UNL     1     -43.584  64.228 -48.842  1.00  0.00    -0.349 N 
HETATM   27  C   UNL     1     -44.722  61.979 -48.598  1.00  0.00     0.033 A 
HETATM   28  H   UNL     1     -43.796  64.667 -47.959  1.00  0.00     0.167 HD
HETATM   29  C   UNL     1     -42.857  64.779 -49.859  1.00  0.00     0.208 A 
HETATM   30  C   UNL     1     -44.932  60.799 -49.321  1.00  0.00     0.019 A 
ENDBRANCH  10  21
TORSDOF 1
ENDMDL
MODEL 6
REMARK VINA RESULT:      -8.4      4.926      8.254
REMARK  1 active torsions:
REMARK  status: ('A' for Active; 'I' for Inactive)
REMARK       I    between atoms: N_9  and  C_10 
REMARK    1  A    between atoms: C_10  and  C_11 
ROOT
HETATM    1  C   UNL     1     -43.639  64.175 -51.550  1.00  0.00     0.002 A 
HETATM    2  C   UNL     1     -43.391  63.508 -52.749  1.00  0.00     0.031 A 
HETATM    3  C   UNL     1     -42.892  62.205 -52.723  1.00  0.00     0.056 A 
HETATM    4  C   UNL     1     -42.650  61.542 -51.509  1.00  0.00     0.036 A 
HETATM    5  N   UNL     1     -42.058  60.269 -51.469  1.00  0.00    -0.273 NA
HETATM    6  C   UNL     1     -42.224  59.434 -52.690  1.00  0.00     0.100 C 
HETATM    7  C   UNL     1     -43.615  58.768 -52.705  1.00  0.00     0.055 C 
HETATM    8  C   UNL     1     -43.758  57.661 -51.669  1.00  0.00     0.128 C 
HETATM    9  N   UNL     1     -42.660  56.705 -51.743  1.00  0.00    -0.348 N 
HETATM   10  C   UNL     1     -42.944  55.382 -51.386  1.00  0.00     0.253 C 
HETATM   11  O   UNL     1     -44.045  55.025 -50.970  1.00  0.00    -0.267 OA
HETATM   12  C   UNL     1     -41.324  57.294 -51.644  1.00  0.00     0.128 C 
HETATM   13  C   UNL     1     -41.116  58.362 -52.707  1.00  0.00     0.055 C 
HETATM   14  C   UNL     1     -42.113  60.283 -53.991  1.00  0.00     0.245 C 
HETATM   15  O   UNL     1     -41.734  59.827 -55.071  1.00  0.00    -0.271 OA
HETATM   16  N   UNL     1     -42.595  61.566 -53.932  1.00  0.00    -0.324 N 
HETATM   17  C   UNL     1     -42.860  62.245 -50.317  1.00  0.00     0.026 A 
HETATM   18  C   UNL     1     -43.366  63.547 -50.336  1.00  0.00     0.002 A 
HETATM   19  H   UNL     1     -42.255  59.784 -50.599  1.00  0.00     0.129 HD
HETATM   20  H   UNL     1     -42.618  62.079 -54.802  1.00  0.00     0.169 HD
ENDROOT
BRANCH  10  21
HETATM   21  C   UNL     1     -41.897  54.340 -51.525  1.00  0.00     0.034 A 
HETATM   22  C   UNL     1     -41.629  53.756 -52.772  1.00  0.00     0.051 A 
HETATM   23  C   UNL     1     -40.639  52.766 -52.838  1.00  0.00     0.085 A 
HETATM   24  C   UNL     1     -39.988  52.366 -51.674  1.00  0.00     0.062 A 
HETATM   25  N   UNL     1     -40.164  52.074 -53.925  1.00  0.00    -0.242 NA
HETATM   26  N   UNL     1     -39.110  51.400 -52.096  1.00  0.00    -0.349 N 
HETATM   27  C   UNL     1     -40.268  52.897 -50.415  1.00  0.00     0.033 A 
HETATM   28  H   UNL     1     -38.474  50.879 -51.511  1.00  0.00     0.167 HD
HETATM   29  C   UNL     1     -39.247  51.264 -53.449  1.00  0.00     0.208 A 
HETATM   30  C   UNL     1     -41.245  53.898 -50.364  1.00  0.00     0.019 A 
ENDBRANCH  10  21
TORSDOF 1
ENDMDL
MODEL 7
REMARK VINA RESULT:      -8.2      1.987      8.819
REMARK  1 active torsions:
REMARK  status: ('A' for Active; 'I' for Inactive)
REMARK       I    between atoms: N_9  and  C_10 
REMARK    1  A    between atoms: C_10  and  C_11 
ROOT
HETATM    1  C   UNL     1     -45.992  59.045 -60.571  1.00  0.00     0.002 A 
HETATM    2  C   UNL     1     -44.794  59.484 -60.010  1.00  0.00     0.031 A 
HETATM    3  C   UNL     1     -44.388  58.984 -58.772  1.00  0.00     0.056 A 
HETATM    4  C   UNL     1     -45.158  58.031 -58.084  1.00  0.00     0.036 A 
HETATM    5  N   UNL     1     -44.809  57.593 -56.795  1.00  0.00    -0.273 NA
HETATM    6  C   UNL     1     -43.370  57.711 -56.432  1.00  0.00     0.100 C 
HETATM    7  C   UNL     1     -42.565  56.539 -57.030  1.00  0.00     0.055 C 
HETATM    8  C   UNL     1     -42.848  55.209 -56.345  1.00  0.00     0.128 C 
HETATM    9  N   UNL     1     -42.732  55.310 -54.896  1.00  0.00    -0.348 N 
HETATM   10  C   UNL     1     -42.313  54.164 -54.210  1.00  0.00     0.253 C 
HETATM   11  O   UNL     1     -42.102  53.090 -54.772  1.00  0.00    -0.267 OA
HETATM   12  C   UNL     1     -43.551  56.357 -54.284  1.00  0.00     0.128 C 
HETATM   13  C   UNL     1     -43.249  57.717 -54.896  1.00  0.00     0.055 C 
HETATM   14  C   UNL     1     -42.740  59.023 -56.985  1.00  0.00     0.245 C 
HETATM   15  O   UNL     1     -41.782  59.592 -56.460  1.00  0.00    -0.271 OA
HETATM   16  N   UNL     1     -43.212  59.473 -58.193  1.00  0.00    -0.324 N 
HETATM   17  C   UNL     1     -46.380  57.639 -58.641  1.00  0.00     0.026 A 
HETATM   18  C   UNL     1     -46.788  58.130 -59.884  1.00  0.00     0.002 A 
HETATM   19  H   UNL     1     -45.227  56.695 -56.573  1.00  0.00     0.129 HD
HETATM   20  H   UNL     1     -42.731  60.263 -58.599  1.00  0.00     0.169 HD
ENDROOT
BRANCH  10  21
HETATM   21  C   UNL     1     -42.085  54.224 -52.746  1.00  0.00     0.034 A 
HETATM   22  C   UNL     1     -40.792  54.100 -52.216  1.00  0.00     0.051 A 
HETATM   23  C   UNL     1     -40.641  54.149 -50.823  1.00  0.00     0.085 A 
HETATM   24  C   UNL     1     -41.766  54.274 -50.014  1.00  0.00     0.062 A 
HETATM   25  N   UNL     1     -39.497  54.093 -50.065  1.00  0.00    -0.242 NA
HETATM   26  N   UNL     1     -41.263  54.281 -48.737  1.00  0.00    -0.349 N 
HETATM   27  C   UNL     1     -43.068  54.352 -50.512  1.00  0.00     0.033 A 
HETATM   28  H   UNL     1     -41.802  54.350 -47.887  1.00  0.00     0.167 HD
HETATM   29  C   UNL     1     -39.903  54.176 -48.819  1.00  0.00     0.208 A 
HETATM   30  C   UNL     1     -43.204  54.321 -51.905  1.00  0.00     0.019 A 
ENDBRANCH  10  21
TORSDOF 1
ENDMDL
MODEL 8
REMARK VINA RESULT:      -8.1      5.901      8.555
REMARK  1 active torsions:
REMARK  status: ('A' for Active; 'I' for Inactive)
REMARK       I    between atoms: N_9  and  C_10 
REMARK    1  A    between atoms: C_10  and  C_11 
ROOT
HETATM    1  C   UNL     1     -41.500  53.158 -54.370  1.00  0.00     0.002 A 
HETATM    2  C   UNL     1     -42.379  54.032 -55.009  1.00  0.00     0.031 A 
HETATM    3  C   UNL     1     -43.009  55.037 -54.274  1.00  0.00     0.056 A 
HETATM    4  C   UNL     1     -42.761  55.199 -52.901  1.00  0.00     0.036 A 
HETATM    5  N   UNL     1     -43.460  56.144 -52.132  1.00  0.00    -0.273 NA
HETATM    6  C   UNL     1     -44.016  57.308 -52.876  1.00  0.00     0.100 C 
HETATM    7  C   UNL     1     -42.916  58.358 -53.135  1.00  0.00     0.055 C 
HETATM    8  C   UNL     1     -42.486  59.097 -51.875  1.00  0.00     0.128 C 
HETATM    9  N   UNL     1     -43.628  59.626 -51.141  1.00  0.00    -0.348 N 
HETATM   10  C   UNL     1     -43.425  60.804 -50.413  1.00  0.00     0.253 C 
HETATM   11  O   UNL     1     -42.330  61.357 -50.330  1.00  0.00    -0.267 OA
HETATM   12  C   UNL     1     -44.653  58.639 -50.800  1.00  0.00     0.128 C 
HETATM   13  C   UNL     1     -45.159  57.923 -52.044  1.00  0.00     0.055 C 
HETATM   14  C   UNL     1     -44.582  56.891 -54.265  1.00  0.00     0.245 C 
HETATM   15  O   UNL     1     -45.486  57.496 -54.842  1.00  0.00    -0.271 OA
HETATM   16  N   UNL     1     -43.931  55.872 -54.915  1.00  0.00    -0.324 N 
HETATM   17  C   UNL     1     -41.912  54.284 -52.268  1.00  0.00     0.026 A 
HETATM   18  C   UNL     1     -41.274  53.279 -53.000  1.00  0.00     0.002 A 
HETATM   19  H   UNL     1     -42.961  56.388 -51.282  1.00  0.00     0.129 HD
HETATM   20  H   UNL     1     -44.233  55.673 -55.858  1.00  0.00     0.169 HD
ENDROOT
BRANCH  10  21
HETATM   21  C   UNL     1     -44.567  61.447 -49.718  1.00  0.00     0.034 A 
HETATM   22  C   UNL     1     -44.710  61.343 -48.326  1.00  0.00     0.051 A 
HETATM   23  C   UNL     1     -45.817  61.959 -47.728  1.00  0.00     0.085 A 
HETATM   24  C   UNL     1     -46.755  62.611 -48.524  1.00  0.00     0.062 A 
HETATM   25  N   UNL     1     -46.164  62.038 -46.401  1.00  0.00    -0.242 NA
HETATM   26  N   UNL     1     -47.686  63.080 -47.631  1.00  0.00    -0.349 N 
HETATM   27  C   UNL     1     -46.661  62.690 -49.914  1.00  0.00     0.033 A 
HETATM   28  H   UNL     1     -48.519  63.600 -47.861  1.00  0.00     0.167 HD
HETATM   29  C   UNL     1     -47.287  62.717 -46.376  1.00  0.00     0.208 A 
HETATM   30  C   UNL     1     -45.541  62.088 -50.498  1.00  0.00     0.019 A 
ENDBRANCH  10  21
TORSDOF 1
ENDMDL
MODEL 9
REMARK VINA RESULT:      -8.1      4.535      5.916
REMARK  1 active torsions:
REMARK  status: ('A' for Active; 'I' for Inactive)
REMARK       I    between atoms: N_9  and  C_10 
REMARK    1  A    between atoms: C_10  and  C_11 
ROOT
HETATM    1  C   UNL     1     -39.484  51.308 -52.608  1.00  0.00     0.002 A 
HETATM    2  C   UNL     1     -40.027  51.914 -53.740  1.00  0.00     0.031 A 
HETATM    3  C   UNL     1     -40.881  53.008 -53.594  1.00  0.00     0.056 A 
HETATM    4  C   UNL     1     -41.192  53.525 -52.325  1.00  0.00     0.036 A 
HETATM    5  N   UNL     1     -42.124  54.563 -52.160  1.00  0.00    -0.273 NA
HETATM    6  C   UNL     1     -42.324  55.453 -53.336  1.00  0.00     0.100 C 
HETATM    7  C   UNL     1     -41.196  56.502 -53.418  1.00  0.00     0.055 C 
HETATM    8  C   UNL     1     -41.287  57.563 -52.330  1.00  0.00     0.128 C 
HETATM    9  N   UNL     1     -42.618  58.152 -52.257  1.00  0.00    -0.348 N 
HETATM   10  C   UNL     1     -42.702  59.486 -51.842  1.00  0.00     0.253 C 
HETATM   11  O   UNL     1     -41.719  60.139 -51.492  1.00  0.00    -0.267 OA
HETATM   12  C   UNL     1     -43.709  57.190 -52.091  1.00  0.00     0.128 C 
HETATM   13  C   UNL     1     -43.693  56.148 -53.199  1.00  0.00     0.055 C 
HETATM   14  C   UNL     1     -42.303  54.658 -54.674  1.00  0.00     0.245 C 
HETATM   15  O   UNL     1     -42.897  55.019 -55.691  1.00  0.00    -0.271 OA
HETATM   16  N   UNL     1     -41.464  53.574 -54.733  1.00  0.00    -0.324 N 
HETATM   17  C   UNL     1     -40.675  52.873 -51.199  1.00  0.00     0.026 A 
HETATM   18  C   UNL     1     -39.815  51.781 -51.339  1.00  0.00     0.002 A 
HETATM   19  H   UNL     1     -41.997  55.052 -51.279  1.00  0.00     0.129 HD
HETATM   20  H   UNL     1     -41.372  53.123 -55.632  1.00  0.00     0.169 HD
ENDROOT
BRANCH  10  21
HETATM   21  C   UNL     1     -44.015  60.175 -51.833  1.00  0.00     0.034 A 
HETATM   22  C   UNL     1     -44.590  60.636 -53.027  1.00  0.00     0.051 A 
HETATM   23  C   UNL     1     -45.826  61.293 -52.953  1.00  0.00     0.085 A 
HETATM   24  C   UNL     1     -46.420  61.504 -51.713  1.00  0.00     0.062 A 
HETATM   25  N   UNL     1     -46.609  61.799 -53.962  1.00  0.00    -0.242 NA
HETATM   26  N   UNL     1     -47.587  62.164 -52.006  1.00  0.00    -0.349 N 
HETATM   27  C   UNL     1     -45.849  61.096 -50.506  1.00  0.00     0.033 A 
HETATM   28  H   UNL     1     -48.272  62.485 -51.338  1.00  0.00     0.167 HD
HETATM   29  C   UNL     1     -47.658  62.313 -53.363  1.00  0.00     0.208 A 
HETATM   30  C   UNL     1     -44.624  60.425 -50.594  1.00  0.00     0.019 A 
ENDBRANCH  10  21
TORSDOF 1
ENDMDL
MODEL 10
REMARK VINA RESULT:      -8.0     15.567     19.527
REMARK  1 active torsions:
REMARK  status: ('A' for Active; 'I' for Inactive)
REMARK       I    between atoms: N_9  and  C_10 
REMARK    1  A    between atoms: C_10  and  C_11 
ROOT
HETATM    1  C   UNL     1     -37.369  39.658 -61.333  1.00  0.00     0.002 A 
HETATM    2  C   UNL     1     -37.597  40.697 -60.431  1.00  0.00     0.031 A 
HETATM    3  C   UNL     1     -37.142  40.582 -59.117  1.00  0.00     0.056 A 
HETATM    4  C   UNL     1     -36.438  39.444 -58.687  1.00  0.00     0.036 A 
HETATM    5  N   UNL     1     -36.060  39.275 -57.345  1.00  0.00    -0.273 NA
HETATM    6  C   UNL     1     -35.908  40.522 -56.547  1.00  0.00     0.100 C 
HETATM    7  C   UNL     1     -34.543  41.182 -56.832  1.00  0.00     0.055 C 
HETATM    8  C   UNL     1     -33.371  40.409 -56.243  1.00  0.00     0.128 C 
HETATM    9  N   UNL     1     -33.580  40.100 -54.833  1.00  0.00    -0.348 N 
HETATM   10  C   UNL     1     -32.441  40.018 -54.024  1.00  0.00     0.253 C 
HETATM   11  O   UNL     1     -31.300  40.139 -54.466  1.00  0.00    -0.267 OA
HETATM   12  C   UNL     1     -34.828  39.394 -54.537  1.00  0.00     0.128 C 
HETATM   13  C   UNL     1     -36.031  40.168 -55.053  1.00  0.00     0.055 C 
HETATM   14  C   UNL     1     -37.002  41.572 -56.901  1.00  0.00     0.245 C 
HETATM   15  O   UNL     1     -37.405  42.428 -56.113  1.00  0.00    -0.271 OA
HETATM   16  N   UNL     1     -37.426  41.605 -58.206  1.00  0.00    -0.324 N 
HETATM   17  C   UNL     1     -36.260  38.393 -59.594  1.00  0.00     0.026 A 
HETATM   18  C   UNL     1     -36.708  38.505 -60.913  1.00  0.00     0.002 A 
HETATM   19  H   UNL     1     -35.293  38.616 -57.246  1.00  0.00     0.129 HD
HETATM   20  H   UNL     1     -38.057  42.353 -58.457  1.00  0.00     0.169 HD
ENDROOT
BRANCH  10  21
HETATM   21  C   UNL     1     -32.588  39.797 -52.565  1.00  0.00     0.034 A 
HETATM   22  C   UNL     1     -32.223  38.573 -51.985  1.00  0.00     0.051 A 
HETATM   23  C   UNL     1     -32.398  38.419 -50.603  1.00  0.00     0.085 A 
HETATM   24  C   UNL     1     -32.962  39.453 -49.862  1.00  0.00     0.062 A 
HETATM   25  N   UNL     1     -32.089  37.351 -49.796  1.00  0.00    -0.242 NA
HETATM   26  N   UNL     1     -32.992  38.969 -48.578  1.00  0.00    -0.349 N 
HETATM   27  C   UNL     1     -33.377  40.663 -50.421  1.00  0.00     0.033 A 
HETATM   28  H   UNL     1     -33.348  39.454 -47.769  1.00  0.00     0.167 HD
HETATM   29  C   UNL     1     -32.455  37.712 -48.588  1.00  0.00     0.208 A 
HETATM   30  C   UNL     1     -33.179  40.812 -51.798  1.00  0.00     0.019 A 
ENDBRANCH  10  21
TORSDOF 1
ENDMDL
