MODEL 1
REMARK VINA RESULT:      -7.7      0.000      0.000
REMARK  6 active torsions:
REMARK  status: ('A' for Active; 'I' for Inactive)
REMARK    1  A    between atoms: C_9  and  C_10 
REMARK    2  A    between atoms: C_10  and  S_11 
REMARK    3  A    between atoms: S_11  and  C_12 
REMARK    4  A    between atoms: C_12  and  C_13 
REMARK       I    between atoms: C_13  and  N_14 
REMARK    5  A    between atoms: N_14  and  N_15 
REMARK       I    between atoms: N_15  and  C_16 
REMARK    6  A    between atoms: C_16  and  C_17 
ROOT
HETATM    1  C   UNL     1     -40.802  58.252 -52.645  1.00  0.00     0.245 C 
HETATM    2  N   UNL     1     -41.645  57.332 -53.235  1.00  0.00    -0.267 N 
HETATM    3  O   UNL     1     -40.279  59.167 -53.284  1.00  0.00    -0.271 OA
HETATM    4  H   UNL     1     -41.856  56.452 -52.756  1.00  0.00     0.190 HD
ENDROOT
BRANCH   1   5
HETATM    5  C   UNL     1     -40.668  58.139 -51.136  1.00  0.00     0.178 C 
BRANCH   5   6
HETATM    6  S   UNL     1     -41.860  56.964 -50.420  1.00  0.00    -0.154 SA
BRANCH   6   7
HETATM    7  C   UNL     1     -40.682  55.684 -49.875  1.00  0.00     0.135 C 
BRANCH   7   8
HETATM    8  C   UNL     1     -40.591  54.593 -50.884  1.00  0.00     0.062 A 
HETATM    9  C   UNL     1     -39.889  53.404 -50.821  1.00  0.00     0.126 A 
HETATM   10  N   UNL     1     -40.104  52.779 -52.023  1.00  0.00    -0.315 N 
HETATM   11  C   UNL     1     -39.603  51.569 -52.494  1.00  0.00     0.105 A 
HETATM   12  C   UNL     1     -40.950  53.602 -52.756  1.00  0.00     0.134 A 
HETATM   13  C   UNL     1     -39.943  51.145 -53.727  1.00  0.00    -0.046 A 
HETATM   14  C   UNL     1     -39.455  49.868 -54.333  1.00  0.00     0.049 C 
HETATM   15  C   UNL     1     -40.838  51.988 -54.524  1.00  0.00     0.012 A 
HETATM   16  C   UNL     1     -41.316  53.157 -54.057  1.00  0.00     0.051 A 
HETATM   17  N   UNL     1     -41.263  54.690 -52.084  1.00  0.00    -0.233 NA
ENDBRANCH   7   8
ENDBRANCH   6   7
ENDBRANCH   5   6
ENDBRANCH   1   5
BRANCH   2  18
HETATM   18  N   UNL     1     -41.740  57.324 -54.631  1.00  0.00    -0.262 N 
HETATM   19  C   UNL     1     -42.805  56.682 -55.227  1.00  0.00     0.286 C 
HETATM   20  O   UNL     1     -43.681  56.122 -54.570  1.00  0.00    -0.264 OA
HETATM   21  H   UNL     1     -40.962  57.725 -55.146  1.00  0.00     0.190 HD
BRANCH  19  22
HETATM   22  C   UNL     1     -42.827  56.716 -56.673  1.00  0.00     0.103 A 
HETATM   23  N   UNL     1     -43.391  55.687 -57.403  1.00  0.00    -0.360 N 
HETATM   24  H   UNL     1     -43.809  54.865 -56.980  1.00  0.00     0.165 HD
HETATM   25  C   UNL     1     -43.311  55.951 -58.744  1.00  0.00     0.107 A 
HETATM   26  C   UNL     1     -42.683  57.162 -58.876  1.00  0.00     0.028 A 
HETATM   27 BR   UNL     1     -42.289  58.057 -60.472  1.00  0.00    -0.050 Br
HETATM   28  C   UNL     1     -42.372  57.652 -57.592  1.00  0.00     0.055 A 
ENDBRANCH  19  22
ENDBRANCH   2  18
TORSDOF 6
ENDMDL
MODEL 2
REMARK VINA RESULT:      -7.5      1.806      2.171
REMARK  6 active torsions:
REMARK  status: ('A' for Active; 'I' for Inactive)
REMARK    1  A    between atoms: C_9  and  C_10 
REMARK    2  A    between atoms: C_10  and  S_11 
REMARK    3  A    between atoms: S_11  and  C_12 
REMARK    4  A    between atoms: C_12  and  C_13 
REMARK       I    between atoms: C_13  and  N_14 
REMARK    5  A    between atoms: N_14  and  N_15 
REMARK       I    between atoms: N_15  and  C_16 
REMARK    6  A    between atoms: C_16  and  C_17 
ROOT
HETATM    1  C   UNL     1     -43.565  56.428 -52.513  1.00  0.00     0.245 C 
HETATM    2  N   UNL     1     -43.684  55.396 -53.420  1.00  0.00    -0.267 N 
HETATM    3  O   UNL     1     -43.831  57.595 -52.806  1.00  0.00    -0.271 OA
HETATM    4  H   UNL     1     -43.224  54.500 -53.238  1.00  0.00     0.190 HD
ENDROOT
BRANCH   1   5
HETATM    5  C   UNL     1     -43.210  56.012 -51.095  1.00  0.00     0.178 C 
BRANCH   5   6
HETATM    6  S   UNL     1     -41.525  56.519 -50.626  1.00  0.00    -0.154 SA
BRANCH   6   7
HETATM    7  C   UNL     1     -41.099  55.091 -49.573  1.00  0.00     0.135 C 
BRANCH   7   8
HETATM    8  C   UNL     1     -40.706  53.924 -50.409  1.00  0.00     0.062 A 
HETATM    9  C   UNL     1     -40.565  53.844 -51.782  1.00  0.00     0.126 A 
HETATM   10  N   UNL     1     -40.231  52.540 -52.047  1.00  0.00    -0.315 N 
HETATM   11  C   UNL     1     -40.005  51.915 -53.270  1.00  0.00     0.105 A 
HETATM   12  C   UNL     1     -40.155  51.889 -50.823  1.00  0.00     0.134 A 
HETATM   13  C   UNL     1     -39.693  50.604 -53.298  1.00  0.00    -0.046 A 
HETATM   14  C   UNL     1     -39.441  49.834 -54.555  1.00  0.00     0.049 C 
HETATM   15  C   UNL     1     -39.601  49.890 -52.023  1.00  0.00     0.012 A 
HETATM   16  C   UNL     1     -39.821  50.507 -50.845  1.00  0.00     0.051 A 
HETATM   17  N   UNL     1     -40.425  52.706 -49.826  1.00  0.00    -0.233 NA
ENDBRANCH   7   8
ENDBRANCH   6   7
ENDBRANCH   5   6
ENDBRANCH   1   5
BRANCH   2  18
HETATM   18  N   UNL     1     -43.919  55.719 -54.761  1.00  0.00    -0.262 N 
HETATM   19  C   UNL     1     -42.857  55.754 -55.638  1.00  0.00     0.286 C 
HETATM   20  O   UNL     1     -41.706  55.502 -55.282  1.00  0.00    -0.264 OA
HETATM   21  H   UNL     1     -44.865  55.999 -55.006  1.00  0.00     0.190 HD
BRANCH  19  22
HETATM   22  C   UNL     1     -43.183  56.101 -57.004  1.00  0.00     0.103 A 
HETATM   23  N   UNL     1     -43.591  55.138 -57.908  1.00  0.00    -0.360 N 
HETATM   24  H   UNL     1     -43.681  54.155 -57.675  1.00  0.00     0.165 HD
HETATM   25  C   UNL     1     -43.860  55.705 -59.124  1.00  0.00     0.107 A 
HETATM   26  C   UNL     1     -43.617  57.048 -59.002  1.00  0.00     0.028 A 
HETATM   27 BR   UNL     1     -43.810  58.353 -60.329  1.00  0.00    -0.050 Br
HETATM   28  C   UNL     1     -43.190  57.311 -57.685  1.00  0.00     0.055 A 
ENDBRANCH  19  22
ENDBRANCH   2  18
TORSDOF 6
ENDMDL
MODEL 3
REMARK VINA RESULT:      -7.2      1.704      1.875
REMARK  6 active torsions:
REMARK  status: ('A' for Active; 'I' for Inactive)
REMARK    1  A    between atoms: C_9  and  C_10 
REMARK    2  A    between atoms: C_10  and  S_11 
REMARK    3  A    between atoms: S_11  and  C_12 
REMARK    4  A    between atoms: C_12  and  C_13 
REMARK       I    between atoms: C_13  and  N_14 
REMARK    5  A    between atoms: N_14  and  N_15 
REMARK       I    between atoms: N_15  and  C_16 
REMARK    6  A    between atoms: C_16  and  C_17 
ROOT
HETATM    1  C   UNL     1     -43.894  56.750 -51.997  1.00  0.00     0.245 C 
HETATM    2  N   UNL     1     -43.560  55.784 -52.924  1.00  0.00    -0.267 N 
HETATM    3  O   UNL     1     -44.684  57.661 -52.253  1.00  0.00    -0.271 OA
HETATM    4  H   UNL     1     -42.729  55.204 -52.780  1.00  0.00     0.190 HD
ENDROOT
BRANCH   1   5
HETATM    5  C   UNL     1     -43.326  56.540 -50.603  1.00  0.00     0.178 C 
BRANCH   5   6
HETATM    6  S   UNL     1     -41.549  56.928 -50.514  1.00  0.00    -0.154 SA
BRANCH   6   7
HETATM    7  C   UNL     1     -40.971  55.367 -49.768  1.00  0.00     0.135 C 
BRANCH   7   8
HETATM    8  C   UNL     1     -40.731  54.342 -50.821  1.00  0.00     0.062 A 
HETATM    9  C   UNL     1     -40.274  53.045 -50.685  1.00  0.00     0.126 A 
HETATM   10  N   UNL     1     -40.187  52.545 -51.960  1.00  0.00    -0.315 N 
HETATM   11  C   UNL     1     -39.752  51.296 -52.393  1.00  0.00     0.105 A 
HETATM   12  C   UNL     1     -40.622  53.550 -52.814  1.00  0.00     0.134 A 
HETATM   13  C   UNL     1     -39.742  51.017 -53.712  1.00  0.00    -0.046 A 
HETATM   14  C   UNL     1     -39.286  49.713 -54.284  1.00  0.00     0.049 C 
HETATM   15  C   UNL     1     -40.199  52.054 -54.639  1.00  0.00     0.012 A 
HETATM   16  C   UNL     1     -40.618  53.260 -54.207  1.00  0.00     0.051 A 
HETATM   17  N   UNL     1     -40.964  54.633 -52.149  1.00  0.00    -0.233 NA
ENDBRANCH   7   8
ENDBRANCH   6   7
ENDBRANCH   5   6
ENDBRANCH   1   5
BRANCH   2  18
HETATM   18  N   UNL     1     -43.975  55.967 -54.247  1.00  0.00    -0.262 N 
HETATM   19  C   UNL     1     -43.054  56.373 -55.189  1.00  0.00     0.286 C 
HETATM   20  O   UNL     1     -41.874  56.573 -54.906  1.00  0.00    -0.264 OA
HETATM   21  H   UNL     1     -44.969  55.872 -54.433  1.00  0.00     0.190 HD
BRANCH  19  22
HETATM   22  C   UNL     1     -43.565  56.543 -56.532  1.00  0.00     0.103 A 
HETATM   23  N   UNL     1     -44.523  57.498 -56.817  1.00  0.00    -0.360 N 
HETATM   24  H   UNL     1     -44.918  58.119 -56.119  1.00  0.00     0.165 HD
HETATM   25  C   UNL     1     -44.833  57.482 -58.150  1.00  0.00     0.107 A 
HETATM   26  C   UNL     1     -44.069  56.503 -58.727  1.00  0.00     0.028 A 
HETATM   27 BR   UNL     1     -44.046  56.010 -60.533  1.00  0.00    -0.050 Br
HETATM   28  C   UNL     1     -43.273  55.904 -57.730  1.00  0.00     0.055 A 
ENDBRANCH  19  22
ENDBRANCH   2  18
TORSDOF 6
ENDMDL
MODEL 4
REMARK VINA RESULT:      -7.1      3.660      6.179
REMARK  6 active torsions:
REMARK  status: ('A' for Active; 'I' for Inactive)
REMARK    1  A    between atoms: C_9  and  C_10 
REMARK    2  A    between atoms: C_10  and  S_11 
REMARK    3  A    between atoms: S_11  and  C_12 
REMARK    4  A    between atoms: C_12  and  C_13 
REMARK       I    between atoms: C_13  and  N_14 
REMARK    5  A    between atoms: N_14  and  N_15 
REMARK       I    between atoms: N_15  and  C_16 
REMARK    6  A    between atoms: C_16  and  C_17 
ROOT
HETATM    1  C   UNL     1     -44.576  58.264 -51.231  1.00  0.00     0.245 C 
HETATM    2  N   UNL     1     -43.229  58.065 -51.013  1.00  0.00    -0.267 N 
HETATM    3  O   UNL     1     -45.421  57.413 -50.943  1.00  0.00    -0.271 OA
HETATM    4  H   UNL     1     -42.542  58.660 -51.485  1.00  0.00     0.190 HD
ENDROOT
BRANCH   1   5
HETATM    5  C   UNL     1     -44.960  59.648 -51.726  1.00  0.00     0.178 C 
BRANCH   5   6
HETATM    6  S   UNL     1     -44.238  60.026 -53.354  1.00  0.00    -0.154 SA
BRANCH   6   7
HETATM    7  C   UNL     1     -44.947  58.631 -54.292  1.00  0.00     0.135 C 
BRANCH   7   8
HETATM    8  C   UNL     1     -43.987  57.494 -54.342  1.00  0.00     0.062 A 
HETATM    9  C   UNL     1     -44.245  56.141 -54.458  1.00  0.00     0.126 A 
HETATM   10  N   UNL     1     -43.022  55.523 -54.411  1.00  0.00    -0.315 N 
HETATM   11  C   UNL     1     -42.713  54.166 -54.455  1.00  0.00     0.105 A 
HETATM   12  C   UNL     1     -42.070  56.527 -54.296  1.00  0.00     0.134 A 
HETATM   13  C   UNL     1     -41.425  53.776 -54.383  1.00  0.00    -0.046 A 
HETATM   14  C   UNL     1     -40.985  52.347 -54.411  1.00  0.00     0.049 C 
HETATM   15  C   UNL     1     -40.396  54.812 -54.266  1.00  0.00     0.012 A 
HETATM   16  C   UNL     1     -40.708  56.122 -54.225  1.00  0.00     0.051 A 
HETATM   17  N   UNL     1     -42.629  57.719 -54.265  1.00  0.00    -0.233 NA
ENDBRANCH   7   8
ENDBRANCH   6   7
ENDBRANCH   5   6
ENDBRANCH   1   5
BRANCH   2  18
HETATM   18  N   UNL     1     -42.801  56.785 -50.646  1.00  0.00    -0.262 N 
HETATM   19  C   UNL     1     -41.454  56.553 -50.467  1.00  0.00     0.286 C 
HETATM   20  O   UNL     1     -40.613  57.439 -50.614  1.00  0.00    -0.264 OA
HETATM   21  H   UNL     1     -43.509  56.057 -50.611  1.00  0.00     0.190 HD
BRANCH  19  22
HETATM   22  C   UNL     1     -41.094  55.203 -50.092  1.00  0.00     0.103 A 
HETATM   23  N   UNL     1     -40.945  54.845 -48.765  1.00  0.00    -0.360 N 
HETATM   24  H   UNL     1     -41.072  55.492 -47.995  1.00  0.00     0.165 HD
HETATM   25  C   UNL     1     -40.623  53.519 -48.660  1.00  0.00     0.107 A 
HETATM   26  C   UNL     1     -40.559  53.020 -49.934  1.00  0.00     0.028 A 
HETATM   27 BR   UNL     1     -40.166  51.261 -50.436  1.00  0.00    -0.050 Br
HETATM   28  C   UNL     1     -40.848  54.060 -50.841  1.00  0.00     0.055 A 
ENDBRANCH  19  22
ENDBRANCH   2  18
TORSDOF 6
ENDMDL
MODEL 5
REMARK VINA RESULT:      -7.1      5.370      7.152
REMARK  6 active torsions:
REMARK  status: ('A' for Active; 'I' for Inactive)
REMARK    1  A    between atoms: C_9  and  C_10 
REMARK    2  A    between atoms: C_10  and  S_11 
REMARK    3  A    between atoms: S_11  and  C_12 
REMARK    4  A    between atoms: C_12  and  C_13 
REMARK       I    between atoms: C_13  and  N_14 
REMARK    5  A    between atoms: N_14  and  N_15 
REMARK       I    between atoms: N_15  and  C_16 
REMARK    6  A    between atoms: C_16  and  C_17 
ROOT
HETATM    1  C   UNL     1     -44.656  57.722 -51.496  1.00  0.00     0.245 C 
HETATM    2  N   UNL     1     -44.529  59.079 -51.283  1.00  0.00    -0.267 N 
HETATM    3  O   UNL     1     -45.054  56.953 -50.618  1.00  0.00    -0.271 OA
HETATM    4  H   UNL     1     -43.967  59.646 -51.923  1.00  0.00     0.190 HD
ENDROOT
BRANCH   1   5
HETATM    5  C   UNL     1     -44.400  57.258 -52.920  1.00  0.00     0.178 C 
BRANCH   5   6
HETATM    6  S   UNL     1     -42.656  57.453 -53.408  1.00  0.00    -0.154 SA
BRANCH   6   7
HETATM    7  C   UNL     1     -41.882  56.671 -51.954  1.00  0.00     0.135 C 
BRANCH   7   8
HETATM    8  C   UNL     1     -41.347  55.327 -52.305  1.00  0.00     0.062 A 
HETATM    9  C   UNL     1     -41.383  54.665 -53.518  1.00  0.00     0.126 A 
HETATM   10  N   UNL     1     -40.794  53.446 -53.295  1.00  0.00    -0.315 N 
HETATM   11  C   UNL     1     -40.600  52.383 -54.173  1.00  0.00     0.105 A 
HETATM   12  C   UNL     1     -40.399  53.430 -51.964  1.00  0.00     0.134 A 
HETATM   13  C   UNL     1     -39.998  51.261 -53.732  1.00  0.00    -0.046 A 
HETATM   14  C   UNL     1     -39.750  50.058 -54.586  1.00  0.00     0.049 C 
HETATM   15  C   UNL     1     -39.566  51.213 -52.333  1.00  0.00     0.012 A 
HETATM   16  C   UNL     1     -39.758  52.250 -51.494  1.00  0.00     0.051 A 
HETATM   17  N   UNL     1     -40.712  54.555 -51.355  1.00  0.00    -0.233 NA
ENDBRANCH   7   8
ENDBRANCH   6   7
ENDBRANCH   5   6
ENDBRANCH   1   5
BRANCH   2  18
HETATM   18  N   UNL     1     -44.662  59.557 -49.975  1.00  0.00    -0.262 N 
HETATM   19  C   UNL     1     -45.233  60.794 -49.768  1.00  0.00     0.286 C 
HETATM   20  O   UNL     1     -45.640  61.490 -50.697  1.00  0.00    -0.264 OA
HETATM   21  H   UNL     1     -44.245  58.996 -49.237  1.00  0.00     0.190 HD
BRANCH  19  22
HETATM   22  C   UNL     1     -45.330  61.217 -48.388  1.00  0.00     0.103 A 
HETATM   23  N   UNL     1     -45.625  60.314 -47.383  1.00  0.00    -0.360 N 
HETATM   24  H   UNL     1     -45.792  59.328 -47.548  1.00  0.00     0.165 HD
HETATM   25  C   UNL     1     -45.643  60.942 -46.166  1.00  0.00     0.107 A 
HETATM   26  C   UNL     1     -45.361  62.263 -46.393  1.00  0.00     0.028 A 
HETATM   27 BR   UNL     1     -45.238  63.624 -45.114  1.00  0.00    -0.050 Br
HETATM   28  C   UNL     1     -45.166  62.452 -47.776  1.00  0.00     0.055 A 
ENDBRANCH  19  22
ENDBRANCH   2  18
TORSDOF 6
ENDMDL
MODEL 6
REMARK VINA RESULT:      -7.0      6.474      8.476
REMARK  6 active torsions:
REMARK  status: ('A' for Active; 'I' for Inactive)
REMARK    1  A    between atoms: C_9  and  C_10 
REMARK    2  A    between atoms: C_10  and  S_11 
REMARK    3  A    between atoms: S_11  and  C_12 
REMARK    4  A    between atoms: C_12  and  C_13 
REMARK       I    between atoms: C_13  and  N_14 
REMARK    5  A    between atoms: N_14  and  N_15 
REMARK       I    between atoms: N_15  and  C_16 
REMARK    6  A    between atoms: C_16  and  C_17 
ROOT
HETATM    1  C   UNL     1     -44.756  59.926 -50.452  1.00  0.00     0.245 C 
HETATM    2  N   UNL     1     -45.452  59.818 -49.266  1.00  0.00    -0.267 N 
HETATM    3  O   UNL     1     -43.740  60.616 -50.557  1.00  0.00    -0.271 OA
HETATM    4  H   UNL     1     -46.411  59.459 -49.267  1.00  0.00     0.190 HD
ENDROOT
BRANCH   1   5
HETATM    5  C   UNL     1     -45.250  59.036 -51.580  1.00  0.00     0.178 C 
BRANCH   5   6
HETATM    6  S   UNL     1     -44.656  57.322 -51.420  1.00  0.00    -0.154 SA
BRANCH   6   7
HETATM    7  C   UNL     1     -44.030  57.095 -53.117  1.00  0.00     0.135 C 
BRANCH   7   8
HETATM    8  C   UNL     1     -43.108  55.928 -53.183  1.00  0.00     0.062 A 
HETATM    9  C   UNL     1     -42.933  55.012 -54.203  1.00  0.00     0.126 A 
HETATM   10  N   UNL     1     -42.001  54.116 -53.744  1.00  0.00    -0.315 N 
HETATM   11  C   UNL     1     -41.486  52.979 -54.361  1.00  0.00     0.105 A 
HETATM   12  C   UNL     1     -41.628  54.541 -52.475  1.00  0.00     0.134 A 
HETATM   13  C   UNL     1     -40.573  52.229 -53.714  1.00  0.00    -0.046 A 
HETATM   14  C   UNL     1     -39.964  50.985 -54.280  1.00  0.00     0.049 C 
HETATM   15  C   UNL     1     -40.155  52.652 -52.376  1.00  0.00     0.012 A 
HETATM   16  C   UNL     1     -40.660  53.755 -51.789  1.00  0.00     0.051 A 
HETATM   17  N   UNL     1     -42.273  55.634 -52.125  1.00  0.00    -0.233 NA
ENDBRANCH   7   8
ENDBRANCH   6   7
ENDBRANCH   5   6
ENDBRANCH   1   5
BRANCH   2  18
HETATM   18  N   UNL     1     -45.106  60.677 -48.217  1.00  0.00    -0.262 N 
HETATM   19  C   UNL     1     -45.714  60.518 -46.990  1.00  0.00     0.286 C 
HETATM   20  O   UNL     1     -46.548  59.637 -46.784  1.00  0.00    -0.264 OA
HETATM   21  H   UNL     1     -44.476  61.443 -48.440  1.00  0.00     0.190 HD
BRANCH  19  22
HETATM   22  C   UNL     1     -45.304  61.448 -45.961  1.00  0.00     0.103 A 
HETATM   23  N   UNL     1     -45.800  62.738 -45.927  1.00  0.00    -0.360 N 
HETATM   24  H   UNL     1     -46.460  63.102 -46.605  1.00  0.00     0.165 HD
HETATM   25  C   UNL     1     -45.284  63.421 -44.858  1.00  0.00     0.107 A 
HETATM   26  C   UNL     1     -44.443  62.560 -44.202  1.00  0.00     0.028 A 
HETATM   27 BR   UNL     1     -43.447  62.917 -42.658  1.00  0.00    -0.050 Br
HETATM   28  C   UNL     1     -44.442  61.325 -44.880  1.00  0.00     0.055 A 
ENDBRANCH  19  22
ENDBRANCH   2  18
TORSDOF 6
ENDMDL
MODEL 7
REMARK VINA RESULT:      -6.9      1.443      1.858
REMARK  6 active torsions:
REMARK  status: ('A' for Active; 'I' for Inactive)
REMARK    1  A    between atoms: C_9  and  C_10 
REMARK    2  A    between atoms: C_10  and  S_11 
REMARK    3  A    between atoms: S_11  and  C_12 
REMARK    4  A    between atoms: C_12  and  C_13 
REMARK       I    between atoms: C_13  and  N_14 
REMARK    5  A    between atoms: N_14  and  N_15 
REMARK       I    between atoms: N_15  and  C_16 
REMARK    6  A    between atoms: C_16  and  C_17 
ROOT
HETATM    1  C   UNL     1     -43.302  57.601 -52.742  1.00  0.00     0.245 C 
HETATM    2  N   UNL     1     -42.225  57.653 -53.602  1.00  0.00    -0.267 N 
HETATM    3  O   UNL     1     -44.447  57.367 -53.137  1.00  0.00    -0.271 OA
HETATM    4  H   UNL     1     -41.351  58.093 -53.300  1.00  0.00     0.190 HD
ENDROOT
BRANCH   1   5
HETATM    5  C   UNL     1     -42.965  57.722 -51.266  1.00  0.00     0.178 C 
BRANCH   5   6
HETATM    6  S   UNL     1     -41.186  57.512 -50.942  1.00  0.00    -0.154 SA
BRANCH   6   7
HETATM    7  C   UNL     1     -41.257  55.902 -50.089  1.00  0.00     0.135 C 
BRANCH   7   8
HETATM    8  C   UNL     1     -40.958  54.794 -51.038  1.00  0.00     0.062 A 
HETATM    9  C   UNL     1     -40.458  53.532 -50.775  1.00  0.00     0.126 A 
HETATM   10  N   UNL     1     -40.327  52.921 -51.996  1.00  0.00    -0.315 N 
HETATM   11  C   UNL     1     -39.839  51.654 -52.303  1.00  0.00     0.105 A 
HETATM   12  C   UNL     1     -40.779  53.826 -52.947  1.00  0.00     0.134 A 
HETATM   13  C   UNL     1     -39.792  51.256 -53.590  1.00  0.00    -0.046 A 
HETATM   14  C   UNL     1     -39.278  49.922 -54.031  1.00  0.00     0.049 C 
HETATM   15  C   UNL     1     -40.266  52.186 -54.618  1.00  0.00     0.012 A 
HETATM   16  C   UNL     1     -40.736  53.409 -54.307  1.00  0.00     0.051 A 
HETATM   17  N   UNL     1     -41.174  54.952 -52.391  1.00  0.00    -0.233 NA
ENDBRANCH   7   8
ENDBRANCH   6   7
ENDBRANCH   5   6
ENDBRANCH   1   5
BRANCH   2  18
HETATM   18  N   UNL     1     -42.476  57.639 -54.978  1.00  0.00    -0.262 N 
HETATM   19  C   UNL     1     -42.124  58.736 -55.735  1.00  0.00     0.286 C 
HETATM   20  O   UNL     1     -41.588  59.726 -55.241  1.00  0.00    -0.264 OA
HETATM   21  H   UNL     1     -42.992  56.843 -55.342  1.00  0.00     0.190 HD
BRANCH  19  22
HETATM   22  C   UNL     1     -42.422  58.644 -57.148  1.00  0.00     0.103 A 
HETATM   23  N   UNL     1     -42.044  57.539 -57.888  1.00  0.00    -0.360 N 
HETATM   24  H   UNL     1     -41.544  56.748 -57.496  1.00  0.00     0.165 HD
HETATM   25  C   UNL     1     -42.449  57.672 -59.188  1.00  0.00     0.107 A 
HETATM   26  C   UNL     1     -43.091  58.878 -59.286  1.00  0.00     0.028 A 
HETATM   27 BR   UNL     1     -43.873  59.616 -60.818  1.00  0.00    -0.050 Br
HETATM   28  C   UNL     1     -43.080  59.499 -58.021  1.00  0.00     0.055 A 
ENDBRANCH  19  22
ENDBRANCH   2  18
TORSDOF 6
ENDMDL
MODEL 8
REMARK VINA RESULT:      -6.9      3.120      6.619
REMARK  6 active torsions:
REMARK  status: ('A' for Active; 'I' for Inactive)
REMARK    1  A    between atoms: C_9  and  C_10 
REMARK    2  A    between atoms: C_10  and  S_11 
REMARK    3  A    between atoms: S_11  and  C_12 
REMARK    4  A    between atoms: C_12  and  C_13 
REMARK       I    between atoms: C_13  and  N_14 
REMARK    5  A    between atoms: N_14  and  N_15 
REMARK       I    between atoms: N_15  and  C_16 
REMARK    6  A    between atoms: C_16  and  C_17 
ROOT
HETATM    1  C   UNL     1     -44.105  56.618 -51.275  1.00  0.00     0.245 C 
HETATM    2  N   UNL     1     -43.034  56.460 -52.130  1.00  0.00    -0.267 N 
HETATM    3  O   UNL     1     -44.414  55.760 -50.445  1.00  0.00    -0.271 OA
HETATM    4  H   UNL     1     -42.954  57.050 -52.963  1.00  0.00     0.190 HD
ENDROOT
BRANCH   1   5
HETATM    5  C   UNL     1     -44.794  57.971 -51.336  1.00  0.00     0.178 C 
BRANCH   5   6
HETATM    6  S   UNL     1     -43.888  59.163 -52.372  1.00  0.00    -0.154 SA
BRANCH   6   7
HETATM    7  C   UNL     1     -45.141  59.390 -53.677  1.00  0.00     0.135 C 
BRANCH   7   8
HETATM    8  C   UNL     1     -44.764  58.631 -54.901  1.00  0.00     0.062 A 
HETATM    9  C   UNL     1     -45.236  58.771 -56.193  1.00  0.00     0.126 A 
HETATM   10  N   UNL     1     -44.600  57.803 -56.929  1.00  0.00    -0.315 N 
HETATM   11  C   UNL     1     -44.734  57.487 -58.278  1.00  0.00     0.105 A 
HETATM   12  C   UNL     1     -43.748  57.134 -56.060  1.00  0.00     0.134 A 
HETATM   13  C   UNL     1     -44.008  56.477 -58.797  1.00  0.00    -0.046 A 
HETATM   14  C   UNL     1     -44.082  56.048 -60.228  1.00  0.00     0.049 C 
HETATM   15  C   UNL     1     -43.096  55.754 -57.908  1.00  0.00     0.012 A 
HETATM   16  C   UNL     1     -42.975  56.071 -56.604  1.00  0.00     0.051 A 
HETATM   17  N   UNL     1     -43.823  57.624 -54.840  1.00  0.00    -0.233 NA
ENDBRANCH   7   8
ENDBRANCH   6   7
ENDBRANCH   5   6
ENDBRANCH   1   5
BRANCH   2  18
HETATM   18  N   UNL     1     -42.414  55.206 -52.189  1.00  0.00    -0.262 N 
HETATM   19  C   UNL     1     -41.315  55.038 -53.004  1.00  0.00     0.286 C 
HETATM   20  O   UNL     1     -40.854  55.959 -53.677  1.00  0.00    -0.264 OA
HETATM   21  H   UNL     1     -42.865  54.448 -51.685  1.00  0.00     0.190 HD
BRANCH  19  22
HETATM   22  C   UNL     1     -40.737  53.713 -53.011  1.00  0.00     0.103 A 
HETATM   23  N   UNL     1     -40.148  53.184 -51.877  1.00  0.00    -0.360 N 
HETATM   24  H   UNL     1     -40.084  53.682 -50.996  1.00  0.00     0.165 HD
HETATM   25  C   UNL     1     -39.692  51.917 -52.122  1.00  0.00     0.107 A 
HETATM   26  C   UNL     1     -39.986  51.630 -53.429  1.00  0.00     0.028 A 
HETATM   27 BR   UNL     1     -39.614  50.041 -54.345  1.00  0.00    -0.050 Br
HETATM   28  C   UNL     1     -40.637  52.743 -53.999  1.00  0.00     0.055 A 
ENDBRANCH  19  22
ENDBRANCH   2  18
TORSDOF 6
ENDMDL
MODEL 9
REMARK VINA RESULT:      -6.8      2.134      2.550
REMARK  6 active torsions:
REMARK  status: ('A' for Active; 'I' for Inactive)
REMARK    1  A    between atoms: C_9  and  C_10 
REMARK    2  A    between atoms: C_10  and  S_11 
REMARK    3  A    between atoms: S_11  and  C_12 
REMARK    4  A    between atoms: C_12  and  C_13 
REMARK       I    between atoms: C_13  and  N_14 
REMARK    5  A    between atoms: N_14  and  N_15 
REMARK       I    between atoms: N_15  and  C_16 
REMARK    6  A    between atoms: C_16  and  C_17 
ROOT
HETATM    1  C   UNL     1     -43.420  58.914 -53.743  1.00  0.00     0.245 C 
HETATM    2  N   UNL     1     -42.665  58.366 -54.759  1.00  0.00    -0.267 N 
HETATM    3  O   UNL     1     -44.613  58.643 -53.593  1.00  0.00    -0.271 OA
HETATM    4  H   UNL     1     -41.770  58.791 -55.017  1.00  0.00     0.190 HD
ENDROOT
BRANCH   1   5
HETATM    5  C   UNL     1     -42.653  59.768 -52.748  1.00  0.00     0.178 C 
BRANCH   5   6
HETATM    6  S   UNL     1     -41.054  59.027 -52.289  1.00  0.00    -0.154 SA
BRANCH   6   7
HETATM    7  C   UNL     1     -41.682  57.590 -51.359  1.00  0.00     0.135 C 
BRANCH   7   8
HETATM    8  C   UNL     1     -41.340  56.323 -52.062  1.00  0.00     0.062 A 
HETATM    9  C   UNL     1     -41.221  55.045 -51.548  1.00  0.00     0.126 A 
HETATM   10  N   UNL     1     -40.847  54.252 -52.602  1.00  0.00    -0.315 N 
HETATM   11  C   UNL     1     -40.563  52.889 -52.628  1.00  0.00     0.105 A 
HETATM   12  C   UNL     1     -40.782  55.075 -53.719  1.00  0.00     0.134 A 
HETATM   13  C   UNL     1     -40.201  52.309 -53.789  1.00  0.00    -0.046 A 
HETATM   14  C   UNL     1     -39.865  50.858 -53.926  1.00  0.00     0.049 C 
HETATM   15  C   UNL     1     -40.127  53.149 -54.987  1.00  0.00     0.012 A 
HETATM   16  C   UNL     1     -40.405  54.467 -54.949  1.00  0.00     0.051 A 
HETATM   17  N   UNL     1     -41.086  56.320 -53.418  1.00  0.00    -0.233 NA
ENDBRANCH   7   8
ENDBRANCH   6   7
ENDBRANCH   5   6
ENDBRANCH   1   5
BRANCH   2  18
HETATM   18  N   UNL     1     -43.327  57.645 -55.760  1.00  0.00    -0.262 N 
HETATM   19  C   UNL     1     -43.274  58.099 -57.060  1.00  0.00     0.286 C 
HETATM   20  O   UNL     1     -42.656  59.116 -57.373  1.00  0.00    -0.264 OA
HETATM   21  H   UNL     1     -43.893  56.857 -55.459  1.00  0.00     0.190 HD
BRANCH  19  22
HETATM   22  C   UNL     1     -43.987  57.300 -58.032  1.00  0.00     0.103 A 
HETATM   23  N   UNL     1     -43.585  56.012 -58.332  1.00  0.00    -0.360 N 
HETATM   24  H   UNL     1     -42.785  55.562 -57.902  1.00  0.00     0.165 HD
HETATM   25  C   UNL     1     -44.421  55.453 -59.261  1.00  0.00     0.107 A 
HETATM   26  C   UNL     1     -45.368  56.396 -59.565  1.00  0.00     0.028 A 
HETATM   27 BR   UNL     1     -46.788  56.216 -60.771  1.00  0.00    -0.050 Br
HETATM   28  C   UNL     1     -45.109  57.556 -58.809  1.00  0.00     0.055 A 
ENDBRANCH  19  22
ENDBRANCH   2  18
TORSDOF 6
ENDMDL
MODEL 10
REMARK VINA RESULT:      -6.5      3.616      7.537
REMARK  6 active torsions:
REMARK  status: ('A' for Active; 'I' for Inactive)
REMARK    1  A    between atoms: C_9  and  C_10 
REMARK    2  A    between atoms: C_10  and  S_11 
REMARK    3  A    between atoms: S_11  and  C_12 
REMARK    4  A    between atoms: C_12  and  C_13 
REMARK       I    between atoms: C_13  and  N_14 
REMARK    5  A    between atoms: N_14  and  N_15 
REMARK       I    between atoms: N_15  and  C_16 
REMARK    6  A    between atoms: C_16  and  C_17 
ROOT
HETATM    1  C   UNL     1     -42.840  56.433 -57.814  1.00  0.00     0.245 C 
HETATM    2  N   UNL     1     -42.001  56.503 -56.721  1.00  0.00    -0.267 N 
HETATM    3  O   UNL     1     -43.405  55.388 -58.143  1.00  0.00    -0.271 OA
HETATM    4  H   UNL     1     -41.357  57.292 -56.622  1.00  0.00     0.190 HD
ENDROOT
BRANCH   1   5
HETATM    5  C   UNL     1     -43.122  57.756 -58.506  1.00  0.00     0.178 C 
BRANCH   5   6
HETATM    6  S   UNL     1     -41.820  58.991 -58.196  1.00  0.00    -0.154 SA
BRANCH   6   7
HETATM    7  C   UNL     1     -42.864  60.311 -57.493  1.00  0.00     0.135 C 
BRANCH   7   8
HETATM    8  C   UNL     1     -42.754  60.329 -56.008  1.00  0.00     0.062 A 
HETATM    9  C   UNL     1     -43.515  61.023 -55.087  1.00  0.00     0.126 A 
HETATM   10  N   UNL     1     -42.976  60.730 -53.860  1.00  0.00    -0.315 N 
HETATM   11  C   UNL     1     -43.343  61.189 -52.599  1.00  0.00     0.105 A 
HETATM   12  C   UNL     1     -41.927  59.848 -54.085  1.00  0.00     0.134 A 
HETATM   13  C   UNL     1     -42.660  60.771 -51.515  1.00  0.00    -0.046 A 
HETATM   14  C   UNL     1     -42.963  61.210 -50.118  1.00  0.00     0.049 C 
HETATM   15  C   UNL     1     -41.550  59.837 -51.718  1.00  0.00     0.012 A 
HETATM   16  C   UNL     1     -41.205  59.398 -52.945  1.00  0.00     0.051 A 
HETATM   17  N   UNL     1     -41.785  59.585 -55.368  1.00  0.00    -0.233 NA
ENDBRANCH   7   8
ENDBRANCH   6   7
ENDBRANCH   5   6
ENDBRANCH   1   5
BRANCH   2  18
HETATM   18  N   UNL     1     -41.629  55.308 -56.097  1.00  0.00    -0.262 N 
HETATM   19  C   UNL     1     -41.047  55.355 -54.848  1.00  0.00     0.286 C 
HETATM   20  O   UNL     1     -40.851  56.417 -54.259  1.00  0.00    -0.264 OA
HETATM   21  H   UNL     1     -41.730  54.455 -56.641  1.00  0.00     0.190 HD
BRANCH  19  22
HETATM   22  C   UNL     1     -40.688  54.077 -54.275  1.00  0.00     0.103 A 
HETATM   23  N   UNL     1     -40.616  53.903 -52.905  1.00  0.00    -0.360 N 
HETATM   24  H   UNL     1     -40.802  54.643 -52.237  1.00  0.00     0.165 HD
HETATM   25  C   UNL     1     -40.277  52.612 -52.604  1.00  0.00     0.107 A 
HETATM   26  C   UNL     1     -40.125  51.950 -53.793  1.00  0.00     0.028 A 
HETATM   27 BR   UNL     1     -39.669  50.150 -54.030  1.00  0.00    -0.050 Br
HETATM   28  C   UNL     1     -40.375  52.851 -54.847  1.00  0.00     0.055 A 
ENDBRANCH  19  22
ENDBRANCH   2  18
TORSDOF 6
ENDMDL
