MODEL 1
REMARK VINA RESULT:      -8.1      0.000      0.000
REMARK  2 active torsions:
REMARK  status: ('A' for Active; 'I' for Inactive)
REMARK    1  A    between atoms: C_2  and  N_3 
REMARK    2  A    between atoms: N_3  and  C_4 
ROOT
HETATM    1  C   UNL     1     -42.871  55.101 -52.796  1.00  0.00     0.143 A 
HETATM    2  N   UNL     1     -43.335  55.937 -51.835  1.00  0.00    -0.223 NA
HETATM    3  C   UNL     1     -42.844  55.854 -50.589  1.00  0.00     0.236 A 
HETATM    4  N   UNL     1     -41.908  55.021 -50.137  1.00  0.00    -0.234 NA
HETATM    5  C   UNL     1     -41.454  54.201 -51.098  1.00  0.00     0.114 A 
HETATM    6  C   UNL     1     -41.873  54.168 -52.430  1.00  0.00     0.053 A 
HETATM    7  S   UNL     1     -40.232  53.045 -50.738  1.00  0.00    -0.073 SA
HETATM    8  C   UNL     1     -40.247  52.509 -52.318  1.00  0.00    -0.008 A 
HETATM    9  C   UNL     1     -41.144  53.157 -53.123  1.00  0.00    -0.028 A 
HETATM   10  C   UNL     1     -41.077  52.626 -54.510  1.00  0.00     0.041 C 
HETATM   11  C   UNL     1     -40.235  51.323 -54.337  1.00  0.00     0.010 C 
HETATM   12  C   UNL     1     -39.449  51.466 -53.001  1.00  0.00     0.047 C 
ENDROOT
BRANCH   1  13
HETATM   13  N   UNL     1     -43.396  55.138 -54.097  1.00  0.00    -0.340 N 
HETATM   14  H   UNL     1     -44.145  54.482 -54.251  1.00  0.00     0.167 HD
BRANCH  13  15
HETATM   15  C   UNL     1     -43.077  55.922 -55.220  1.00  0.00     0.036 A 
HETATM   16  C   UNL     1     -42.762  57.284 -55.150  1.00  0.00     0.032 A 
HETATM   17  C   UNL     1     -42.484  58.028 -56.303  1.00  0.00     0.042 A 
HETATM   18  C   UNL     1     -42.533  57.418 -57.550  1.00  0.00     0.102 A 
HETATM   19  C   UNL     1     -42.884  56.070 -57.646  1.00  0.00     0.104 A 
HETATM   20  O   UNL     1     -42.239  58.200 -58.637  1.00  0.00    -0.346 OA
HETATM   21  C   UNL     1     -43.139  55.328 -56.492  1.00  0.00     0.069 A 
HETATM   22  O   UNL     1     -43.000  55.408 -58.844  1.00  0.00    -0.346 OA
HETATM   23  C   UNL     1     -43.082  56.330 -59.937  1.00  0.00     0.202 C 
HETATM   24  C   UNL     1     -42.018  57.407 -59.808  1.00  0.00     0.202 C 
ENDBRANCH  13  15
ENDBRANCH   1  13
TORSDOF 2
ENDMDL
MODEL 2
REMARK VINA RESULT:      -7.9      0.881      1.742
REMARK  2 active torsions:
REMARK  status: ('A' for Active; 'I' for Inactive)
REMARK    1  A    between atoms: C_2  and  N_3 
REMARK    2  A    between atoms: N_3  and  C_4 
ROOT
HETATM    1  C   UNL     1     -42.873  55.107 -52.768  1.00  0.00     0.143 A 
HETATM    2  N   UNL     1     -43.295  56.000 -51.839  1.00  0.00    -0.223 NA
HETATM    3  C   UNL     1     -42.723  56.018 -50.626  1.00  0.00     0.236 A 
HETATM    4  N   UNL     1     -41.739  55.239 -50.179  1.00  0.00    -0.234 NA
HETATM    5  C   UNL     1     -41.328  54.361 -51.108  1.00  0.00     0.114 A 
HETATM    6  C   UNL     1     -41.831  54.223 -52.403  1.00  0.00     0.053 A 
HETATM    7  S   UNL     1     -40.057  53.258 -50.748  1.00  0.00    -0.073 SA
HETATM    8  C   UNL     1     -40.161  52.610 -52.282  1.00  0.00    -0.008 A 
HETATM    9  C   UNL     1     -41.123  53.179 -53.070  1.00  0.00    -0.028 A 
HETATM   10  C   UNL     1     -41.133  52.551 -54.417  1.00  0.00     0.041 C 
HETATM   11  C   UNL     1     -40.250  51.281 -54.208  1.00  0.00     0.010 C 
HETATM   12  C   UNL     1     -39.383  51.536 -52.940  1.00  0.00     0.047 C 
ENDROOT
BRANCH   1  13
HETATM   13  N   UNL     1     -43.482  55.040 -54.030  1.00  0.00    -0.340 N 
HETATM   14  H   UNL     1     -44.248  54.386 -54.077  1.00  0.00     0.167 HD
BRANCH  13  15
HETATM   15  C   UNL     1     -43.228  55.716 -55.236  1.00  0.00     0.036 A 
HETATM   16  C   UNL     1     -43.071  55.069 -56.468  1.00  0.00     0.032 A 
HETATM   17  C   UNL     1     -42.785  55.787 -57.636  1.00  0.00     0.042 A 
HETATM   18  C   UNL     1     -42.638  57.167 -57.584  1.00  0.00     0.102 A 
HETATM   19  C   UNL     1     -42.750  57.827 -56.359  1.00  0.00     0.104 A 
HETATM   20  O   UNL     1     -42.370  57.809 -58.765  1.00  0.00    -0.346 OA
HETATM   21  C   UNL     1     -43.057  57.110 -55.201  1.00  0.00     0.069 A 
HETATM   22  O   UNL     1     -42.572  59.181 -56.216  1.00  0.00    -0.346 OA
HETATM   23  C   UNL     1     -41.915  59.738 -57.361  1.00  0.00     0.202 C 
HETATM   24  C   UNL     1     -42.548  59.224 -58.644  1.00  0.00     0.202 C 
ENDBRANCH  13  15
ENDBRANCH   1  13
TORSDOF 2
ENDMDL
MODEL 3
REMARK VINA RESULT:      -7.7      2.926      3.549
REMARK  2 active torsions:
REMARK  status: ('A' for Active; 'I' for Inactive)
REMARK    1  A    between atoms: C_2  and  N_3 
REMARK    2  A    between atoms: N_3  and  C_4 
ROOT
HETATM    1  C   UNL     1     -40.608  54.024 -51.528  1.00  0.00     0.143 A 
HETATM    2  N   UNL     1     -40.798  54.555 -50.295  1.00  0.00    -0.223 NA
HETATM    3  C   UNL     1     -40.691  53.772 -49.212  1.00  0.00     0.236 A 
HETATM    4  N   UNL     1     -40.406  52.471 -49.172  1.00  0.00    -0.234 NA
HETATM    5  C   UNL     1     -40.216  51.958 -50.399  1.00  0.00     0.114 A 
HETATM    6  C   UNL     1     -40.300  52.646 -51.611  1.00  0.00     0.053 A 
HETATM    7  S   UNL     1     -39.828  50.292 -50.585  1.00  0.00    -0.073 SA
HETATM    8  C   UNL     1     -39.763  50.474 -52.242  1.00  0.00    -0.008 A 
HETATM    9  C   UNL     1     -40.030  51.742 -52.680  1.00  0.00    -0.028 A 
HETATM   10  C   UNL     1     -39.935  51.813 -54.162  1.00  0.00     0.041 C 
HETATM   11  C   UNL     1     -39.899  50.308 -54.574  1.00  0.00     0.010 C 
HETATM   12  C   UNL     1     -39.452  49.505 -53.317  1.00  0.00     0.047 C 
ENDROOT
BRANCH   1  13
HETATM   13  N   UNL     1     -40.754  54.812 -52.680  1.00  0.00    -0.340 N 
HETATM   14  H   UNL     1     -39.903  54.915 -53.211  1.00  0.00     0.167 HD
BRANCH  13  15
HETATM   15  C   UNL     1     -41.862  55.477 -53.234  1.00  0.00     0.036 A 
HETATM   16  C   UNL     1     -42.942  54.817 -53.832  1.00  0.00     0.032 A 
HETATM   17  C   UNL     1     -44.007  55.528 -54.399  1.00  0.00     0.042 A 
HETATM   18  C   UNL     1     -43.997  56.917 -54.388  1.00  0.00     0.102 A 
HETATM   19  C   UNL     1     -42.911  57.595 -53.833  1.00  0.00     0.104 A 
HETATM   20  O   UNL     1     -45.076  57.550 -54.950  1.00  0.00    -0.346 OA
HETATM   21  C   UNL     1     -41.863  56.882 -53.249  1.00  0.00     0.069 A 
HETATM   22  O   UNL     1     -42.805  58.964 -53.825  1.00  0.00    -0.346 OA
HETATM   23  C   UNL     1     -43.723  59.557 -54.752  1.00  0.00     0.202 C 
HETATM   24  C   UNL     1     -45.104  58.940 -54.607  1.00  0.00     0.202 C 
ENDBRANCH  13  15
ENDBRANCH   1  13
TORSDOF 2
ENDMDL
MODEL 4
REMARK VINA RESULT:      -7.6      3.455      4.348
REMARK  2 active torsions:
REMARK  status: ('A' for Active; 'I' for Inactive)
REMARK    1  A    between atoms: C_2  and  N_3 
REMARK    2  A    between atoms: N_3  and  C_4 
ROOT
HETATM    1  C   UNL     1     -41.761  55.074 -50.001  1.00  0.00     0.143 A 
HETATM    2  N   UNL     1     -41.427  54.925 -48.695  1.00  0.00    -0.223 NA
HETATM    3  C   UNL     1     -40.631  53.912 -48.325  1.00  0.00     0.236 A 
HETATM    4  N   UNL     1     -40.085  52.979 -49.104  1.00  0.00    -0.234 NA
HETATM    5  C   UNL     1     -40.419  53.139 -50.394  1.00  0.00     0.114 A 
HETATM    6  C   UNL     1     -41.240  54.137 -50.923  1.00  0.00     0.053 A 
HETATM    7  S   UNL     1     -39.819  52.048 -51.581  1.00  0.00    -0.073 SA
HETATM    8  C   UNL     1     -40.623  52.883 -52.782  1.00  0.00    -0.008 A 
HETATM    9  C   UNL     1     -41.343  53.957 -52.335  1.00  0.00    -0.028 A 
HETATM   10  C   UNL     1     -42.011  54.646 -53.470  1.00  0.00     0.041 C 
HETATM   11  C   UNL     1     -41.853  53.617 -54.634  1.00  0.00     0.010 C 
HETATM   12  C   UNL     1     -40.680  52.670 -54.245  1.00  0.00     0.047 C 
ENDROOT
BRANCH   1  13
HETATM   13  N   UNL     1     -42.626  56.100 -50.410  1.00  0.00    -0.340 N 
HETATM   14  H   UNL     1     -43.571  55.992 -50.076  1.00  0.00     0.167 HD
BRANCH  13  15
HETATM   15  C   UNL     1     -42.420  57.252 -51.190  1.00  0.00     0.036 A 
HETATM   16  C   UNL     1     -41.170  57.859 -51.359  1.00  0.00     0.032 A 
HETATM   17  C   UNL     1     -41.024  59.026 -52.120  1.00  0.00     0.042 A 
HETATM   18  C   UNL     1     -42.136  59.611 -52.713  1.00  0.00     0.102 A 
HETATM   19  C   UNL     1     -43.398  59.044 -52.524  1.00  0.00     0.104 A 
HETATM   20  O   UNL     1     -41.921  60.744 -53.454  1.00  0.00    -0.346 OA
HETATM   21  C   UNL     1     -43.534  57.869 -51.783  1.00  0.00     0.069 A 
HETATM   22  O   UNL     1     -44.550  59.588 -53.037  1.00  0.00    -0.346 OA
HETATM   23  C   UNL     1     -44.341  60.945 -53.446  1.00  0.00     0.202 C 
HETATM   24  C   UNL     1     -43.062  61.069 -54.256  1.00  0.00     0.202 C 
ENDBRANCH  13  15
ENDBRANCH   1  13
TORSDOF 2
ENDMDL
MODEL 5
REMARK VINA RESULT:      -7.6      1.585      1.696
REMARK  2 active torsions:
REMARK  status: ('A' for Active; 'I' for Inactive)
REMARK    1  A    between atoms: C_2  and  N_3 
REMARK    2  A    between atoms: N_3  and  C_4 
ROOT
HETATM    1  C   UNL     1     -41.580  56.203 -53.821  1.00  0.00     0.143 A 
HETATM    2  N   UNL     1     -42.075  57.265 -53.138  1.00  0.00    -0.223 NA
HETATM    3  C   UNL     1     -42.177  57.208 -51.802  1.00  0.00     0.236 A 
HETATM    4  N   UNL     1     -41.838  56.196 -51.003  1.00  0.00    -0.234 NA
HETATM    5  C   UNL     1     -41.347  55.152 -51.690  1.00  0.00     0.114 A 
HETATM    6  C   UNL     1     -41.188  55.068 -53.074  1.00  0.00     0.053 A 
HETATM    7  S   UNL     1     -40.838  53.736 -50.856  1.00  0.00    -0.073 SA
HETATM    8  C   UNL     1     -40.405  53.020 -52.300  1.00  0.00    -0.008 A 
HETATM    9  C   UNL     1     -40.633  53.795 -53.403  1.00  0.00    -0.028 A 
HETATM   10  C   UNL     1     -40.206  53.085 -54.637  1.00  0.00     0.041 C 
HETATM   11  C   UNL     1     -39.996  51.622 -54.134  1.00  0.00     0.010 C 
HETATM   12  C   UNL     1     -39.806  51.697 -52.590  1.00  0.00     0.047 C 
ENDROOT
BRANCH   1  13
HETATM   13  N   UNL     1     -41.501  56.222 -55.221  1.00  0.00    -0.340 N 
HETATM   14  H   UNL     1     -40.610  55.916 -55.581  1.00  0.00     0.167 HD
BRANCH  13  15
HETATM   15  C   UNL     1     -42.430  56.581 -56.214  1.00  0.00     0.036 A 
HETATM   16  C   UNL     1     -43.173  57.767 -56.186  1.00  0.00     0.032 A 
HETATM   17  C   UNL     1     -44.111  58.062 -57.183  1.00  0.00     0.042 A 
HETATM   18  C   UNL     1     -44.330  57.162 -58.218  1.00  0.00     0.102 A 
HETATM   19  C   UNL     1     -43.629  55.955 -58.243  1.00  0.00     0.104 A 
HETATM   20  O   UNL     1     -45.253  57.519 -59.166  1.00  0.00    -0.346 OA
HETATM   21  C   UNL     1     -42.679  55.676 -57.259  1.00  0.00     0.069 A 
HETATM   22  O   UNL     1     -43.822  54.995 -59.205  1.00  0.00    -0.346 OA
HETATM   23  C   UNL     1     -45.043  55.219 -59.920  1.00  0.00     0.202 C 
HETATM   24  C   UNL     1     -45.166  56.679 -60.323  1.00  0.00     0.202 C 
ENDBRANCH  13  15
ENDBRANCH   1  13
TORSDOF 2
ENDMDL
MODEL 6
REMARK VINA RESULT:      -7.5     14.755     15.989
REMARK  2 active torsions:
REMARK  status: ('A' for Active; 'I' for Inactive)
REMARK    1  A    between atoms: C_2  and  N_3 
REMARK    2  A    between atoms: N_3  and  C_4 
ROOT
HETATM    1  C   UNL     1     -37.122  41.283 -54.237  1.00  0.00     0.143 A 
HETATM    2  N   UNL     1     -38.119  41.120 -53.332  1.00  0.00    -0.223 NA
HETATM    3  C   UNL     1     -37.883  40.446 -52.197  1.00  0.00     0.236 A 
HETATM    4  N   UNL     1     -36.740  39.884 -51.807  1.00  0.00    -0.234 NA
HETATM    5  C   UNL     1     -35.759  40.056 -52.708  1.00  0.00     0.114 A 
HETATM    6  C   UNL     1     -35.859  40.725 -53.929  1.00  0.00     0.053 A 
HETATM    7  S   UNL     1     -34.191  39.417 -52.406  1.00  0.00    -0.073 SA
HETATM    8  C   UNL     1     -33.644  40.021 -53.862  1.00  0.00    -0.008 A 
HETATM    9  C   UNL     1     -34.595  40.684 -54.589  1.00  0.00    -0.028 A 
HETATM   10  C   UNL     1     -34.017  41.198 -55.858  1.00  0.00     0.041 C 
HETATM   11  C   UNL     1     -32.651  40.447 -55.940  1.00  0.00     0.010 C 
HETATM   12  C   UNL     1     -32.307  39.973 -54.497  1.00  0.00     0.047 C 
ENDROOT
BRANCH   1  13
HETATM   13  N   UNL     1     -37.353  41.948 -55.450  1.00  0.00    -0.340 N 
HETATM   14  H   UNL     1     -37.517  42.937 -55.346  1.00  0.00     0.167 HD
BRANCH  13  15
HETATM   15  C   UNL     1     -37.393  41.495 -56.781  1.00  0.00     0.036 A 
HETATM   16  C   UNL     1     -36.999  42.273 -57.876  1.00  0.00     0.032 A 
HETATM   17  C   UNL     1     -37.091  41.787 -59.185  1.00  0.00     0.042 A 
HETATM   18  C   UNL     1     -37.594  40.513 -59.419  1.00  0.00     0.102 A 
HETATM   19  C   UNL     1     -38.030  39.736 -58.345  1.00  0.00     0.104 A 
HETATM   20  O   UNL     1     -37.645  40.095 -60.723  1.00  0.00    -0.346 OA
HETATM   21  C   UNL     1     -37.916  40.217 -57.039  1.00  0.00     0.069 A 
HETATM   22  O   UNL     1     -38.582  38.488 -58.496  1.00  0.00    -0.346 OA
HETATM   23  C   UNL     1     -38.980  38.262 -59.854  1.00  0.00     0.202 C 
HETATM   24  C   UNL     1     -37.879  38.685 -60.812  1.00  0.00     0.202 C 
ENDBRANCH  13  15
ENDBRANCH   1  13
TORSDOF 2
ENDMDL
MODEL 7
REMARK VINA RESULT:      -7.5      3.837      5.759
REMARK  2 active torsions:
REMARK  status: ('A' for Active; 'I' for Inactive)
REMARK    1  A    between atoms: C_2  and  N_3 
REMARK    2  A    between atoms: N_3  and  C_4 
ROOT
HETATM    1  C   UNL     1     -43.174  54.834 -53.110  1.00  0.00     0.143 A 
HETATM    2  N   UNL     1     -43.256  54.529 -54.429  1.00  0.00    -0.223 NA
HETATM    3  C   UNL     1     -42.363  53.691 -54.974  1.00  0.00     0.236 A 
HETATM    4  N   UNL     1     -41.348  53.075 -54.368  1.00  0.00    -0.234 NA
HETATM    5  C   UNL     1     -41.280  53.381 -53.062  1.00  0.00     0.114 A 
HETATM    6  C   UNL     1     -42.131  54.238 -52.362  1.00  0.00     0.053 A 
HETATM    7  S   UNL     1     -40.047  52.691 -52.080  1.00  0.00    -0.073 SA
HETATM    8  C   UNL     1     -40.631  53.504 -50.745  1.00  0.00    -0.008 A 
HETATM    9  C   UNL     1     -41.720  54.292 -50.997  1.00  0.00    -0.028 A 
HETATM   10  C   UNL     1     -42.179  54.963 -49.753  1.00  0.00     0.041 C 
HETATM   11  C   UNL     1     -40.987  54.719 -48.775  1.00  0.00     0.010 C 
HETATM   12  C   UNL     1     -40.182  53.509 -49.334  1.00  0.00     0.047 C 
ENDROOT
BRANCH   1  13
HETATM   13  N   UNL     1     -44.070  55.739 -52.524  1.00  0.00    -0.340 N 
HETATM   14  H   UNL     1     -44.980  55.346 -52.335  1.00  0.00     0.167 HD
BRANCH  13  15
HETATM   15  C   UNL     1     -43.937  57.087 -52.145  1.00  0.00     0.036 A 
HETATM   16  C   UNL     1     -42.817  57.869 -52.449  1.00  0.00     0.032 A 
HETATM   17  C   UNL     1     -42.718  59.198 -52.019  1.00  0.00     0.042 A 
HETATM   18  C   UNL     1     -43.739  59.760 -51.262  1.00  0.00     0.102 A 
HETATM   19  C   UNL     1     -44.847  58.986 -50.914  1.00  0.00     0.104 A 
HETATM   20  O   UNL     1     -43.584  61.069 -50.885  1.00  0.00    -0.346 OA
HETATM   21  C   UNL     1     -44.950  57.668 -51.364  1.00  0.00     0.069 A 
HETATM   22  O   UNL     1     -45.873  59.453 -50.131  1.00  0.00    -0.346 OA
HETATM   23  C   UNL     1     -45.492  60.650 -49.442  1.00  0.00     0.202 C 
HETATM   24  C   UNL     1     -44.810  61.620 -50.392  1.00  0.00     0.202 C 
ENDBRANCH  13  15
ENDBRANCH   1  13
TORSDOF 2
ENDMDL
MODEL 8
REMARK VINA RESULT:      -7.5     14.737     16.537
REMARK  2 active torsions:
REMARK  status: ('A' for Active; 'I' for Inactive)
REMARK    1  A    between atoms: C_2  and  N_3 
REMARK    2  A    between atoms: N_3  and  C_4 
ROOT
HETATM    1  C   UNL     1     -35.407  41.850 -55.341  1.00  0.00     0.143 A 
HETATM    2  N   UNL     1     -36.423  42.235 -54.530  1.00  0.00    -0.223 NA
HETATM    3  C   UNL     1     -36.424  41.860 -53.242  1.00  0.00     0.236 A 
HETATM    4  N   UNL     1     -35.513  41.122 -52.609  1.00  0.00    -0.234 NA
HETATM    5  C   UNL     1     -34.511  40.750 -53.421  1.00  0.00     0.114 A 
HETATM    6  C   UNL     1     -34.380  41.059 -54.776  1.00  0.00     0.053 A 
HETATM    7  S   UNL     1     -33.217  39.794 -52.810  1.00  0.00    -0.073 SA
HETATM    8  C   UNL     1     -32.486  39.792 -54.310  1.00  0.00    -0.008 A 
HETATM    9  C   UNL     1     -33.176  40.476 -55.273  1.00  0.00    -0.028 A 
HETATM   10  C   UNL     1     -32.447  40.433 -56.567  1.00  0.00     0.041 C 
HETATM   11  C   UNL     1     -31.372  39.328 -56.317  1.00  0.00     0.010 C 
HETATM   12  C   UNL     1     -31.216  39.190 -54.774  1.00  0.00     0.047 C 
ENDROOT
BRANCH   1  13
HETATM   13  N   UNL     1     -35.402  42.195 -56.701  1.00  0.00    -0.340 N 
HETATM   14  H   UNL     1     -34.873  43.028 -56.906  1.00  0.00     0.167 HD
BRANCH  13  15
HETATM   15  C   UNL     1     -35.991  41.594 -57.827  1.00  0.00     0.036 A 
HETATM   16  C   UNL     1     -36.865  42.262 -58.693  1.00  0.00     0.032 A 
HETATM   17  C   UNL     1     -37.452  41.608 -59.784  1.00  0.00     0.042 A 
HETATM   18  C   UNL     1     -37.181  40.265 -60.015  1.00  0.00     0.102 A 
HETATM   19  C   UNL     1     -36.344  39.570 -59.141  1.00  0.00     0.104 A 
HETATM   20  O   UNL     1     -37.778  39.690 -61.106  1.00  0.00    -0.346 OA
HETATM   21  C   UNL     1     -35.744  40.232 -58.068  1.00  0.00     0.069 A 
HETATM   22  O   UNL     1     -36.064  38.232 -59.274  1.00  0.00    -0.346 OA
HETATM   23  C   UNL     1     -36.997  37.596 -60.156  1.00  0.00     0.202 C 
HETATM   24  C   UNL     1     -37.191  38.422 -61.417  1.00  0.00     0.202 C 
ENDBRANCH  13  15
ENDBRANCH   1  13
TORSDOF 2
ENDMDL
MODEL 9
REMARK VINA RESULT:      -7.5      3.852      4.998
REMARK  2 active torsions:
REMARK  status: ('A' for Active; 'I' for Inactive)
REMARK    1  A    between atoms: C_2  and  N_3 
REMARK    2  A    between atoms: N_3  and  C_4 
ROOT
HETATM    1  C   UNL     1     -41.112  55.508 -50.788  1.00  0.00     0.143 A 
HETATM    2  N   UNL     1     -41.229  55.695 -49.450  1.00  0.00    -0.223 NA
HETATM    3  C   UNL     1     -40.977  54.677 -48.613  1.00  0.00     0.236 A 
HETATM    4  N   UNL     1     -40.603  53.437 -48.929  1.00  0.00    -0.234 NA
HETATM    5  C   UNL     1     -40.487  53.267 -50.255  1.00  0.00     0.114 A 
HETATM    6  C   UNL     1     -40.722  54.227 -51.241  1.00  0.00     0.053 A 
HETATM    7  S   UNL     1     -40.007  51.741 -50.888  1.00  0.00    -0.073 SA
HETATM    8  C   UNL     1     -40.098  52.337 -52.444  1.00  0.00    -0.008 A 
HETATM    9  C   UNL     1     -40.486  53.647 -52.523  1.00  0.00    -0.028 A 
HETATM   10  C   UNL     1     -40.525  54.094 -53.940  1.00  0.00     0.041 C 
HETATM   11  C   UNL     1     -40.425  52.749 -54.726  1.00  0.00     0.010 C 
HETATM   12  C   UNL     1     -39.818  51.699 -53.750  1.00  0.00     0.047 C 
ENDROOT
BRANCH   1  13
HETATM   13  N   UNL     1     -41.409  56.544 -51.687  1.00  0.00    -0.340 N 
HETATM   14  H   UNL     1     -40.658  56.757 -52.324  1.00  0.00     0.167 HD
BRANCH  13  15
HETATM   15  C   UNL     1     -42.558  57.334 -51.868  1.00  0.00     0.036 A 
HETATM   16  C   UNL     1     -43.583  57.016 -52.767  1.00  0.00     0.032 A 
HETATM   17  C   UNL     1     -44.691  57.855 -52.935  1.00  0.00     0.042 A 
HETATM   18  C   UNL     1     -44.782  59.038 -52.213  1.00  0.00     0.102 A 
HETATM   19  C   UNL     1     -43.752  59.394 -51.341  1.00  0.00     0.104 A 
HETATM   20  O   UNL     1     -45.898  59.806 -52.416  1.00  0.00    -0.346 OA
HETATM   21  C   UNL     1     -42.660  58.543 -51.160  1.00  0.00     0.069 A 
HETATM   22  O   UNL     1     -43.744  60.567 -50.627  1.00  0.00    -0.346 OA
HETATM   23  C   UNL     1     -44.695  61.499 -51.157  1.00  0.00     0.202 C 
HETATM   24  C   UNL     1     -46.029  60.817 -51.410  1.00  0.00     0.202 C 
ENDBRANCH  13  15
ENDBRANCH   1  13
TORSDOF 2
ENDMDL
MODEL 10
REMARK VINA RESULT:      -7.1      2.132      3.730
REMARK  2 active torsions:
REMARK  status: ('A' for Active; 'I' for Inactive)
REMARK    1  A    between atoms: C_2  and  N_3 
REMARK    2  A    between atoms: N_3  and  C_4 
ROOT
HETATM    1  C   UNL     1     -41.390  55.227 -54.961  1.00  0.00     0.143 A 
HETATM    2  N   UNL     1     -40.541  54.243 -55.348  1.00  0.00    -0.223 NA
HETATM    3  C   UNL     1     -40.275  53.228 -54.513  1.00  0.00     0.236 A 
HETATM    4  N   UNL     1     -40.759  53.036 -53.286  1.00  0.00    -0.234 NA
HETATM    5  C   UNL     1     -41.600  54.014 -52.916  1.00  0.00     0.114 A 
HETATM    6  C   UNL     1     -41.965  55.130 -53.673  1.00  0.00     0.053 A 
HETATM    7  S   UNL     1     -42.350  53.966 -51.368  1.00  0.00    -0.073 SA
HETATM    8  C   UNL     1     -43.152  55.393 -51.691  1.00  0.00    -0.008 A 
HETATM    9  C   UNL     1     -42.879  55.926 -52.921  1.00  0.00    -0.028 A 
HETATM   10  C   UNL     1     -43.645  57.182 -53.126  1.00  0.00     0.041 C 
HETATM   11  C   UNL     1     -44.167  57.503 -51.690  1.00  0.00     0.010 C 
HETATM   12  C   UNL     1     -44.116  56.173 -50.882  1.00  0.00     0.047 C 
ENDROOT
BRANCH   1  13
HETATM   13  N   UNL     1     -41.653  56.321 -55.799  1.00  0.00    -0.340 N 
HETATM   14  H   UNL     1     -41.002  57.083 -55.689  1.00  0.00     0.167 HD
BRANCH  13  15
HETATM   15  C   UNL     1     -42.648  56.550 -56.766  1.00  0.00     0.036 A 
HETATM   16  C   UNL     1     -43.474  57.680 -56.774  1.00  0.00     0.032 A 
HETATM   17  C   UNL     1     -44.474  57.845 -57.740  1.00  0.00     0.042 A 
HETATM   18  C   UNL     1     -44.671  56.868 -58.708  1.00  0.00     0.102 A 
HETATM   19  C   UNL     1     -43.886  55.714 -58.694  1.00  0.00     0.104 A 
HETATM   20  O   UNL     1     -45.659  57.098 -59.630  1.00  0.00    -0.346 OA
HETATM   21  C   UNL     1     -42.876  55.565 -57.742  1.00  0.00     0.069 A 
HETATM   22  O   UNL     1     -44.050  54.683 -59.586  1.00  0.00    -0.346 OA
HETATM   23  C   UNL     1     -45.314  54.776 -60.253  1.00  0.00     0.202 C 
HETATM   24  C   UNL     1     -45.561  56.195 -60.737  1.00  0.00     0.202 C 
ENDBRANCH  13  15
ENDBRANCH   1  13
TORSDOF 2
ENDMDL
