MODEL 1
REMARK VINA RESULT:      -9.1      0.000      0.000
REMARK  6 active torsions:
REMARK  status: ('A' for Active; 'I' for Inactive)
REMARK    1  A    between atoms: O_2  and  C_3 
REMARK    2  A    between atoms: C_5  and  N_6 
REMARK    3  A    between atoms: C_7  and  C_9 
REMARK    4  A    between atoms: C_7  and  O_8 
REMARK       I    between atoms: C_9  and  N_10 
REMARK    5  A    between atoms: N_10  and  C_11 
REMARK    6  A    between atoms: C_11  and  C_12 
ROOT
HETATM    1  N   UNL     1     -43.491  56.268 -53.900  1.00  0.00    -0.254 N 
HETATM    2  C   UNL     1     -43.143  55.413 -55.051  1.00  0.00     0.256 C 
HETATM    3  C   UNL     1     -43.296  56.057 -56.416  1.00  0.00     0.034 A 
HETATM    4  C   UNL     1     -43.905  57.297 -56.510  1.00  0.00     0.048 A 
HETATM    5  N   UNL     1     -44.362  57.905 -55.356  1.00  0.00    -0.308 N 
HETATM    6  C   UNL     1     -44.207  57.442 -54.088  1.00  0.00     0.330 C 
HETATM    7  O   UNL     1     -44.748  58.105 -53.202  1.00  0.00    -0.246 OA
HETATM    8  C   UNL     1     -42.888  55.428 -57.607  1.00  0.00     0.015 A 
HETATM    9  C   UNL     1     -43.062  56.053 -58.845  1.00  0.00     0.001 A 
HETATM   10  C   UNL     1     -43.662  57.307 -58.912  1.00  0.00     0.002 A 
HETATM   11  C   UNL     1     -44.093  57.928 -57.742  1.00  0.00     0.030 A 
HETATM   12  H   UNL     1     -44.859  58.785 -55.412  1.00  0.00     0.170 HD
ENDROOT
BRANCH   2  13
HETATM   13  C   UNL     1     -41.634  54.909 -54.934  1.00  0.00     0.279 C 
HETATM   14  N   UNL     1     -41.539  53.554 -54.655  1.00  0.00    -0.352 N 
HETATM   15  H   UNL     1     -42.406  53.023 -54.686  1.00  0.00     0.162 HD
HETATM   16  O   UNL     1     -40.648  55.626 -55.094  1.00  0.00    -0.268 OA
BRANCH  14  17
HETATM   17  C   UNL     1     -40.282  52.847 -54.658  1.00  0.00     0.163 C 
BRANCH  17  18
HETATM   18  C   UNL     1     -40.079  52.102 -53.365  1.00  0.00    -0.019 A 
HETATM   19  C   UNL     1     -39.767  50.734 -53.318  1.00  0.00     0.042 A 
HETATM   20 CL   UNL     1     -39.595  49.792 -54.757  1.00  0.00    -0.084 Cl
HETATM   21  C   UNL     1     -39.599  50.083 -52.091  1.00  0.00     0.024 A 
HETATM   22  C   UNL     1     -39.743  50.788 -50.897  1.00  0.00     0.002 A 
HETATM   23  C   UNL     1     -40.061  52.143 -50.927  1.00  0.00     0.001 A 
HETATM   24  C   UNL     1     -40.233  52.794 -52.150  1.00  0.00     0.010 A 
ENDBRANCH  17  18
ENDBRANCH  14  17
ENDBRANCH   2  13
BRANCH   2  25
HETATM   25  O   UNL     1     -44.078  54.329 -55.060  1.00  0.00    -0.359 OA
HETATM   26  H   UNL     1     -44.134  54.074 -54.123  1.00  0.00     0.213 HD
ENDBRANCH   2  25
BRANCH   1  27
HETATM   27  C   UNL     1     -43.129  55.853 -52.551  1.00  0.00     0.045 A 
HETATM   28  C   UNL     1     -42.197  56.589 -51.798  1.00  0.00     0.066 A 
HETATM   29  C   UNL     1     -41.834  56.226 -50.493  1.00  0.00     0.070 A 
HETATM   30  C   UNL     1     -42.377  55.081 -49.923  1.00  0.00     0.037 A 
HETATM   31  C   UNL     1     -43.287  54.319 -50.652  1.00  0.00     0.005 A 
HETATM   32  C   UNL     1     -43.660  54.703 -51.946  1.00  0.00     0.030 A 
BRANCH  29  33
HETATM   33  O   UNL     1     -40.922  57.054 -49.896  1.00  0.00    -0.356 OA
HETATM   34  C   UNL     1     -40.694  58.304 -50.533  1.00  0.00     0.210 C 
ENDBRANCH  29  33
ENDBRANCH   1  27
TORSDOF 6
ENDMDL
MODEL 2
REMARK VINA RESULT:      -8.6      2.055      2.932
REMARK  6 active torsions:
REMARK  status: ('A' for Active; 'I' for Inactive)
REMARK    1  A    between atoms: O_2  and  C_3 
REMARK    2  A    between atoms: C_5  and  N_6 
REMARK    3  A    between atoms: C_7  and  C_9 
REMARK    4  A    between atoms: C_7  and  O_8 
REMARK       I    between atoms: C_9  and  N_10 
REMARK    5  A    between atoms: N_10  and  C_11 
REMARK    6  A    between atoms: C_11  and  C_12 
ROOT
HETATM    1  N   UNL     1     -42.269  58.217 -55.089  1.00  0.00    -0.254 N 
HETATM    2  C   UNL     1     -42.821  56.910 -55.494  1.00  0.00     0.256 C 
HETATM    3  C   UNL     1     -42.856  56.648 -56.988  1.00  0.00     0.034 A 
HETATM    4  C   UNL     1     -42.554  57.681 -57.859  1.00  0.00     0.048 A 
HETATM    5  N   UNL     1     -42.238  58.921 -57.339  1.00  0.00    -0.308 N 
HETATM    6  C   UNL     1     -42.110  59.232 -56.023  1.00  0.00     0.330 C 
HETATM    7  O   UNL     1     -41.886  60.416 -55.767  1.00  0.00    -0.246 OA
HETATM    8  C   UNL     1     -43.232  55.407 -57.537  1.00  0.00     0.015 A 
HETATM    9  C   UNL     1     -43.264  55.215 -58.920  1.00  0.00     0.001 A 
HETATM   10  C   UNL     1     -42.941  56.264 -59.775  1.00  0.00     0.002 A 
HETATM   11  C   UNL     1     -42.592  57.504 -59.245  1.00  0.00     0.030 A 
HETATM   12  H   UNL     1     -42.069  59.702 -57.961  1.00  0.00     0.170 HD
ENDROOT
BRANCH   2  13
HETATM   13  C   UNL     1     -41.989  55.724 -54.828  1.00  0.00     0.279 C 
HETATM   14  N   UNL     1     -42.738  54.978 -53.930  1.00  0.00    -0.352 N 
HETATM   15  H   UNL     1     -43.735  55.178 -53.896  1.00  0.00     0.162 HD
HETATM   16  O   UNL     1     -40.814  55.468 -55.086  1.00  0.00    -0.268 OA
BRANCH  14  17
HETATM   17  C   UNL     1     -42.245  53.766 -53.325  1.00  0.00     0.163 C 
BRANCH  17  18
HETATM   18  C   UNL     1     -41.561  54.056 -52.015  1.00  0.00    -0.019 A 
HETATM   19  C   UNL     1     -40.453  53.326 -51.558  1.00  0.00     0.042 A 
HETATM   20 CL   UNL     1     -39.784  52.022 -52.475  1.00  0.00    -0.084 Cl
HETATM   21  C   UNL     1     -39.860  53.626 -50.326  1.00  0.00     0.024 A 
HETATM   22  C   UNL     1     -40.368  54.656 -49.536  1.00  0.00     0.002 A 
HETATM   23  C   UNL     1     -41.472  55.383 -49.971  1.00  0.00     0.001 A 
HETATM   24  C   UNL     1     -42.068  55.083 -51.198  1.00  0.00     0.010 A 
ENDBRANCH  17  18
ENDBRANCH  14  17
ENDBRANCH   2  13
BRANCH   2  25
HETATM   25  O   UNL     1     -44.196  56.899 -55.096  1.00  0.00    -0.359 OA
HETATM   26  H   UNL     1     -44.525  56.057 -55.453  1.00  0.00     0.213 HD
ENDBRANCH   2  25
BRANCH   1  27
HETATM   27  C   UNL     1     -41.939  58.465 -53.692  1.00  0.00     0.045 A 
HETATM   28  C   UNL     1     -40.609  58.694 -53.297  1.00  0.00     0.066 A 
HETATM   29  C   UNL     1     -40.256  58.947 -51.964  1.00  0.00     0.070 A 
HETATM   30  C   UNL     1     -41.238  58.939 -50.981  1.00  0.00     0.037 A 
HETATM   31  C   UNL     1     -42.561  58.694 -51.337  1.00  0.00     0.005 A 
HETATM   32  C   UNL     1     -42.907  58.465 -52.675  1.00  0.00     0.030 A 
BRANCH  29  33
HETATM   33  O   UNL     1     -38.920  59.158 -51.750  1.00  0.00    -0.356 OA
HETATM   34  C   UNL     1     -38.544  59.533 -50.431  1.00  0.00     0.210 C 
ENDBRANCH  29  33
ENDBRANCH   1  27
TORSDOF 6
ENDMDL
MODEL 3
REMARK VINA RESULT:      -8.6      2.337      6.370
REMARK  6 active torsions:
REMARK  status: ('A' for Active; 'I' for Inactive)
REMARK    1  A    between atoms: O_2  and  C_3 
REMARK    2  A    between atoms: C_5  and  N_6 
REMARK    3  A    between atoms: C_7  and  C_9 
REMARK    4  A    between atoms: C_7  and  O_8 
REMARK       I    between atoms: C_9  and  N_10 
REMARK    5  A    between atoms: N_10  and  C_11 
REMARK    6  A    between atoms: C_11  and  C_12 
ROOT
HETATM    1  N   UNL     1     -41.705  55.871 -52.447  1.00  0.00    -0.254 N 
HETATM    2  C   UNL     1     -41.302  55.069 -53.618  1.00  0.00     0.256 C 
HETATM    3  C   UNL     1     -40.708  53.708 -53.307  1.00  0.00     0.034 A 
HETATM    4  C   UNL     1     -40.416  53.386 -51.993  1.00  0.00     0.048 A 
HETATM    5  N   UNL     1     -40.669  54.319 -51.005  1.00  0.00    -0.308 N 
HETATM    6  C   UNL     1     -41.264  55.529 -51.176  1.00  0.00     0.330 C 
HETATM    7  O   UNL     1     -41.337  56.240 -50.173  1.00  0.00    -0.246 OA
HETATM    8  C   UNL     1     -40.390  52.767 -54.306  1.00  0.00     0.015 A 
HETATM    9  C   UNL     1     -39.830  51.531 -53.974  1.00  0.00     0.001 A 
HETATM   10  C   UNL     1     -39.561  51.224 -52.644  1.00  0.00     0.002 A 
HETATM   11  C   UNL     1     -39.847  52.157 -51.650  1.00  0.00     0.030 A 
HETATM   12  H   UNL     1     -40.411  54.122 -50.047  1.00  0.00     0.170 HD
ENDROOT
BRANCH   2  13
HETATM   13  C   UNL     1     -42.549  54.828 -54.583  1.00  0.00     0.279 C 
HETATM   14  N   UNL     1     -42.332  55.296 -55.871  1.00  0.00    -0.352 N 
HETATM   15  H   UNL     1     -41.388  55.608 -56.086  1.00  0.00     0.162 HD
HETATM   16  O   UNL     1     -43.591  54.270 -54.246  1.00  0.00    -0.268 OA
BRANCH  14  17
HETATM   17  C   UNL     1     -43.254  55.051 -56.951  1.00  0.00     0.163 C 
BRANCH  17  18
HETATM   18  C   UNL     1     -43.091  56.075 -58.043  1.00  0.00    -0.019 A 
HETATM   19  C   UNL     1     -43.583  55.884 -59.344  1.00  0.00     0.042 A 
HETATM   20 CL   UNL     1     -44.418  54.440 -59.796  1.00  0.00    -0.084 Cl
HETATM   21  C   UNL     1     -43.396  56.861 -60.328  1.00  0.00     0.024 A 
HETATM   22  C   UNL     1     -42.713  58.039 -60.026  1.00  0.00     0.002 A 
HETATM   23  C   UNL     1     -42.212  58.239 -58.743  1.00  0.00     0.001 A 
HETATM   24  C   UNL     1     -42.394  57.264 -57.760  1.00  0.00     0.010 A 
ENDBRANCH  17  18
ENDBRANCH  14  17
ENDBRANCH   2  13
BRANCH   2  25
HETATM   25  O   UNL     1     -40.244  55.782 -54.266  1.00  0.00    -0.359 OA
HETATM   26  H   UNL     1     -39.574  55.872 -53.567  1.00  0.00     0.213 HD
ENDBRANCH   2  25
BRANCH   1  27
HETATM   27  C   UNL     1     -42.525  57.061 -52.629  1.00  0.00     0.045 A 
HETATM   28  C   UNL     1     -42.011  58.197 -53.280  1.00  0.00     0.066 A 
HETATM   29  C   UNL     1     -42.775  59.355 -53.483  1.00  0.00     0.070 A 
HETATM   30  C   UNL     1     -44.075  59.412 -52.996  1.00  0.00     0.037 A 
HETATM   31  C   UNL     1     -44.606  58.312 -52.328  1.00  0.00     0.005 A 
HETATM   32  C   UNL     1     -43.842  57.152 -52.151  1.00  0.00     0.030 A 
BRANCH  29  33
HETATM   33  O   UNL     1     -42.128  60.365 -54.142  1.00  0.00    -0.356 OA
HETATM   34  C   UNL     1     -42.209  60.345 -55.561  1.00  0.00     0.210 C 
ENDBRANCH  29  33
ENDBRANCH   1  27
TORSDOF 6
ENDMDL
MODEL 4
REMARK VINA RESULT:      -8.5      2.727      6.219
REMARK  6 active torsions:
REMARK  status: ('A' for Active; 'I' for Inactive)
REMARK    1  A    between atoms: O_2  and  C_3 
REMARK    2  A    between atoms: C_5  and  N_6 
REMARK    3  A    between atoms: C_7  and  C_9 
REMARK    4  A    between atoms: C_7  and  O_8 
REMARK       I    between atoms: C_9  and  N_10 
REMARK    5  A    between atoms: N_10  and  C_11 
REMARK    6  A    between atoms: C_11  and  C_12 
ROOT
HETATM    1  N   UNL     1     -41.958  55.976 -51.793  1.00  0.00    -0.254 N 
HETATM    2  C   UNL     1     -41.596  55.588 -53.169  1.00  0.00     0.256 C 
HETATM    3  C   UNL     1     -40.956  54.221 -53.319  1.00  0.00     0.034 A 
HETATM    4  C   UNL     1     -40.592  53.520 -52.182  1.00  0.00     0.048 A 
HETATM    5  N   UNL     1     -40.816  54.094 -50.945  1.00  0.00    -0.308 N 
HETATM    6  C   UNL     1     -41.446  55.275 -50.709  1.00  0.00     0.330 C 
HETATM    7  O   UNL     1     -41.485  55.640 -49.533  1.00  0.00    -0.246 OA
HETATM    8  C   UNL     1     -40.667  53.646 -54.572  1.00  0.00     0.015 A 
HETATM    9  C   UNL     1     -40.064  52.389 -54.662  1.00  0.00     0.001 A 
HETATM   10  C   UNL     1     -39.722  51.698 -53.504  1.00  0.00     0.002 A 
HETATM   11  C   UNL     1     -39.979  52.267 -52.259  1.00  0.00     0.030 A 
HETATM   12  H   UNL     1     -40.506  53.622 -50.105  1.00  0.00     0.170 HD
ENDROOT
BRANCH   2  13
HETATM   13  C   UNL     1     -42.884  55.610 -54.110  1.00  0.00     0.279 C 
HETATM   14  N   UNL     1     -42.873  56.662 -55.015  1.00  0.00    -0.352 N 
HETATM   15  H   UNL     1     -42.014  57.205 -55.067  1.00  0.00     0.162 HD
HETATM   16  O   UNL     1     -43.789  54.780 -54.068  1.00  0.00    -0.268 OA
BRANCH  14  17
HETATM   17  C   UNL     1     -43.852  56.794 -56.064  1.00  0.00     0.163 C 
BRANCH  17  18
HETATM   18  C   UNL     1     -43.188  56.903 -57.412  1.00  0.00    -0.019 A 
HETATM   19  C   UNL     1     -42.490  58.048 -57.825  1.00  0.00     0.042 A 
HETATM   20 CL   UNL     1     -42.341  59.437 -56.806  1.00  0.00    -0.084 Cl
HETATM   21  C   UNL     1     -41.900  58.105 -59.092  1.00  0.00     0.024 A 
HETATM   22  C   UNL     1     -42.003  57.021 -59.963  1.00  0.00     0.002 A 
HETATM   23  C   UNL     1     -42.700  55.882 -59.572  1.00  0.00     0.001 A 
HETATM   24  C   UNL     1     -43.293  55.824 -58.309  1.00  0.00     0.010 A 
ENDBRANCH  17  18
ENDBRANCH  14  17
ENDBRANCH   2  13
BRANCH   2  25
HETATM   25  O   UNL     1     -40.588  56.505 -53.607  1.00  0.00    -0.359 OA
HETATM   26  H   UNL     1     -40.894  57.358 -53.255  1.00  0.00     0.213 HD
ENDBRANCH   2  25
BRANCH   1  27
HETATM   27  C   UNL     1     -42.813  57.132 -51.564  1.00  0.00     0.045 A 
HETATM   28  C   UNL     1     -42.279  58.433 -51.567  1.00  0.00     0.066 A 
HETATM   29  C   UNL     1     -43.074  59.570 -51.362  1.00  0.00     0.070 A 
HETATM   30  C   UNL     1     -44.432  59.421 -51.108  1.00  0.00     0.037 A 
HETATM   31  C   UNL     1     -44.986  58.144 -51.078  1.00  0.00     0.005 A 
HETATM   32  C   UNL     1     -44.188  57.017 -51.307  1.00  0.00     0.030 A 
BRANCH  29  33
HETATM   33  O   UNL     1     -42.400  60.761 -51.405  1.00  0.00    -0.356 OA
HETATM   34  C   UNL     1     -42.935  61.817 -50.618  1.00  0.00     0.210 C 
ENDBRANCH  29  33
ENDBRANCH   1  27
TORSDOF 6
ENDMDL
MODEL 5
REMARK VINA RESULT:      -8.3      2.406      6.523
REMARK  6 active torsions:
REMARK  status: ('A' for Active; 'I' for Inactive)
REMARK    1  A    between atoms: O_2  and  C_3 
REMARK    2  A    between atoms: C_5  and  N_6 
REMARK    3  A    between atoms: C_7  and  C_9 
REMARK    4  A    between atoms: C_7  and  O_8 
REMARK       I    between atoms: C_9  and  N_10 
REMARK    5  A    between atoms: N_10  and  C_11 
REMARK    6  A    between atoms: C_11  and  C_12 
ROOT
HETATM    1  N   UNL     1     -41.445  55.719 -52.528  1.00  0.00    -0.254 N 
HETATM    2  C   UNL     1     -41.150  54.917 -53.730  1.00  0.00     0.256 C 
HETATM    3  C   UNL     1     -40.645  53.510 -53.471  1.00  0.00     0.034 A 
HETATM    4  C   UNL     1     -40.324  53.138 -52.177  1.00  0.00     0.048 A 
HETATM    5  N   UNL     1     -40.468  54.065 -51.162  1.00  0.00    -0.308 N 
HETATM    6  C   UNL     1     -40.979  55.318 -51.284  1.00  0.00     0.330 C 
HETATM    7  O   UNL     1     -40.959  56.010 -50.265  1.00  0.00    -0.246 OA
HETATM    8  C   UNL     1     -40.437  52.571 -54.500  1.00  0.00     0.015 A 
HETATM    9  C   UNL     1     -39.956  51.291 -54.217  1.00  0.00     0.001 A 
HETATM   10  C   UNL     1     -39.656  50.936 -52.905  1.00  0.00     0.002 A 
HETATM   11  C   UNL     1     -39.833  51.864 -51.882  1.00  0.00     0.030 A 
HETATM   12  H   UNL     1     -40.186  53.829 -50.218  1.00  0.00     0.170 HD
ENDROOT
BRANCH   2  13
HETATM   13  C   UNL     1     -42.450  54.788 -54.646  1.00  0.00     0.279 C 
HETATM   14  N   UNL     1     -42.240  55.228 -55.945  1.00  0.00    -0.352 N 
HETATM   15  H   UNL     1     -41.280  55.452 -56.197  1.00  0.00     0.162 HD
HETATM   16  O   UNL     1     -43.525  54.329 -54.266  1.00  0.00    -0.268 OA
BRANCH  14  17
HETATM   17  C   UNL     1     -43.220  55.065 -56.988  1.00  0.00     0.163 C 
BRANCH  17  18
HETATM   18  C   UNL     1     -43.199  56.234 -57.938  1.00  0.00    -0.019 A 
HETATM   19  C   UNL     1     -43.739  57.488 -57.612  1.00  0.00     0.042 A 
HETATM   20 CL   UNL     1     -44.481  57.786 -56.079  1.00  0.00    -0.084 Cl
HETATM   21  C   UNL     1     -43.705  58.540 -58.533  1.00  0.00     0.024 A 
HETATM   22  C   UNL     1     -43.134  58.353 -59.791  1.00  0.00     0.002 A 
HETATM   23  C   UNL     1     -42.603  57.113 -60.133  1.00  0.00     0.001 A 
HETATM   24  C   UNL     1     -42.638  56.060 -59.216  1.00  0.00     0.010 A 
ENDBRANCH  17  18
ENDBRANCH  14  17
ENDBRANCH   2  13
BRANCH   2  25
HETATM   25  O   UNL     1     -40.070  55.566 -54.408  1.00  0.00    -0.359 OA
HETATM   26  H   UNL     1     -39.653  56.097 -53.708  1.00  0.00     0.213 HD
ENDBRANCH   2  25
BRANCH   1  27
HETATM   27  C   UNL     1     -42.183  56.969 -52.652  1.00  0.00     0.045 A 
HETATM   28  C   UNL     1     -43.470  57.103 -52.100  1.00  0.00     0.066 A 
HETATM   29  C   UNL     1     -44.204  58.294 -52.190  1.00  0.00     0.070 A 
HETATM   30  C   UNL     1     -43.671  59.378 -52.877  1.00  0.00     0.037 A 
HETATM   31  C   UNL     1     -42.408  59.270 -53.452  1.00  0.00     0.005 A 
HETATM   32  C   UNL     1     -41.673  58.083 -53.338  1.00  0.00     0.030 A 
BRANCH  29  33
HETATM   33  O   UNL     1     -45.435  58.260 -51.592  1.00  0.00    -0.356 OA
HETATM   34  C   UNL     1     -45.766  59.369 -50.766  1.00  0.00     0.210 C 
ENDBRANCH  29  33
ENDBRANCH   1  27
TORSDOF 6
ENDMDL
MODEL 6
REMARK VINA RESULT:      -8.2      2.498      3.473
REMARK  6 active torsions:
REMARK  status: ('A' for Active; 'I' for Inactive)
REMARK    1  A    between atoms: O_2  and  C_3 
REMARK    2  A    between atoms: C_5  and  N_6 
REMARK    3  A    between atoms: C_7  and  C_9 
REMARK    4  A    between atoms: C_7  and  O_8 
REMARK       I    between atoms: C_9  and  N_10 
REMARK    5  A    between atoms: N_10  and  C_11 
REMARK    6  A    between atoms: C_11  and  C_12 
ROOT
HETATM    1  N   UNL     1     -42.373  58.163 -55.110  1.00  0.00    -0.254 N 
HETATM    2  C   UNL     1     -42.981  56.918 -55.616  1.00  0.00     0.256 C 
HETATM    3  C   UNL     1     -42.891  56.707 -57.116  1.00  0.00     0.034 A 
HETATM    4  C   UNL     1     -42.427  57.739 -57.914  1.00  0.00     0.048 A 
HETATM    5  N   UNL     1     -42.069  58.933 -57.318  1.00  0.00    -0.308 N 
HETATM    6  C   UNL     1     -42.046  59.191 -55.984  1.00  0.00     0.330 C 
HETATM    7  O   UNL     1     -41.758  60.345 -55.662  1.00  0.00    -0.246 OA
HETATM    8  C   UNL     1     -43.306  55.518 -57.746  1.00  0.00     0.015 A 
HETATM    9  C   UNL     1     -43.218  55.373 -59.133  1.00  0.00     0.001 A 
HETATM   10  C   UNL     1     -42.733  56.420 -59.912  1.00  0.00     0.002 A 
HETATM   11  C   UNL     1     -42.344  57.610 -59.302  1.00  0.00     0.030 A 
HETATM   12  H   UNL     1     -41.781  59.717 -57.890  1.00  0.00     0.170 HD
ENDROOT
BRANCH   2  13
HETATM   13  C   UNL     1     -42.311  55.649 -54.921  1.00  0.00     0.279 C 
HETATM   14  N   UNL     1     -43.064  55.151 -53.868  1.00  0.00    -0.352 N 
HETATM   15  H   UNL     1     -43.990  55.553 -53.744  1.00  0.00     0.162 HD
HETATM   16  O   UNL     1     -41.253  55.137 -55.281  1.00  0.00    -0.268 OA
BRANCH  14  17
HETATM   17  C   UNL     1     -42.737  53.920 -53.193  1.00  0.00     0.163 C 
BRANCH  17  18
HETATM   18  C   UNL     1     -41.909  54.183 -51.962  1.00  0.00    -0.019 A 
HETATM   19  C   UNL     1     -42.391  54.911 -50.863  1.00  0.00     0.042 A 
HETATM   20 CL   UNL     1     -43.989  55.571 -50.842  1.00  0.00    -0.084 Cl
HETATM   21  C   UNL     1     -41.579  55.139 -49.747  1.00  0.00     0.024 A 
HETATM   22  C   UNL     1     -40.275  54.645 -49.715  1.00  0.00     0.002 A 
HETATM   23  C   UNL     1     -39.780  53.930 -50.801  1.00  0.00     0.001 A 
HETATM   24  C   UNL     1     -40.587  53.704 -51.918  1.00  0.00     0.010 A 
ENDBRANCH  17  18
ENDBRANCH  14  17
ENDBRANCH   2  13
BRANCH   2  25
HETATM   25  O   UNL     1     -44.385  57.005 -55.351  1.00  0.00    -0.359 OA
HETATM   26  H   UNL     1     -44.577  57.951 -55.467  1.00  0.00     0.213 HD
ENDBRANCH   2  25
BRANCH   1  27
HETATM   27  C   UNL     1     -42.162  58.339 -53.680  1.00  0.00     0.045 A 
HETATM   28  C   UNL     1     -43.167  58.893 -52.867  1.00  0.00     0.066 A 
HETATM   29  C   UNL     1     -43.003  59.066 -51.485  1.00  0.00     0.070 A 
HETATM   30  C   UNL     1     -41.798  58.719 -50.888  1.00  0.00     0.037 A 
HETATM   31  C   UNL     1     -40.775  58.187 -51.670  1.00  0.00     0.005 A 
HETATM   32  C   UNL     1     -40.957  57.997 -53.045  1.00  0.00     0.030 A 
BRANCH  29  33
HETATM   33  O   UNL     1     -44.081  59.610 -50.840  1.00  0.00    -0.356 OA
HETATM   34  C   UNL     1     -45.288  58.860 -50.888  1.00  0.00     0.210 C 
ENDBRANCH  29  33
ENDBRANCH   1  27
TORSDOF 6
ENDMDL
MODEL 7
REMARK VINA RESULT:      -8.0      1.291      2.088
REMARK  6 active torsions:
REMARK  status: ('A' for Active; 'I' for Inactive)
REMARK    1  A    between atoms: O_2  and  C_3 
REMARK    2  A    between atoms: C_5  and  N_6 
REMARK    3  A    between atoms: C_7  and  C_9 
REMARK    4  A    between atoms: C_7  and  O_8 
REMARK       I    between atoms: C_9  and  N_10 
REMARK    5  A    between atoms: N_10  and  C_11 
REMARK    6  A    between atoms: C_11  and  C_12 
ROOT
HETATM    1  N   UNL     1     -43.127  56.838 -53.965  1.00  0.00    -0.254 N 
HETATM    2  C   UNL     1     -42.917  55.785 -54.977  1.00  0.00     0.256 C 
HETATM    3  C   UNL     1     -43.258  56.170 -56.404  1.00  0.00     0.034 A 
HETATM    4  C   UNL     1     -43.897  57.375 -56.642  1.00  0.00     0.048 A 
HETATM    5  N   UNL     1     -44.211  58.186 -55.568  1.00  0.00    -0.308 N 
HETATM    6  C   UNL     1     -43.883  57.962 -54.268  1.00  0.00     0.330 C 
HETATM    7  O   UNL     1     -44.316  58.779 -53.454  1.00  0.00    -0.246 OA
HETATM    8  C   UNL     1     -42.998  55.330 -57.504  1.00  0.00     0.015 A 
HETATM    9  C   UNL     1     -43.343  55.719 -58.801  1.00  0.00     0.001 A 
HETATM   10  C   UNL     1     -43.970  56.943 -59.015  1.00  0.00     0.002 A 
HETATM   11  C   UNL     1     -44.256  57.770 -57.932  1.00  0.00     0.030 A 
HETATM   12  H   UNL     1     -44.727  59.044 -55.717  1.00  0.00     0.170 HD
ENDROOT
BRANCH   2  13
HETATM   13  C   UNL     1     -41.397  55.303 -54.970  1.00  0.00     0.279 C 
HETATM   14  N   UNL     1     -41.264  53.941 -54.738  1.00  0.00    -0.352 N 
HETATM   15  H   UNL     1     -42.124  53.398 -54.731  1.00  0.00     0.162 HD
HETATM   16  O   UNL     1     -40.433  56.039 -55.171  1.00  0.00    -0.268 OA
BRANCH  14  17
HETATM   17  C   UNL     1     -40.000  53.256 -54.841  1.00  0.00     0.163 C 
BRANCH  17  18
HETATM   18  C   UNL     1     -39.943  52.084 -53.897  1.00  0.00    -0.019 A 
HETATM   19  C   UNL     1     -39.930  52.233 -52.501  1.00  0.00     0.042 A 
HETATM   20 CL   UNL     1     -39.974  53.791 -51.754  1.00  0.00    -0.084 Cl
HETATM   21  C   UNL     1     -39.864  51.112 -51.665  1.00  0.00     0.024 A 
HETATM   22  C   UNL     1     -39.809  49.831 -52.212  1.00  0.00     0.002 A 
HETATM   23  C   UNL     1     -39.812  49.668 -53.594  1.00  0.00     0.001 A 
HETATM   24  C   UNL     1     -39.874  50.784 -54.431  1.00  0.00     0.010 A 
ENDBRANCH  17  18
ENDBRANCH  14  17
ENDBRANCH   2  13
BRANCH   2  25
HETATM   25  O   UNL     1     -43.825  54.723 -54.665  1.00  0.00    -0.359 OA
HETATM   26  H   UNL     1     -44.511  55.164 -54.136  1.00  0.00     0.213 HD
ENDBRANCH   2  25
BRANCH   1  27
HETATM   27  C   UNL     1     -42.584  56.675 -52.623  1.00  0.00     0.045 A 
HETATM   28  C   UNL     1     -43.139  55.740 -51.731  1.00  0.00     0.066 A 
HETATM   29  C   UNL     1     -42.635  55.549 -50.437  1.00  0.00     0.070 A 
HETATM   30  C   UNL     1     -41.575  56.328 -49.991  1.00  0.00     0.037 A 
HETATM   31  C   UNL     1     -41.018  57.278 -50.843  1.00  0.00     0.005 A 
HETATM   32  C   UNL     1     -41.513  57.446 -52.142  1.00  0.00     0.030 A 
BRANCH  29  33
HETATM   33  O   UNL     1     -43.283  54.593 -49.701  1.00  0.00    -0.356 OA
HETATM   34  C   UNL     1     -44.376  53.943 -50.337  1.00  0.00     0.210 C 
ENDBRANCH  29  33
ENDBRANCH   1  27
TORSDOF 6
ENDMDL
MODEL 8
REMARK VINA RESULT:      -7.8      2.656      6.776
REMARK  6 active torsions:
REMARK  status: ('A' for Active; 'I' for Inactive)
REMARK    1  A    between atoms: O_2  and  C_3 
REMARK    2  A    between atoms: C_5  and  N_6 
REMARK    3  A    between atoms: C_7  and  C_9 
REMARK    4  A    between atoms: C_7  and  O_8 
REMARK       I    between atoms: C_9  and  N_10 
REMARK    5  A    between atoms: N_10  and  C_11 
REMARK    6  A    between atoms: C_11  and  C_12 
ROOT
HETATM    1  N   UNL     1     -42.433  57.970 -53.131  1.00  0.00    -0.254 N 
HETATM    2  C   UNL     1     -41.910  56.627 -53.445  1.00  0.00     0.256 C 
HETATM    3  C   UNL     1     -41.740  55.695 -52.260  1.00  0.00     0.034 A 
HETATM    4  C   UNL     1     -41.901  56.198 -50.980  1.00  0.00     0.048 A 
HETATM    5  N   UNL     1     -42.205  57.537 -50.823  1.00  0.00    -0.308 N 
HETATM    6  C   UNL     1     -42.447  58.428 -51.820  1.00  0.00     0.330 C 
HETATM    7  O   UNL     1     -42.636  59.593 -51.467  1.00  0.00    -0.246 OA
HETATM    8  C   UNL     1     -41.374  54.342 -52.398  1.00  0.00     0.015 A 
HETATM    9  C   UNL     1     -41.214  53.524 -51.277  1.00  0.00     0.001 A 
HETATM   10  C   UNL     1     -41.398  54.050 -50.002  1.00  0.00     0.002 A 
HETATM   11  C   UNL     1     -41.735  55.392 -49.851  1.00  0.00     0.030 A 
HETATM   12  H   UNL     1     -42.272  57.934 -49.895  1.00  0.00     0.170 HD
ENDROOT
BRANCH   2  13
HETATM   13  C   UNL     1     -42.862  55.889 -54.490  1.00  0.00     0.279 C 
HETATM   14  N   UNL     1     -42.306  55.802 -55.758  1.00  0.00    -0.352 N 
HETATM   15  H   UNL     1     -41.334  56.088 -55.847  1.00  0.00     0.162 HD
HETATM   16  O   UNL     1     -43.965  55.421 -54.215  1.00  0.00    -0.268 OA
BRANCH  14  17
HETATM   17  C   UNL     1     -42.915  55.044 -56.822  1.00  0.00     0.163 C 
BRANCH  17  18
HETATM   18  C   UNL     1     -43.152  55.908 -58.034  1.00  0.00    -0.019 A 
HETATM   19  C   UNL     1     -43.835  55.450 -59.171  1.00  0.00     0.042 A 
HETATM   20 CL   UNL     1     -44.459  53.841 -59.270  1.00  0.00    -0.084 Cl
HETATM   21  C   UNL     1     -44.020  56.288 -60.277  1.00  0.00     0.024 A 
HETATM   22  C   UNL     1     -43.522  57.590 -60.261  1.00  0.00     0.002 A 
HETATM   23  C   UNL     1     -42.835  58.055 -59.144  1.00  0.00     0.001 A 
HETATM   24  C   UNL     1     -42.646  57.220 -58.041  1.00  0.00     0.010 A 
ENDBRANCH  17  18
ENDBRANCH  14  17
ENDBRANCH   2  13
BRANCH   2  25
HETATM   25  O   UNL     1     -40.583  56.806 -53.953  1.00  0.00    -0.359 OA
HETATM   26  H   UNL     1     -40.024  56.414 -53.261  1.00  0.00     0.213 HD
ENDBRANCH   2  25
BRANCH   1  27
HETATM   27  C   UNL     1     -42.888  58.842 -54.204  1.00  0.00     0.045 A 
HETATM   28  C   UNL     1     -41.967  59.454 -55.073  1.00  0.00     0.066 A 
HETATM   29  C   UNL     1     -42.369  60.290 -56.125  1.00  0.00     0.070 A 
HETATM   30  C   UNL     1     -43.719  60.565 -56.304  1.00  0.00     0.037 A 
HETATM   31  C   UNL     1     -44.654  59.991 -55.447  1.00  0.00     0.005 A 
HETATM   32  C   UNL     1     -44.244  59.139 -54.414  1.00  0.00     0.030 A 
BRANCH  29  33
HETATM   33  O   UNL     1     -41.348  60.797 -56.882  1.00  0.00    -0.356 OA
HETATM   34  C   UNL     1     -41.723  61.472 -58.076  1.00  0.00     0.210 C 
ENDBRANCH  29  33
ENDBRANCH   1  27
TORSDOF 6
ENDMDL
MODEL 9
REMARK VINA RESULT:      -7.7      3.328      6.479
REMARK  6 active torsions:
REMARK  status: ('A' for Active; 'I' for Inactive)
REMARK    1  A    between atoms: O_2  and  C_3 
REMARK    2  A    between atoms: C_5  and  N_6 
REMARK    3  A    between atoms: C_7  and  C_9 
REMARK    4  A    between atoms: C_7  and  O_8 
REMARK       I    between atoms: C_9  and  N_10 
REMARK    5  A    between atoms: N_10  and  C_11 
REMARK    6  A    between atoms: C_11  and  C_12 
ROOT
HETATM    1  N   UNL     1     -43.025  57.858 -51.982  1.00  0.00    -0.254 N 
HETATM    2  C   UNL     1     -41.790  57.541 -52.723  1.00  0.00     0.256 C 
HETATM    3  C   UNL     1     -41.691  56.126 -53.260  1.00  0.00     0.034 A 
HETATM    4  C   UNL     1     -42.643  55.195 -52.880  1.00  0.00     0.048 A 
HETATM    5  N   UNL     1     -43.648  55.584 -52.016  1.00  0.00    -0.308 N 
HETATM    6  C   UNL     1     -43.860  56.840 -51.543  1.00  0.00     0.330 C 
HETATM    7  O   UNL     1     -44.777  56.962 -50.729  1.00  0.00    -0.246 OA
HETATM    8  C   UNL     1     -40.641  55.697 -54.095  1.00  0.00     0.015 A 
HETATM    9  C   UNL     1     -40.583  54.378 -54.554  1.00  0.00     0.001 A 
HETATM   10  C   UNL     1     -41.561  53.465 -54.170  1.00  0.00     0.002 A 
HETATM   11  C   UNL     1     -42.590  53.871 -53.324  1.00  0.00     0.030 A 
HETATM   12  H   UNL     1     -44.320  54.904 -51.684  1.00  0.00     0.170 HD
ENDROOT
BRANCH   2  13
HETATM   13  C   UNL     1     -41.617  58.528 -53.965  1.00  0.00     0.279 C 
HETATM   14  N   UNL     1     -42.353  58.134 -55.073  1.00  0.00    -0.352 N 
HETATM   15  H   UNL     1     -43.001  57.363 -54.935  1.00  0.00     0.162 HD
HETATM   16  O   UNL     1     -40.928  59.546 -53.952  1.00  0.00    -0.268 OA
BRANCH  14  17
HETATM   17  C   UNL     1     -42.474  58.951 -56.254  1.00  0.00     0.163 C 
BRANCH  17  18
HETATM   18  C   UNL     1     -42.494  58.102 -57.498  1.00  0.00    -0.019 A 
HETATM   19  C   UNL     1     -42.173  58.607 -58.768  1.00  0.00     0.042 A 
HETATM   20 CL   UNL     1     -41.731  60.262 -59.002  1.00  0.00    -0.084 Cl
HETATM   21  C   UNL     1     -42.218  57.780 -59.896  1.00  0.00     0.024 A 
HETATM   22  C   UNL     1     -42.585  56.441 -59.770  1.00  0.00     0.002 A 
HETATM   23  C   UNL     1     -42.915  55.928 -58.519  1.00  0.00     0.001 A 
HETATM   24  C   UNL     1     -42.875  56.752 -57.393  1.00  0.00     0.010 A 
ENDBRANCH  17  18
ENDBRANCH  14  17
ENDBRANCH   2  13
BRANCH   2  25
HETATM   25  O   UNL     1     -40.708  57.647 -51.792  1.00  0.00    -0.359 OA
HETATM   26  H   UNL     1     -39.960  57.253 -52.272  1.00  0.00     0.213 HD
ENDBRANCH   2  25
BRANCH   1  27
HETATM   27  C   UNL     1     -43.345  59.242 -51.661  1.00  0.00     0.045 A 
HETATM   28  C   UNL     1     -44.400  59.906 -52.312  1.00  0.00     0.066 A 
HETATM   29  C   UNL     1     -44.744  61.234 -52.020  1.00  0.00     0.070 A 
HETATM   30  C   UNL     1     -44.003  61.944 -51.083  1.00  0.00     0.037 A 
HETATM   31  C   UNL     1     -42.939  61.320 -50.436  1.00  0.00     0.005 A 
HETATM   32  C   UNL     1     -42.618  59.987 -50.719  1.00  0.00     0.030 A 
BRANCH  29  33
HETATM   33  O   UNL     1     -45.801  61.727 -52.737  1.00  0.00    -0.356 OA
HETATM   34  C   UNL     1     -45.478  62.453 -53.916  1.00  0.00     0.210 C 
ENDBRANCH  29  33
ENDBRANCH   1  27
TORSDOF 6
ENDMDL
MODEL 10
REMARK VINA RESULT:      -7.7      2.755      6.549
REMARK  6 active torsions:
REMARK  status: ('A' for Active; 'I' for Inactive)
REMARK    1  A    between atoms: O_2  and  C_3 
REMARK    2  A    between atoms: C_5  and  N_6 
REMARK    3  A    between atoms: C_7  and  C_9 
REMARK    4  A    between atoms: C_7  and  O_8 
REMARK       I    between atoms: C_9  and  N_10 
REMARK    5  A    between atoms: N_10  and  C_11 
REMARK    6  A    between atoms: C_11  and  C_12 
ROOT
HETATM    1  N   UNL     1     -43.219  55.488 -52.715  1.00  0.00    -0.254 N 
HETATM    2  C   UNL     1     -42.336  54.952 -51.662  1.00  0.00     0.256 C 
HETATM    3  C   UNL     1     -41.354  53.885 -52.110  1.00  0.00     0.034 A 
HETATM    4  C   UNL     1     -41.466  53.363 -53.388  1.00  0.00     0.048 A 
HETATM    5  N   UNL     1     -42.474  53.825 -54.212  1.00  0.00    -0.308 N 
HETATM    6  C   UNL     1     -43.350  54.824 -53.927  1.00  0.00     0.330 C 
HETATM    7  O   UNL     1     -44.216  55.040 -54.776  1.00  0.00    -0.246 OA
HETATM    8  C   UNL     1     -40.358  53.361 -51.265  1.00  0.00     0.015 A 
HETATM    9  C   UNL     1     -39.485  52.368 -51.716  1.00  0.00     0.001 A 
HETATM   10  C   UNL     1     -39.606  51.870 -53.009  1.00  0.00     0.002 A 
HETATM   11  C   UNL     1     -40.605  52.363 -53.846  1.00  0.00     0.030 A 
HETATM   12  H   UNL     1     -42.604  53.416 -55.128  1.00  0.00     0.170 HD
ENDROOT
BRANCH   2  13
HETATM   13  C   UNL     1     -41.484  56.126 -51.000  1.00  0.00     0.279 C 
HETATM   14  N   UNL     1     -40.985  57.023 -51.933  1.00  0.00    -0.352 N 
HETATM   15  H   UNL     1     -41.315  56.913 -52.888  1.00  0.00     0.162 HD
HETATM   16  O   UNL     1     -41.297  56.253 -49.791  1.00  0.00    -0.268 OA
BRANCH  14  17
HETATM   17  C   UNL     1     -40.319  58.245 -51.556  1.00  0.00     0.163 C 
BRANCH  17  18
HETATM   18  C   UNL     1     -41.284  59.401 -51.529  1.00  0.00    -0.019 A 
HETATM   19  C   UNL     1     -41.801  59.986 -52.696  1.00  0.00     0.042 A 
HETATM   20 CL   UNL     1     -41.359  59.421 -54.268  1.00  0.00    -0.084 Cl
HETATM   21  C   UNL     1     -42.687  61.066 -52.619  1.00  0.00     0.024 A 
HETATM   22  C   UNL     1     -43.066  61.576 -51.378  1.00  0.00     0.002 A 
HETATM   23  C   UNL     1     -42.555  61.012 -50.212  1.00  0.00     0.001 A 
HETATM   24  C   UNL     1     -41.668  59.936 -50.286  1.00  0.00     0.010 A 
ENDBRANCH  17  18
ENDBRANCH  14  17
ENDBRANCH   2  13
BRANCH   2  25
HETATM   25  O   UNL     1     -43.177  54.289 -50.713  1.00  0.00    -0.359 OA
HETATM   26  H   UNL     1     -44.068  54.405 -51.084  1.00  0.00     0.213 HD
ENDBRANCH   2  25
BRANCH   1  27
HETATM   27  C   UNL     1     -44.002  56.691 -52.464  1.00  0.00     0.045 A 
HETATM   28  C   UNL     1     -44.347  57.557 -53.517  1.00  0.00     0.066 A 
HETATM   29  C   UNL     1     -45.109  58.716 -53.314  1.00  0.00     0.070 A 
HETATM   30  C   UNL     1     -45.513  59.056 -52.029  1.00  0.00     0.037 A 
HETATM   31  C   UNL     1     -45.168  58.230 -50.963  1.00  0.00     0.005 A 
HETATM   32  C   UNL     1     -44.426  57.062 -51.179  1.00  0.00     0.030 A 
BRANCH  29  33
HETATM   33  O   UNL     1     -45.366  59.443 -54.446  1.00  0.00    -0.356 OA
HETATM   34  C   UNL     1     -44.766  58.973 -55.646  1.00  0.00     0.210 C 
ENDBRANCH  29  33
ENDBRANCH   1  27
TORSDOF 6
ENDMDL
