MODEL 1
REMARK VINA RESULT:      -8.4      0.000      0.000
REMARK  4 active torsions:
REMARK  status: ('A' for Active; 'I' for Inactive)
REMARK    1  A    between atoms: N_2  and  C_4 
REMARK    2  A    between atoms: N_2  and  C_16 
REMARK    3  A    between atoms: C_4  and  C_5 
REMARK    4  A    between atoms: C_16  and  C_17 
ROOT
HETATM    1  C   UNL     1     -43.064  54.752 -54.123  1.00  0.00     0.270 C 
HETATM    2  N   UNL     1     -41.912  55.249 -54.952  1.00  0.00    -0.064 N 
HETATM    3  H   UNL     1     -41.960  54.727 -55.843  1.00  0.00     0.280 HD
ENDROOT
BRANCH   2   4
HETATM    4  C   UNL     1     -42.082  56.709 -55.359  1.00  0.00     0.312 C 
BRANCH   4   5
HETATM    5  C   UNL     1     -42.890  56.843 -56.643  1.00  0.00     0.133 A 
HETATM    6  N   UNL     1     -44.035  57.448 -56.603  1.00  0.00    -0.233 NA
HETATM    7  C   UNL     1     -44.759  57.545 -57.812  1.00  0.00     0.074 A 
HETATM    8  C   UNL     1     -44.285  57.019 -59.018  1.00  0.00     0.061 A 
HETATM    9  C   UNL     1     -45.997  58.191 -57.811  1.00  0.00     0.032 A 
HETATM   10  C   UNL     1     -42.978  56.344 -58.995  1.00  0.00     0.259 A 
HETATM   11  C   UNL     1     -45.016  57.125 -60.205  1.00  0.00     0.019 A 
HETATM   12  O   UNL     1     -42.463  55.849 -59.988  1.00  0.00    -0.267 OA
HETATM   13  N   UNL     1     -42.351  56.301 -57.775  1.00  0.00    -0.309 N 
HETATM   14  H   UNL     1     -41.461  55.817 -57.794  1.00  0.00     0.170 HD
HETATM   15  C   UNL     1     -46.250  57.771 -60.186  1.00  0.00     0.001 A 
HETATM   16  C   UNL     1     -46.739  58.304 -58.992  1.00  0.00     0.002 A 
ENDBRANCH   4   5
ENDBRANCH   2   4
BRANCH   2  17
HETATM   17  C   UNL     1     -40.563  55.008 -54.330  1.00  0.00     0.273 C 
BRANCH  17  18
HETATM   18  C   UNL     1     -40.371  53.636 -53.744  1.00  0.00    -0.028 A 
HETATM   19  C   UNL     1     -40.183  52.517 -54.568  1.00  0.00     0.035 A 
HETATM   20  C   UNL     1     -39.981  51.247 -54.011  1.00  0.00     0.070 A 
HETATM   21 CL   UNL     1     -39.741  49.920 -55.086  1.00  0.00    -0.081 Cl
HETATM   22  C   UNL     1     -39.961  51.077 -52.623  1.00  0.00     0.123 A 
HETATM   23  C   UNL     1     -40.181  52.185 -51.801  1.00  0.00     0.104 A 
HETATM   24  O   UNL     1     -39.731  49.824 -52.114  1.00  0.00    -0.344 OA
HETATM   25  O   UNL     1     -40.213  52.121 -50.431  1.00  0.00    -0.346 OA
HETATM   26  C   UNL     1     -40.371  53.454 -52.353  1.00  0.00     0.048 A 
HETATM   27  C   UNL     1     -40.294  50.768 -49.958  1.00  0.00     0.202 C 
HETATM   28  C   UNL     1     -39.349  49.870 -50.734  1.00  0.00     0.202 C 
ENDBRANCH  17  18
ENDBRANCH   2  17
TORSDOF 4
ENDMDL
MODEL 2
REMARK VINA RESULT:      -8.4      3.304      8.500
REMARK  4 active torsions:
REMARK  status: ('A' for Active; 'I' for Inactive)
REMARK    1  A    between atoms: N_2  and  C_4 
REMARK    2  A    between atoms: N_2  and  C_16 
REMARK    3  A    between atoms: C_4  and  C_5 
REMARK    4  A    between atoms: C_16  and  C_17 
ROOT
HETATM    1  C   UNL     1     -40.247  58.728 -52.828  1.00  0.00     0.270 C 
HETATM    2  N   UNL     1     -41.380  57.852 -53.290  1.00  0.00    -0.064 N 
HETATM    3  H   UNL     1     -40.957  57.162 -53.934  1.00  0.00     0.280 HD
ENDROOT
BRANCH   2   4
HETATM    4  C   UNL     1     -41.957  57.011 -52.157  1.00  0.00     0.312 C 
BRANCH   4   5
HETATM    5  C   UNL     1     -41.351  55.614 -52.129  1.00  0.00     0.133 A 
HETATM    6  N   UNL     1     -41.290  54.935 -53.231  1.00  0.00    -0.233 NA
HETATM    7  C   UNL     1     -40.730  53.641 -53.164  1.00  0.00     0.074 A 
HETATM    8  C   UNL     1     -40.254  53.087 -51.970  1.00  0.00     0.061 A 
HETATM    9  C   UNL     1     -40.644  52.877 -54.330  1.00  0.00     0.032 A 
HETATM   10  C   UNL     1     -40.354  53.910 -50.755  1.00  0.00     0.259 A 
HETATM   11  C   UNL     1     -39.703  51.802 -51.924  1.00  0.00     0.019 A 
HETATM   12  O   UNL     1     -39.969  53.532 -49.658  1.00  0.00    -0.267 OA
HETATM   13  N   UNL     1     -40.911  55.153 -50.922  1.00  0.00    -0.309 N 
HETATM   14  H   UNL     1     -40.976  55.685 -50.062  1.00  0.00     0.170 HD
HETATM   15  C   UNL     1     -39.626  51.054 -53.096  1.00  0.00     0.001 A 
HETATM   16  C   UNL     1     -40.095  51.591 -54.297  1.00  0.00     0.002 A 
ENDBRANCH   4   5
ENDBRANCH   2   4
BRANCH   2  17
HETATM   17  C   UNL     1     -42.462  58.593 -54.029  1.00  0.00     0.273 C 
BRANCH  17  18
HETATM   18  C   UNL     1     -42.471  58.382 -55.518  1.00  0.00    -0.028 A 
HETATM   19  C   UNL     1     -42.134  59.420 -56.398  1.00  0.00     0.035 A 
HETATM   20  C   UNL     1     -42.122  59.206 -57.783  1.00  0.00     0.070 A 
HETATM   21 CL   UNL     1     -41.682  60.525 -58.804  1.00  0.00    -0.081 Cl
HETATM   22  C   UNL     1     -42.444  57.950 -58.309  1.00  0.00     0.123 A 
HETATM   23  C   UNL     1     -42.814  56.924 -57.435  1.00  0.00     0.104 A 
HETATM   24  O   UNL     1     -42.394  57.770 -59.668  1.00  0.00    -0.344 OA
HETATM   25  O   UNL     1     -43.178  55.668 -57.849  1.00  0.00    -0.346 OA
HETATM   26  C   UNL     1     -42.814  57.132 -56.053  1.00  0.00     0.048 A 
HETATM   27  C   UNL     1     -43.424  55.618 -59.262  1.00  0.00     0.202 C 
HETATM   28  C   UNL     1     -42.355  56.383 -60.021  1.00  0.00     0.202 C 
ENDBRANCH  17  18
ENDBRANCH   2  17
TORSDOF 4
ENDMDL
MODEL 3
REMARK VINA RESULT:      -8.1      3.595      5.256
REMARK  4 active torsions:
REMARK  status: ('A' for Active; 'I' for Inactive)
REMARK    1  A    between atoms: N_2  and  C_4 
REMARK    2  A    between atoms: N_2  and  C_16 
REMARK    3  A    between atoms: C_4  and  C_5 
REMARK    4  A    between atoms: C_16  and  C_17 
ROOT
HETATM    1  C   UNL     1     -42.870  55.390 -57.056  1.00  0.00     0.270 C 
HETATM    2  N   UNL     1     -42.949  55.889 -55.639  1.00  0.00    -0.064 N 
HETATM    3  H   UNL     1     -41.977  56.109 -55.364  1.00  0.00     0.280 HD
ENDROOT
BRANCH   2   4
HETATM    4  C   UNL     1     -43.684  57.221 -55.537  1.00  0.00     0.312 C 
BRANCH   4   5
HETATM    5  C   UNL     1     -43.196  58.042 -54.350  1.00  0.00     0.133 A 
HETATM    6  N   UNL     1     -44.063  58.477 -53.491  1.00  0.00    -0.233 NA
HETATM    7  C   UNL     1     -43.575  59.242 -52.410  1.00  0.00     0.074 A 
HETATM    8  C   UNL     1     -42.216  59.535 -52.247  1.00  0.00     0.061 A 
HETATM    9  C   UNL     1     -44.477  59.729 -51.461  1.00  0.00     0.032 A 
HETATM   10  C   UNL     1     -41.285  59.011 -53.258  1.00  0.00     0.259 A 
HETATM   11  C   UNL     1     -41.752  60.295 -51.169  1.00  0.00     0.019 A 
HETATM   12  O   UNL     1     -40.078  59.200 -53.217  1.00  0.00    -0.267 OA
HETATM   13  N   UNL     1     -41.854  58.279 -54.269  1.00  0.00    -0.309 N 
HETATM   14  H   UNL     1     -41.185  57.946 -54.953  1.00  0.00     0.170 HD
HETATM   15  C   UNL     1     -42.665  60.774 -50.232  1.00  0.00     0.001 A 
HETATM   16  C   UNL     1     -44.025  60.491 -50.378  1.00  0.00     0.002 A 
ENDBRANCH   4   5
ENDBRANCH   2   4
BRANCH   2  17
HETATM   17  C   UNL     1     -43.503  54.881 -54.668  1.00  0.00     0.273 C 
BRANCH  17  18
HETATM   18  C   UNL     1     -42.549  54.450 -53.589  1.00  0.00    -0.028 A 
HETATM   19  C   UNL     1     -41.613  53.430 -53.815  1.00  0.00     0.035 A 
HETATM   20  C   UNL     1     -40.712  53.053 -52.810  1.00  0.00     0.070 A 
HETATM   21 CL   UNL     1     -39.578  51.802 -53.167  1.00  0.00    -0.081 Cl
HETATM   22  C   UNL     1     -40.731  53.690 -51.565  1.00  0.00     0.123 A 
HETATM   23  C   UNL     1     -41.685  54.683 -51.327  1.00  0.00     0.104 A 
HETATM   24  O   UNL     1     -39.815  53.314 -50.616  1.00  0.00    -0.344 OA
HETATM   25  O   UNL     1     -41.809  55.345 -50.132  1.00  0.00    -0.346 OA
HETATM   26  C   UNL     1     -42.577  55.069 -52.331  1.00  0.00     0.048 A 
HETATM   27  C   UNL     1     -41.066  54.708 -49.083  1.00  0.00     0.202 C 
HETATM   28  C   UNL     1     -39.692  54.290 -49.576  1.00  0.00     0.202 C 
ENDBRANCH  17  18
ENDBRANCH   2  17
TORSDOF 4
ENDMDL
MODEL 4
REMARK VINA RESULT:      -8.1      2.203      2.801
REMARK  4 active torsions:
REMARK  status: ('A' for Active; 'I' for Inactive)
REMARK    1  A    between atoms: N_2  and  C_4 
REMARK    2  A    between atoms: N_2  and  C_16 
REMARK    3  A    between atoms: C_4  and  C_5 
REMARK    4  A    between atoms: C_16  and  C_17 
ROOT
HETATM    1  C   UNL     1     -41.742  57.618 -53.435  1.00  0.00     0.270 C 
HETATM    2  N   UNL     1     -42.284  56.297 -53.906  1.00  0.00    -0.064 N 
HETATM    3  H   UNL     1     -42.569  55.789 -53.051  1.00  0.00     0.280 HD
ENDROOT
BRANCH   2   4
HETATM    4  C   UNL     1     -43.575  56.454 -54.702  1.00  0.00     0.312 C 
BRANCH   4   5
HETATM    5  C   UNL     1     -43.298  56.768 -56.166  1.00  0.00     0.133 A 
HETATM    6  N   UNL     1     -42.835  57.936 -56.480  1.00  0.00    -0.233 NA
HETATM    7  C   UNL     1     -42.600  58.194 -57.848  1.00  0.00     0.074 A 
HETATM    8  C   UNL     1     -42.847  57.245 -58.847  1.00  0.00     0.061 A 
HETATM    9  C   UNL     1     -42.100  59.441 -58.228  1.00  0.00     0.032 A 
HETATM   10  C   UNL     1     -43.372  55.938 -58.423  1.00  0.00     0.259 A 
HETATM   11  C   UNL     1     -42.607  57.519 -60.197  1.00  0.00     0.019 A 
HETATM   12  O   UNL     1     -43.623  55.033 -59.206  1.00  0.00    -0.267 OA
HETATM   13  N   UNL     1     -43.567  55.784 -57.073  1.00  0.00    -0.309 N 
HETATM   14  H   UNL     1     -43.943  54.877 -56.820  1.00  0.00     0.170 HD
HETATM   15  C   UNL     1     -42.109  58.768 -60.558  1.00  0.00     0.001 A 
HETATM   16  C   UNL     1     -41.855  59.728 -59.575  1.00  0.00     0.002 A 
ENDBRANCH   4   5
ENDBRANCH   2   4
BRANCH   2  17
HETATM   17  C   UNL     1     -41.282  55.455 -54.649  1.00  0.00     0.273 C 
BRANCH  17  18
HETATM   18  C   UNL     1     -40.800  54.240 -53.906  1.00  0.00    -0.028 A 
HETATM   19  C   UNL     1     -40.610  54.268 -52.517  1.00  0.00     0.035 A 
HETATM   20  C   UNL     1     -40.184  53.122 -51.831  1.00  0.00     0.070 A 
HETATM   21 CL   UNL     1     -39.986  53.228 -50.121  1.00  0.00    -0.081 Cl
HETATM   22  C   UNL     1     -39.945  51.930 -52.523  1.00  0.00     0.123 A 
HETATM   23  C   UNL     1     -40.101  51.910 -53.911  1.00  0.00     0.104 A 
HETATM   24  O   UNL     1     -39.557  50.822 -51.815  1.00  0.00    -0.344 OA
HETATM   25  O   UNL     1     -39.862  50.803 -54.686  1.00  0.00    -0.346 OA
HETATM   26  C   UNL     1     -40.537  53.047 -54.596  1.00  0.00     0.048 A 
HETATM   27  C   UNL     1     -39.158  49.782 -53.964  1.00  0.00     0.202 C 
HETATM   28  C   UNL     1     -39.734  49.617 -52.569  1.00  0.00     0.202 C 
ENDBRANCH  17  18
ENDBRANCH   2  17
TORSDOF 4
ENDMDL
MODEL 5
REMARK VINA RESULT:      -8.1      3.025      8.683
REMARK  4 active torsions:
REMARK  status: ('A' for Active; 'I' for Inactive)
REMARK    1  A    between atoms: N_2  and  C_4 
REMARK    2  A    between atoms: N_2  and  C_16 
REMARK    3  A    between atoms: C_4  and  C_5 
REMARK    4  A    between atoms: C_16  and  C_17 
ROOT
HETATM    1  C   UNL     1     -41.154  58.174 -53.380  1.00  0.00     0.270 C 
HETATM    2  N   UNL     1     -42.395  57.346 -53.572  1.00  0.00    -0.064 N 
HETATM    3  H   UNL     1     -42.160  56.654 -54.304  1.00  0.00     0.280 HD
ENDROOT
BRANCH   2   4
HETATM    4  C   UNL     1     -42.722  56.504 -52.344  1.00  0.00     0.312 C 
BRANCH   4   5
HETATM    5  C   UNL     1     -41.874  55.239 -52.288  1.00  0.00     0.133 A 
HETATM    6  N   UNL     1     -41.826  54.470 -53.329  1.00  0.00    -0.233 NA
HETATM    7  C   UNL     1     -41.038  53.302 -53.236  1.00  0.00     0.074 A 
HETATM    8  C   UNL     1     -40.327  52.964 -52.079  1.00  0.00     0.061 A 
HETATM    9  C   UNL     1     -40.959  52.448 -54.338  1.00  0.00     0.032 A 
HETATM   10  C   UNL     1     -40.425  53.880 -50.932  1.00  0.00     0.259 A 
HETATM   11  C   UNL     1     -39.552  51.802 -52.006  1.00  0.00     0.019 A 
HETATM   12  O   UNL     1     -39.846  53.688 -49.873  1.00  0.00    -0.267 OA
HETATM   13  N   UNL     1     -41.213  54.987 -51.120  1.00  0.00    -0.309 N 
HETATM   14  H   UNL     1     -41.268  55.587 -50.305  1.00  0.00     0.170 HD
HETATM   15  C   UNL     1     -39.484  50.960 -53.114  1.00  0.00     0.001 A 
HETATM   16  C   UNL     1     -40.186  51.283 -54.278  1.00  0.00     0.002 A 
ENDBRANCH   4   5
ENDBRANCH   2   4
BRANCH   2  17
HETATM   17  C   UNL     1     -43.591  58.137 -54.028  1.00  0.00     0.273 C 
BRANCH  17  18
HETATM   18  C   UNL     1     -44.026  57.869 -55.443  1.00  0.00    -0.028 A 
HETATM   19  C   UNL     1     -45.271  58.310 -55.913  1.00  0.00     0.035 A 
HETATM   20  C   UNL     1     -45.656  58.076 -57.241  1.00  0.00     0.070 A 
HETATM   21 CL   UNL     1     -47.196  58.662 -57.753  1.00  0.00    -0.081 Cl
HETATM   22  C   UNL     1     -44.801  57.401 -58.118  1.00  0.00     0.123 A 
HETATM   23  C   UNL     1     -43.575  56.931 -57.641  1.00  0.00     0.104 A 
HETATM   24  O   UNL     1     -45.200  57.216 -59.417  1.00  0.00    -0.344 OA
HETATM   25  O   UNL     1     -42.679  56.231 -58.410  1.00  0.00    -0.346 OA
HETATM   26  C   UNL     1     -43.183  57.173 -56.322  1.00  0.00     0.048 A 
HETATM   27  C   UNL     1     -43.263  55.783 -59.642  1.00  0.00     0.202 C 
HETATM   28  C   UNL     1     -44.100  56.882 -60.271  1.00  0.00     0.202 C 
ENDBRANCH  17  18
ENDBRANCH   2  17
TORSDOF 4
ENDMDL
MODEL 6
REMARK VINA RESULT:      -8.0      1.989      2.395
REMARK  4 active torsions:
REMARK  status: ('A' for Active; 'I' for Inactive)
REMARK    1  A    between atoms: N_2  and  C_4 
REMARK    2  A    between atoms: N_2  and  C_16 
REMARK    3  A    between atoms: C_4  and  C_5 
REMARK    4  A    between atoms: C_16  and  C_17 
ROOT
HETATM    1  C   UNL     1     -43.217  54.607 -53.203  1.00  0.00     0.270 C 
HETATM    2  N   UNL     1     -42.290  55.363 -54.115  1.00  0.00    -0.064 N 
HETATM    3  H   UNL     1     -42.541  55.073 -55.075  1.00  0.00     0.280 HD
ENDROOT
BRANCH   2   4
HETATM    4  C   UNL     1     -42.555  56.865 -54.090  1.00  0.00     0.312 C 
BRANCH   4   5
HETATM    5  C   UNL     1     -42.434  57.479 -55.479  1.00  0.00     0.133 A 
HETATM    6  N   UNL     1     -42.644  56.731 -56.516  1.00  0.00    -0.233 NA
HETATM    7  C   UNL     1     -42.514  57.333 -57.786  1.00  0.00     0.074 A 
HETATM    8  C   UNL     1     -42.173  58.681 -57.950  1.00  0.00     0.061 A 
HETATM    9  C   UNL     1     -42.733  56.561 -58.929  1.00  0.00     0.032 A 
HETATM   10  C   UNL     1     -41.949  59.474 -56.732  1.00  0.00     0.259 A 
HETATM   11  C   UNL     1     -42.049  59.259 -59.216  1.00  0.00     0.019 A 
HETATM   12  O   UNL     1     -41.650  60.660 -56.752  1.00  0.00    -0.267 OA
HETATM   13  N   UNL     1     -42.099  58.801 -55.546  1.00  0.00    -0.309 N 
HETATM   14  H   UNL     1     -41.923  59.375 -54.730  1.00  0.00     0.170 HD
HETATM   15  C   UNL     1     -42.270  58.474 -60.346  1.00  0.00     0.001 A 
HETATM   16  C   UNL     1     -42.612  57.128 -60.202  1.00  0.00     0.002 A 
ENDBRANCH   4   5
ENDBRANCH   2   4
BRANCH   2  17
HETATM   17  C   UNL     1     -40.832  55.061 -53.890  1.00  0.00     0.273 C 
BRANCH  17  18
HETATM   18  C   UNL     1     -40.540  53.663 -53.419  1.00  0.00    -0.028 A 
HETATM   19  C   UNL     1     -40.292  52.628 -54.332  1.00  0.00     0.035 A 
HETATM   20  C   UNL     1     -39.997  51.334 -53.881  1.00  0.00     0.070 A 
HETATM   21 CL   UNL     1     -39.687  50.116 -55.062  1.00  0.00    -0.081 Cl
HETATM   22  C   UNL     1     -39.942  51.057 -52.511  1.00  0.00     0.123 A 
HETATM   23  C   UNL     1     -40.223  52.079 -51.601  1.00  0.00     0.104 A 
HETATM   24  O   UNL     1     -39.621  49.786 -52.107  1.00  0.00    -0.344 OA
HETATM   25  O   UNL     1     -40.227  51.903 -50.240  1.00  0.00    -0.346 OA
HETATM   26  C   UNL     1     -40.505  53.372 -52.047  1.00  0.00     0.048 A 
HETATM   27  C   UNL     1     -40.211  50.516 -49.876  1.00  0.00     0.202 C 
HETATM   28  C   UNL     1     -39.221  49.747 -50.733  1.00  0.00     0.202 C 
ENDBRANCH  17  18
ENDBRANCH   2  17
TORSDOF 4
ENDMDL
MODEL 7
REMARK VINA RESULT:      -8.0      3.000      8.414
REMARK  4 active torsions:
REMARK  status: ('A' for Active; 'I' for Inactive)
REMARK    1  A    between atoms: N_2  and  C_4 
REMARK    2  A    between atoms: N_2  and  C_16 
REMARK    3  A    between atoms: C_4  and  C_5 
REMARK    4  A    between atoms: C_16  and  C_17 
ROOT
HETATM    1  C   UNL     1     -43.549  60.142 -54.204  1.00  0.00     0.270 C 
HETATM    2  N   UNL     1     -44.064  58.978 -55.007  1.00  0.00    -0.064 N 
HETATM    3  H   UNL     1     -43.226  58.501 -55.379  1.00  0.00     0.280 HD
ENDROOT
BRANCH   2   4
HETATM    4  C   UNL     1     -44.742  57.929 -54.132  1.00  0.00     0.312 C 
BRANCH   4   5
HETATM    5  C   UNL     1     -43.825  56.742 -53.866  1.00  0.00     0.133 A 
HETATM    6  N   UNL     1     -42.901  56.458 -54.729  1.00  0.00    -0.233 NA
HETATM    7  C   UNL     1     -42.077  55.345 -54.453  1.00  0.00     0.074 A 
HETATM    8  C   UNL     1     -42.230  54.562 -53.304  1.00  0.00     0.061 A 
HETATM    9  C   UNL     1     -41.069  55.007 -55.358  1.00  0.00     0.032 A 
HETATM   10  C   UNL     1     -43.298  54.938 -52.365  1.00  0.00     0.259 A 
HETATM   11  C   UNL     1     -41.404  53.463 -53.048  1.00  0.00     0.019 A 
HETATM   12  O   UNL     1     -43.522  54.329 -51.329  1.00  0.00    -0.267 OA
HETATM   13  N   UNL     1     -44.044  56.033 -52.720  1.00  0.00    -0.309 N 
HETATM   14  H   UNL     1     -44.779  56.254 -52.058  1.00  0.00     0.170 HD
HETATM   15  C   UNL     1     -40.403  53.139 -53.961  1.00  0.00     0.001 A 
HETATM   16  C   UNL     1     -40.235  53.910 -55.113  1.00  0.00     0.002 A 
ENDBRANCH   4   5
ENDBRANCH   2   4
BRANCH   2  17
HETATM   17  C   UNL     1     -44.940  59.376 -56.164  1.00  0.00     0.273 C 
BRANCH  17  18
HETATM   18  C   UNL     1     -44.743  58.566 -57.416  1.00  0.00    -0.028 A 
HETATM   19  C   UNL     1     -43.480  58.458 -58.016  1.00  0.00     0.035 A 
HETATM   20  C   UNL     1     -43.303  57.680 -59.169  1.00  0.00     0.070 A 
HETATM   21 CL   UNL     1     -41.718  57.581 -59.843  1.00  0.00    -0.081 Cl
HETATM   22  C   UNL     1     -44.384  56.998 -59.737  1.00  0.00     0.123 A 
HETATM   23  C   UNL     1     -45.649  57.133 -59.160  1.00  0.00     0.104 A 
HETATM   24  O   UNL     1     -44.166  56.224 -60.848  1.00  0.00    -0.344 OA
HETATM   25  O   UNL     1     -46.778  56.532 -59.656  1.00  0.00    -0.346 OA
HETATM   26  C   UNL     1     -45.826  57.897 -58.004  1.00  0.00     0.048 A 
HETATM   27  C   UNL     1     -46.574  56.011 -60.977  1.00  0.00     0.202 C 
HETATM   28  C   UNL     1     -45.236  55.299 -61.073  1.00  0.00     0.202 C 
ENDBRANCH  17  18
ENDBRANCH   2  17
TORSDOF 4
ENDMDL
MODEL 8
REMARK VINA RESULT:      -7.9      1.584      2.061
REMARK  4 active torsions:
REMARK  status: ('A' for Active; 'I' for Inactive)
REMARK    1  A    between atoms: N_2  and  C_4 
REMARK    2  A    between atoms: N_2  and  C_16 
REMARK    3  A    between atoms: C_4  and  C_5 
REMARK    4  A    between atoms: C_16  and  C_17 
ROOT
HETATM    1  C   UNL     1     -43.103  54.223 -54.751  1.00  0.00     0.270 C 
HETATM    2  N   UNL     1     -41.963  54.733 -55.590  1.00  0.00    -0.064 N 
HETATM    3  H   UNL     1     -42.120  54.354 -56.539  1.00  0.00     0.280 HD
ENDROOT
BRANCH   2   4
HETATM    4  C   UNL     1     -42.014  56.246 -55.773  1.00  0.00     0.312 C 
BRANCH   4   5
HETATM    5  C   UNL     1     -42.891  56.640 -56.954  1.00  0.00     0.133 A 
HETATM    6  N   UNL     1     -44.006  57.258 -56.728  1.00  0.00    -0.233 NA
HETATM    7  C   UNL     1     -44.797  57.599 -57.847  1.00  0.00     0.074 A 
HETATM    8  C   UNL     1     -44.417  57.294 -59.159  1.00  0.00     0.061 A 
HETATM    9  C   UNL     1     -46.006  58.267 -57.645  1.00  0.00     0.032 A 
HETATM   10  C   UNL     1     -43.139  56.590 -59.346  1.00  0.00     0.259 A 
HETATM   11  C   UNL     1     -45.214  57.639 -60.254  1.00  0.00     0.019 A 
HETATM   12  O   UNL     1     -42.704  56.275 -60.445  1.00  0.00    -0.267 OA
HETATM   13  N   UNL     1     -42.443  56.304 -58.199  1.00  0.00    -0.309 N 
HETATM   14  H   UNL     1     -41.575  55.807 -58.366  1.00  0.00     0.170 HD
HETATM   15  C   UNL     1     -46.418  58.305 -60.036  1.00  0.00     0.001 A 
HETATM   16  C   UNL     1     -46.813  58.619 -58.733  1.00  0.00     0.002 A 
ENDBRANCH   4   5
ENDBRANCH   2   4
BRANCH   2  17
HETATM   17  C   UNL     1     -40.607  54.284 -55.115  1.00  0.00     0.273 C 
BRANCH  17  18
HETATM   18  C   UNL     1     -40.539  53.902 -53.662  1.00  0.00    -0.028 A 
HETATM   19  C   UNL     1     -40.164  52.608 -53.271  1.00  0.00     0.035 A 
HETATM   20  C   UNL     1     -40.080  52.270 -51.914  1.00  0.00     0.070 A 
HETATM   21 CL   UNL     1     -39.597  50.664 -51.508  1.00  0.00    -0.081 Cl
HETATM   22  C   UNL     1     -40.367  53.219 -50.927  1.00  0.00     0.123 A 
HETATM   23  C   UNL     1     -40.773  54.498 -51.316  1.00  0.00     0.104 A 
HETATM   24  O   UNL     1     -40.246  52.859 -49.609  1.00  0.00    -0.344 OA
HETATM   25  O   UNL     1     -41.107  55.490 -50.429  1.00  0.00    -0.346 OA
HETATM   26  C   UNL     1     -40.846  54.842 -52.668  1.00  0.00     0.048 A 
HETATM   27  C   UNL     1     -41.281  54.986 -49.097  1.00  0.00     0.202 C 
HETATM   28  C   UNL     1     -40.180  54.001 -48.748  1.00  0.00     0.202 C 
ENDBRANCH  17  18
ENDBRANCH   2  17
TORSDOF 4
ENDMDL
MODEL 9
REMARK VINA RESULT:      -7.9      2.859      8.713
REMARK  4 active torsions:
REMARK  status: ('A' for Active; 'I' for Inactive)
REMARK    1  A    between atoms: N_2  and  C_4 
REMARK    2  A    between atoms: N_2  and  C_16 
REMARK    3  A    between atoms: C_4  and  C_5 
REMARK    4  A    between atoms: C_16  and  C_17 
ROOT
HETATM    1  C   UNL     1     -40.360  58.774 -52.842  1.00  0.00     0.270 C 
HETATM    2  N   UNL     1     -41.455  57.799 -53.175  1.00  0.00    -0.064 N 
HETATM    3  H   UNL     1     -41.026  57.097 -53.802  1.00  0.00     0.280 HD
ENDROOT
BRANCH   2   4
HETATM    4  C   UNL     1     -41.904  56.997 -51.959  1.00  0.00     0.312 C 
BRANCH   4   5
HETATM    5  C   UNL     1     -41.351  55.577 -51.986  1.00  0.00     0.133 A 
HETATM    6  N   UNL     1     -41.230  54.974 -53.126  1.00  0.00    -0.233 NA
HETATM    7  C   UNL     1     -40.723  53.656 -53.110  1.00  0.00     0.074 A 
HETATM    8  C   UNL     1     -40.359  53.003 -51.928  1.00  0.00     0.061 A 
HETATM    9  C   UNL     1     -40.576  52.972 -54.319  1.00  0.00     0.032 A 
HETATM   10  C   UNL     1     -40.522  53.744 -50.668  1.00  0.00     0.259 A 
HETATM   11  C   UNL     1     -39.859  51.697 -51.933  1.00  0.00     0.019 A 
HETATM   12  O   UNL     1     -40.234  53.277 -49.575  1.00  0.00    -0.267 OA
HETATM   13  N   UNL     1     -41.021  55.017 -50.786  1.00  0.00    -0.309 N 
HETATM   14  H   UNL     1     -41.132  55.492 -49.898  1.00  0.00     0.170 HD
HETATM   15  C   UNL     1     -39.719  51.028 -53.146  1.00  0.00     0.001 A 
HETATM   16  C   UNL     1     -40.077  51.665 -54.337  1.00  0.00     0.002 A 
ENDBRANCH   4   5
ENDBRANCH   2   4
BRANCH   2  17
HETATM   17  C   UNL     1     -42.629  58.418 -53.886  1.00  0.00     0.273 C 
BRANCH  17  18
HETATM   18  C   UNL     1     -42.606  58.283 -55.384  1.00  0.00    -0.028 A 
HETATM   19  C   UNL     1     -42.874  57.055 -56.005  1.00  0.00     0.035 A 
HETATM   20  C   UNL     1     -42.874  56.947 -57.402  1.00  0.00     0.070 A 
HETATM   21 CL   UNL     1     -43.229  55.407 -58.095  1.00  0.00    -0.081 Cl
HETATM   22  C   UNL     1     -42.608  58.065 -58.199  1.00  0.00     0.123 A 
HETATM   23  C   UNL     1     -42.307  59.281 -57.582  1.00  0.00     0.104 A 
HETATM   24  O   UNL     1     -42.646  57.927 -59.564  1.00  0.00    -0.344 OA
HETATM   25  O   UNL     1     -42.002  60.427 -58.271  1.00  0.00    -0.346 OA
HETATM   26  C   UNL     1     -42.319  59.395 -56.190  1.00  0.00     0.048 A 
HETATM   27  C   UNL     1     -41.735  60.167 -59.657  1.00  0.00     0.202 C 
HETATM   28  C   UNL     1     -42.750  59.193 -60.226  1.00  0.00     0.202 C 
ENDBRANCH  17  18
ENDBRANCH   2  17
TORSDOF 4
ENDMDL
MODEL 10
REMARK VINA RESULT:      -7.9      2.130      3.051
REMARK  4 active torsions:
REMARK  status: ('A' for Active; 'I' for Inactive)
REMARK    1  A    between atoms: N_2  and  C_4 
REMARK    2  A    between atoms: N_2  and  C_16 
REMARK    3  A    between atoms: C_4  and  C_5 
REMARK    4  A    between atoms: C_16  and  C_17 
ROOT
HETATM    1  C   UNL     1     -41.319  57.941 -53.652  1.00  0.00     0.270 C 
HETATM    2  N   UNL     1     -42.350  57.104 -54.360  1.00  0.00    -0.064 N 
HETATM    3  H   UNL     1     -43.096  57.760 -54.647  1.00  0.00     0.280 HD
ENDROOT
BRANCH   2   4
HETATM    4  C   UNL     1     -41.825  56.529 -55.671  1.00  0.00     0.312 C 
BRANCH   4   5
HETATM    5  C   UNL     1     -42.860  56.633 -56.784  1.00  0.00     0.133 A 
HETATM    6  N   UNL     1     -42.967  55.661 -57.633  1.00  0.00    -0.233 NA
HETATM    7  C   UNL     1     -43.930  55.797 -58.656  1.00  0.00     0.074 A 
HETATM    8  C   UNL     1     -44.750  56.925 -58.774  1.00  0.00     0.061 A 
HETATM    9  C   UNL     1     -44.077  54.769 -59.591  1.00  0.00     0.032 A 
HETATM   10  C   UNL     1     -44.577  57.993 -57.777  1.00  0.00     0.259 A 
HETATM   11  C   UNL     1     -45.698  57.041 -59.794  1.00  0.00     0.019 A 
HETATM   12  O   UNL     1     -45.239  59.022 -57.779  1.00  0.00    -0.267 OA
HETATM   13  N   UNL     1     -43.617  57.768 -56.823  1.00  0.00    -0.309 N 
HETATM   14  H   UNL     1     -43.517  58.530 -56.163  1.00  0.00     0.170 HD
HETATM   15  C   UNL     1     -45.832  56.008 -60.719  1.00  0.00     0.001 A 
HETATM   16  C   UNL     1     -45.023  54.874 -60.617  1.00  0.00     0.002 A 
ENDBRANCH   4   5
ENDBRANCH   2   4
BRANCH   2  17
HETATM   17  C   UNL     1     -42.962  56.033 -53.498  1.00  0.00     0.273 C 
BRANCH  17  18
HETATM   18  C   UNL     1     -42.009  54.960 -53.047  1.00  0.00    -0.028 A 
HETATM   19  C   UNL     1     -41.337  55.058 -51.821  1.00  0.00     0.035 A 
HETATM   20  C   UNL     1     -40.469  54.040 -51.399  1.00  0.00     0.070 A 
HETATM   21 CL   UNL     1     -39.690  54.222 -49.871  1.00  0.00    -0.081 Cl
HETATM   22  C   UNL     1     -40.263  52.910 -52.197  1.00  0.00     0.123 A 
HETATM   23  C   UNL     1     -40.905  52.827 -53.435  1.00  0.00     0.104 A 
HETATM   24  O   UNL     1     -39.429  51.921 -51.738  1.00  0.00    -0.344 OA
HETATM   25  O   UNL     1     -40.746  51.778 -54.304  1.00  0.00    -0.346 OA
HETATM   26  C   UNL     1     -41.780  53.834 -53.851  1.00  0.00     0.048 A 
HETATM   27  C   UNL     1     -39.638  50.942 -53.942  1.00  0.00     0.202 C 
HETATM   28  C   UNL     1     -39.622  50.691 -52.444  1.00  0.00     0.202 C 
ENDBRANCH  17  18
ENDBRANCH   2  17
TORSDOF 4
ENDMDL
