MODEL 1
REMARK VINA RESULT:      -7.1      0.000      0.000
REMARK  5 active torsions:
REMARK  status: ('A' for Active; 'I' for Inactive)
REMARK    1  A    between atoms: C_2  and  O_3 
REMARK    2  A    between atoms: O_3  and  C_4 
REMARK    3  A    between atoms: C_6  and  C_7 
REMARK    4  A    between atoms: C_7  and  N_8 
REMARK       I    between atoms: N_8  and  C_9 
REMARK       I    between atoms: C_9  and  N_10 
REMARK    5  A    between atoms: N_10  and  C_11 
ROOT
HETATM    1  N   UNL     1     -43.388  55.089 -52.795  1.00  0.00    -0.335 N 
HETATM    2  C   UNL     1     -43.516  56.238 -52.076  1.00  0.00     0.321 C 
HETATM    3  N   UNL     1     -42.779  57.305 -52.508  1.00  0.00    -0.307 N 
HETATM    4  O   UNL     1     -44.262  56.216 -51.102  1.00  0.00    -0.247 OA
HETATM    5  H   UNL     1     -43.891  54.327 -52.357  1.00  0.00     0.165 HD
HETATM    6  H   UNL     1     -41.928  57.045 -52.976  1.00  0.00     0.170 HD
ENDROOT
BRANCH   1   7
HETATM    7  C   UNL     1     -42.520  54.736 -53.914  1.00  0.00     0.115 C 
HETATM    8  C   UNL     1     -43.389  54.320 -55.103  1.00  0.00     0.037 C 
BRANCH   7   9
HETATM    9  C   UNL     1     -41.505  53.700 -53.454  1.00  0.00    -0.033 A 
HETATM   10  C   UNL     1     -41.082  53.710 -52.111  1.00  0.00     0.046 A 
HETATM   11  C   UNL     1     -40.195  52.754 -51.609  1.00  0.00     0.069 A 
HETATM   12  C   UNL     1     -39.679  51.784 -52.462  1.00  0.00     0.037 A 
HETATM   13  C   UNL     1     -40.079  51.757 -53.799  1.00  0.00     0.003 A 
HETATM   14  C   UNL     1     -40.990  52.698 -54.288  1.00  0.00     0.009 A 
BRANCH  11  15
HETATM   15  O   UNL     1     -39.901  52.888 -50.281  1.00  0.00    -0.352 OA
BRANCH  15  16
HETATM   16  C   UNL     1     -39.839  54.223 -49.781  1.00  0.00     0.171 C 
HETATM   17  C   UNL     1     -40.484  54.232 -48.407  1.00  0.00     0.034 C 
ENDBRANCH  15  16
ENDBRANCH  11  15
ENDBRANCH   7   9
ENDBRANCH   1   7
BRANCH   3  18
HETATM   18  C   UNL     1     -42.761  58.600 -51.933  1.00  0.00     0.059 A 
HETATM   19  C   UNL     1     -41.859  59.070 -50.968  1.00  0.00    -0.032 A 
HETATM   20  C   UNL     1     -40.801  58.234 -50.305  1.00  0.00     0.050 C 
HETATM   21  C   UNL     1     -41.961  60.413 -50.562  1.00  0.00     0.028 A 
HETATM   22  C   UNL     1     -42.979  61.207 -51.064  1.00  0.00     0.117 A 
HETATM   23  N   UNL     1     -43.905  60.766 -51.933  1.00  0.00    -0.271 NA
HETATM   24  C   UNL     1     -43.772  59.482 -52.340  1.00  0.00     0.146 A 
ENDBRANCH   3  18
TORSDOF 5
ENDMDL
MODEL 2
REMARK VINA RESULT:      -7.0      1.274      2.616
REMARK  5 active torsions:
REMARK  status: ('A' for Active; 'I' for Inactive)
REMARK    1  A    between atoms: C_2  and  O_3 
REMARK    2  A    between atoms: O_3  and  C_4 
REMARK    3  A    between atoms: C_6  and  C_7 
REMARK    4  A    between atoms: C_7  and  N_8 
REMARK       I    between atoms: N_8  and  C_9 
REMARK       I    between atoms: C_9  and  N_10 
REMARK    5  A    between atoms: N_10  and  C_11 
ROOT
HETATM    1  N   UNL     1     -43.892  55.799 -51.967  1.00  0.00    -0.335 N 
HETATM    2  C   UNL     1     -44.111  57.032 -51.434  1.00  0.00     0.321 C 
HETATM    3  N   UNL     1     -43.318  58.042 -51.901  1.00  0.00    -0.307 N 
HETATM    4  O   UNL     1     -44.983  57.131 -50.576  1.00  0.00    -0.247 OA
HETATM    5  H   UNL     1     -44.454  55.096 -51.503  1.00  0.00     0.165 HD
HETATM    6  H   UNL     1     -42.412  57.733 -52.210  1.00  0.00     0.170 HD
ENDROOT
BRANCH   1   7
HETATM    7  C   UNL     1     -42.881  55.311 -52.899  1.00  0.00     0.115 C 
HETATM    8  C   UNL     1     -43.582  54.689 -54.110  1.00  0.00     0.037 C 
BRANCH   7   9
HETATM    9  C   UNL     1     -41.919  54.393 -52.160  1.00  0.00    -0.033 A 
HETATM   10  C   UNL     1     -41.130  53.494 -52.903  1.00  0.00     0.046 A 
HETATM   11  C   UNL     1     -40.188  52.661 -52.293  1.00  0.00     0.069 A 
HETATM   12  C   UNL     1     -40.046  52.686 -50.910  1.00  0.00     0.037 A 
HETATM   13  C   UNL     1     -40.820  53.564 -50.152  1.00  0.00     0.003 A 
HETATM   14  C   UNL     1     -41.740  54.417 -50.770  1.00  0.00     0.009 A 
BRANCH  11  15
HETATM   15  O   UNL     1     -39.488  51.863 -53.154  1.00  0.00    -0.352 OA
BRANCH  15  16
HETATM   16  C   UNL     1     -40.195  51.406 -54.306  1.00  0.00     0.171 C 
HETATM   17  C   UNL     1     -40.013  49.902 -54.393  1.00  0.00     0.034 C 
ENDBRANCH  15  16
ENDBRANCH  11  15
ENDBRANCH   7   9
ENDBRANCH   1   7
BRANCH   3  18
HETATM   18  C   UNL     1     -43.372  59.402 -51.508  1.00  0.00     0.059 A 
HETATM   19  C   UNL     1     -42.408  60.092 -50.761  1.00  0.00    -0.032 A 
HETATM   20  C   UNL     1     -41.180  59.467 -50.162  1.00  0.00     0.050 C 
HETATM   21  C   UNL     1     -42.609  61.463 -50.521  1.00  0.00     0.028 A 
HETATM   22  C   UNL     1     -43.771  62.075 -50.963  1.00  0.00     0.117 A 
HETATM   23  N   UNL     1     -44.749  61.425 -51.618  1.00  0.00    -0.271 NA
HETATM   24  C   UNL     1     -44.525  60.114 -51.869  1.00  0.00     0.146 A 
ENDBRANCH   3  18
TORSDOF 5
ENDMDL
MODEL 3
REMARK VINA RESULT:      -6.8      4.056      7.372
REMARK  5 active torsions:
REMARK  status: ('A' for Active; 'I' for Inactive)
REMARK    1  A    between atoms: C_2  and  O_3 
REMARK    2  A    between atoms: O_3  and  C_4 
REMARK    3  A    between atoms: C_6  and  C_7 
REMARK    4  A    between atoms: C_7  and  N_8 
REMARK       I    between atoms: N_8  and  C_9 
REMARK       I    between atoms: C_9  and  N_10 
REMARK    5  A    between atoms: N_10  and  C_11 
ROOT
HETATM    1  N   UNL     1     -43.227  56.380 -55.324  1.00  0.00    -0.335 N 
HETATM    2  C   UNL     1     -42.933  55.439 -54.384  1.00  0.00     0.321 C 
HETATM    3  N   UNL     1     -41.682  55.501 -53.838  1.00  0.00    -0.307 N 
HETATM    4  O   UNL     1     -43.802  54.614 -54.119  1.00  0.00    -0.247 OA
HETATM    5  H   UNL     1     -44.133  56.208 -55.741  1.00  0.00     0.165 HD
HETATM    6  H   UNL     1     -40.991  55.890 -54.456  1.00  0.00     0.170 HD
ENDROOT
BRANCH   1   7
HETATM    7  C   UNL     1     -42.409  57.414 -55.949  1.00  0.00     0.115 C 
HETATM    8  C   UNL     1     -42.848  58.781 -55.418  1.00  0.00     0.037 C 
BRANCH   7   9
HETATM    9  C   UNL     1     -42.466  57.252 -57.461  1.00  0.00    -0.033 A 
HETATM   10  C   UNL     1     -43.166  56.158 -58.003  1.00  0.00     0.046 A 
HETATM   11  C   UNL     1     -43.304  55.980 -59.382  1.00  0.00     0.069 A 
HETATM   12  C   UNL     1     -42.704  56.884 -60.253  1.00  0.00     0.037 A 
HETATM   13  C   UNL     1     -42.001  57.974 -59.739  1.00  0.00     0.003 A 
HETATM   14  C   UNL     1     -41.891  58.163 -58.358  1.00  0.00     0.009 A 
BRANCH  11  15
HETATM   15  O   UNL     1     -44.030  54.881 -59.747  1.00  0.00    -0.352 OA
BRANCH  15  16
HETATM   16  C   UNL     1     -44.905  55.046 -60.861  1.00  0.00     0.171 C 
HETATM   17  C   UNL     1     -46.151  55.760 -60.369  1.00  0.00     0.034 C 
ENDBRANCH  15  16
ENDBRANCH  11  15
ENDBRANCH   7   9
ENDBRANCH   1   7
BRANCH   3  18
HETATM   18  C   UNL     1     -41.160  54.644 -52.838  1.00  0.00     0.059 A 
HETATM   19  C   UNL     1     -40.538  53.405 -53.046  1.00  0.00    -0.032 A 
HETATM   20  C   UNL     1     -40.403  52.726 -54.379  1.00  0.00     0.050 C 
HETATM   21  C   UNL     1     -40.024  52.724 -51.927  1.00  0.00     0.028 A 
HETATM   22  C   UNL     1     -40.204  53.252 -50.659  1.00  0.00     0.117 A 
HETATM   23  N   UNL     1     -40.862  54.400 -50.419  1.00  0.00    -0.271 NA
HETATM   24  C   UNL     1     -41.319  55.059 -51.509  1.00  0.00     0.146 A 
ENDBRANCH   3  18
TORSDOF 5
ENDMDL
MODEL 4
REMARK VINA RESULT:      -6.7      2.881      5.015
REMARK  5 active torsions:
REMARK  status: ('A' for Active; 'I' for Inactive)
REMARK    1  A    between atoms: C_2  and  O_3 
REMARK    2  A    between atoms: O_3  and  C_4 
REMARK    3  A    between atoms: C_6  and  C_7 
REMARK    4  A    between atoms: C_7  and  N_8 
REMARK       I    between atoms: N_8  and  C_9 
REMARK       I    between atoms: C_9  and  N_10 
REMARK    5  A    between atoms: N_10  and  C_11 
ROOT
HETATM    1  N   UNL     1     -42.208  56.424 -52.740  1.00  0.00    -0.335 N 
HETATM    2  C   UNL     1     -42.295  56.909 -54.009  1.00  0.00     0.321 C 
HETATM    3  N   UNL     1     -43.223  56.319 -54.819  1.00  0.00    -0.307 N 
HETATM    4  O   UNL     1     -41.530  57.816 -54.322  1.00  0.00    -0.247 OA
HETATM    5  H   UNL     1     -41.438  56.850 -52.239  1.00  0.00     0.165 HD
HETATM    6  H   UNL     1     -43.408  55.358 -54.587  1.00  0.00     0.170 HD
ENDROOT
BRANCH   1   7
HETATM    7  C   UNL     1     -42.868  55.299 -52.085  1.00  0.00     0.115 C 
HETATM    8  C   UNL     1     -43.691  55.826 -50.906  1.00  0.00     0.037 C 
BRANCH   7   9
HETATM    9  C   UNL     1     -41.829  54.244 -51.734  1.00  0.00    -0.033 A 
HETATM   10  C   UNL     1     -41.155  53.579 -52.775  1.00  0.00     0.046 A 
HETATM   11  C   UNL     1     -40.152  52.639 -52.523  1.00  0.00     0.069 A 
HETATM   12  C   UNL     1     -39.830  52.317 -51.209  1.00  0.00     0.037 A 
HETATM   13  C   UNL     1     -40.487  52.960 -50.160  1.00  0.00     0.003 A 
HETATM   14  C   UNL     1     -41.469  53.921 -50.418  1.00  0.00     0.009 A 
BRANCH  11  15
HETATM   15  O   UNL     1     -39.580  52.100 -53.642  1.00  0.00    -0.352 OA
BRANCH  15  16
HETATM   16  C   UNL     1     -40.407  51.232 -54.415  1.00  0.00     0.171 C 
HETATM   17  C   UNL     1     -39.887  49.817 -54.235  1.00  0.00     0.034 C 
ENDBRANCH  15  16
ENDBRANCH  11  15
ENDBRANCH   7   9
ENDBRANCH   1   7
BRANCH   3  18
HETATM   18  C   UNL     1     -43.503  56.662 -56.165  1.00  0.00     0.059 A 
HETATM   19  C   UNL     1     -44.327  57.708 -56.603  1.00  0.00    -0.032 A 
HETATM   20  C   UNL     1     -45.140  58.594 -55.702  1.00  0.00     0.050 C 
HETATM   21  C   UNL     1     -44.433  57.934 -57.988  1.00  0.00     0.028 A 
HETATM   22  C   UNL     1     -43.786  57.088 -58.874  1.00  0.00     0.117 A 
HETATM   23  N   UNL     1     -43.049  56.032 -58.488  1.00  0.00    -0.271 NA
HETATM   24  C   UNL     1     -42.930  55.849 -57.152  1.00  0.00     0.146 A 
ENDBRANCH   3  18
TORSDOF 5
ENDMDL
MODEL 5
REMARK VINA RESULT:      -6.7      3.400      5.227
REMARK  5 active torsions:
REMARK  status: ('A' for Active; 'I' for Inactive)
REMARK    1  A    between atoms: C_2  and  O_3 
REMARK    2  A    between atoms: O_3  and  C_4 
REMARK    3  A    between atoms: C_6  and  C_7 
REMARK    4  A    between atoms: C_7  and  N_8 
REMARK       I    between atoms: N_8  and  C_9 
REMARK       I    between atoms: C_9  and  N_10 
REMARK    5  A    between atoms: N_10  and  C_11 
ROOT
HETATM    1  N   UNL     1     -42.504  56.620 -54.212  1.00  0.00    -0.335 N 
HETATM    2  C   UNL     1     -42.602  57.039 -55.504  1.00  0.00     0.321 C 
HETATM    3  N   UNL     1     -43.432  56.314 -56.312  1.00  0.00    -0.307 N 
HETATM    4  O   UNL     1     -41.933  58.012 -55.835  1.00  0.00    -0.247 OA
HETATM    5  H   UNL     1     -41.804  57.150 -53.709  1.00  0.00     0.165 HD
HETATM    6  H   UNL     1     -43.516  55.349 -56.043  1.00  0.00     0.170 HD
ENDROOT
BRANCH   1   7
HETATM    7  C   UNL     1     -43.056  55.456 -53.526  1.00  0.00     0.115 C 
HETATM    8  C   UNL     1     -43.664  55.908 -52.195  1.00  0.00     0.037 C 
BRANCH   7   9
HETATM    9  C   UNL     1     -41.984  54.381 -53.421  1.00  0.00    -0.033 A 
HETATM   10  C   UNL     1     -41.330  54.190 -52.189  1.00  0.00     0.046 A 
HETATM   11  C   UNL     1     -40.375  53.185 -52.009  1.00  0.00     0.069 A 
HETATM   12  C   UNL     1     -40.028  52.371 -53.081  1.00  0.00     0.037 A 
HETATM   13  C   UNL     1     -40.659  52.544 -54.313  1.00  0.00     0.003 A 
HETATM   14  C   UNL     1     -41.634  53.532 -54.480  1.00  0.00     0.009 A 
BRANCH  11  15
HETATM   15  O   UNL     1     -39.850  53.116 -50.749  1.00  0.00    -0.352 OA
BRANCH  15  16
HETATM   16  C   UNL     1     -39.930  54.307 -49.967  1.00  0.00     0.171 C 
HETATM   17  C   UNL     1     -40.404  53.916 -48.578  1.00  0.00     0.034 C 
ENDBRANCH  15  16
ENDBRANCH  11  15
ENDBRANCH   7   9
ENDBRANCH   1   7
BRANCH   3  18
HETATM   18  C   UNL     1     -43.702  56.568 -57.680  1.00  0.00     0.059 A 
HETATM   19  C   UNL     1     -44.621  57.496 -58.188  1.00  0.00    -0.032 A 
HETATM   20  C   UNL     1     -45.555  58.324 -57.351  1.00  0.00     0.050 C 
HETATM   21  C   UNL     1     -44.706  57.651 -59.584  1.00  0.00     0.028 A 
HETATM   22  C   UNL     1     -43.941  56.846 -60.412  1.00  0.00     0.117 A 
HETATM   23  N   UNL     1     -43.106  55.895 -59.958  1.00  0.00    -0.271 NA
HETATM   24  C   UNL     1     -43.012  55.782 -58.613  1.00  0.00     0.146 A 
ENDBRANCH   3  18
TORSDOF 5
ENDMDL
MODEL 6
REMARK VINA RESULT:      -6.6      3.410      7.613
REMARK  5 active torsions:
REMARK  status: ('A' for Active; 'I' for Inactive)
REMARK    1  A    between atoms: C_2  and  O_3 
REMARK    2  A    between atoms: O_3  and  C_4 
REMARK    3  A    between atoms: C_6  and  C_7 
REMARK    4  A    between atoms: C_7  and  N_8 
REMARK       I    between atoms: N_8  and  C_9 
REMARK       I    between atoms: C_9  and  N_10 
REMARK    5  A    between atoms: N_10  and  C_11 
ROOT
HETATM    1  N   UNL     1     -42.264  55.797 -53.443  1.00  0.00    -0.335 N 
HETATM    2  C   UNL     1     -42.045  54.504 -53.076  1.00  0.00     0.321 C 
HETATM    3  N   UNL     1     -40.844  53.967 -53.446  1.00  0.00    -0.307 N 
HETATM    4  O   UNL     1     -42.940  53.930 -52.463  1.00  0.00    -0.247 OA
HETATM    5  H   UNL     1     -43.207  56.086 -53.214  1.00  0.00     0.165 HD
HETATM    6  H   UNL     1     -40.464  54.369 -54.286  1.00  0.00     0.170 HD
ENDROOT
BRANCH   1   7
HETATM    7  C   UNL     1     -41.483  56.718 -54.262  1.00  0.00     0.115 C 
HETATM    8  C   UNL     1     -40.980  57.862 -53.376  1.00  0.00     0.037 C 
BRANCH   7   9
HETATM    9  C   UNL     1     -42.309  57.143 -55.467  1.00  0.00    -0.033 A 
HETATM   10  C   UNL     1     -42.499  56.227 -56.519  1.00  0.00     0.046 A 
HETATM   11  C   UNL     1     -43.290  56.532 -57.630  1.00  0.00     0.069 A 
HETATM   12  C   UNL     1     -43.881  57.788 -57.725  1.00  0.00     0.037 A 
HETATM   13  C   UNL     1     -43.703  58.714 -56.698  1.00  0.00     0.003 A 
HETATM   14  C   UNL     1     -42.934  58.393 -55.575  1.00  0.00     0.009 A 
BRANCH  11  15
HETATM   15  O   UNL     1     -43.392  55.528 -58.552  1.00  0.00    -0.352 OA
BRANCH  15  16
HETATM   16  C   UNL     1     -44.401  55.688 -59.548  1.00  0.00     0.171 C 
HETATM   17  C   UNL     1     -44.887  54.304 -59.939  1.00  0.00     0.034 C 
ENDBRANCH  15  16
ENDBRANCH  11  15
ENDBRANCH   7   9
ENDBRANCH   1   7
BRANCH   3  18
HETATM   18  C   UNL     1     -40.389  52.655 -53.164  1.00  0.00     0.059 A 
HETATM   19  C   UNL     1     -39.913  52.185 -51.933  1.00  0.00    -0.032 A 
HETATM   20  C   UNL     1     -39.715  53.035 -50.709  1.00  0.00     0.050 C 
HETATM   21  C   UNL     1     -39.564  50.827 -51.830  1.00  0.00     0.028 A 
HETATM   22  C   UNL     1     -39.631  50.013 -52.950  1.00  0.00     0.117 A 
HETATM   23  N   UNL     1     -40.012  50.451 -54.163  1.00  0.00    -0.271 NA
HETATM   24  C   UNL     1     -40.377  51.752 -54.236  1.00  0.00     0.146 A 
ENDBRANCH   3  18
TORSDOF 5
ENDMDL
MODEL 7
REMARK VINA RESULT:      -6.4      4.462      7.692
REMARK  5 active torsions:
REMARK  status: ('A' for Active; 'I' for Inactive)
REMARK    1  A    between atoms: C_2  and  O_3 
REMARK    2  A    between atoms: O_3  and  C_4 
REMARK    3  A    between atoms: C_6  and  C_7 
REMARK    4  A    between atoms: C_7  and  N_8 
REMARK       I    between atoms: N_8  and  C_9 
REMARK       I    between atoms: C_9  and  N_10 
REMARK    5  A    between atoms: N_10  and  C_11 
ROOT
HETATM    1  N   UNL     1     -43.400  55.785 -55.637  1.00  0.00    -0.335 N 
HETATM    2  C   UNL     1     -43.052  55.046 -54.547  1.00  0.00     0.321 C 
HETATM    3  N   UNL     1     -41.738  55.096 -54.179  1.00  0.00    -0.307 N 
HETATM    4  O   UNL     1     -43.936  54.391 -54.003  1.00  0.00    -0.247 OA
HETATM    5  H   UNL     1     -44.365  55.620 -55.896  1.00  0.00     0.165 HD
HETATM    6  H   UNL     1     -41.110  55.269 -54.945  1.00  0.00     0.170 HD
ENDROOT
BRANCH   1   7
HETATM    7  C   UNL     1     -42.600  56.569 -56.572  1.00  0.00     0.115 C 
HETATM    8  C   UNL     1     -42.490  58.004 -56.047  1.00  0.00     0.037 C 
BRANCH   7   9
HETATM    9  C   UNL     1     -43.183  56.430 -57.970  1.00  0.00    -0.033 A 
HETATM   10  C   UNL     1     -43.314  57.580 -58.772  1.00  0.00     0.046 A 
HETATM   11  C   UNL     1     -43.791  57.515 -60.084  1.00  0.00     0.069 A 
HETATM   12  C   UNL     1     -44.186  56.289 -60.609  1.00  0.00     0.037 A 
HETATM   13  C   UNL     1     -44.071  55.136 -59.832  1.00  0.00     0.003 A 
HETATM   14  C   UNL     1     -43.566  55.203 -58.530  1.00  0.00     0.009 A 
BRANCH  11  15
HETATM   15  O   UNL     1     -43.836  58.716 -60.735  1.00  0.00    -0.352 OA
BRANCH  15  16
HETATM   16  C   UNL     1     -42.989  59.743 -60.222  1.00  0.00     0.171 C 
HETATM   17  C   UNL     1     -41.959  60.068 -61.289  1.00  0.00     0.034 C 
ENDBRANCH  15  16
ENDBRANCH  11  15
ENDBRANCH   7   9
ENDBRANCH   1   7
BRANCH   3  18
HETATM   18  C   UNL     1     -41.149  54.427 -53.077  1.00  0.00     0.059 A 
HETATM   19  C   UNL     1     -40.563  53.154 -53.093  1.00  0.00    -0.032 A 
HETATM   20  C   UNL     1     -40.544  52.233 -54.280  1.00  0.00     0.050 C 
HETATM   21  C   UNL     1     -39.972  52.680 -51.907  1.00  0.00     0.028 A 
HETATM   22  C   UNL     1     -40.043  53.441 -50.752  1.00  0.00     0.117 A 
HETATM   23  N   UNL     1     -40.663  54.633 -50.685  1.00  0.00    -0.271 NA
HETATM   24  C   UNL     1     -41.197  55.089 -51.843  1.00  0.00     0.146 A 
ENDBRANCH   3  18
TORSDOF 5
ENDMDL
MODEL 8
REMARK VINA RESULT:      -6.4      2.803      7.586
REMARK  5 active torsions:
REMARK  status: ('A' for Active; 'I' for Inactive)
REMARK    1  A    between atoms: C_2  and  O_3 
REMARK    2  A    between atoms: O_3  and  C_4 
REMARK    3  A    between atoms: C_6  and  C_7 
REMARK    4  A    between atoms: C_7  and  N_8 
REMARK       I    between atoms: N_8  and  C_9 
REMARK       I    between atoms: C_9  and  N_10 
REMARK    5  A    between atoms: N_10  and  C_11 
ROOT
HETATM    1  N   UNL     1     -42.154  56.119 -51.975  1.00  0.00    -0.335 N 
HETATM    2  C   UNL     1     -41.993  54.783 -52.180  1.00  0.00     0.321 C 
HETATM    3  N   UNL     1     -40.730  54.293 -52.003  1.00  0.00    -0.307 N 
HETATM    4  O   UNL     1     -42.982  54.139 -52.518  1.00  0.00    -0.247 OA
HETATM    5  H   UNL     1     -43.092  56.415 -52.215  1.00  0.00     0.165 HD
HETATM    6  H   UNL     1     -40.007  54.966 -52.190  1.00  0.00     0.170 HD
ENDROOT
BRANCH   1   7
HETATM    7  C   UNL     1     -41.193  57.178 -51.686  1.00  0.00     0.115 C 
HETATM    8  C   UNL     1     -40.981  57.256 -50.172  1.00  0.00     0.037 C 
BRANCH   7   9
HETATM    9  C   UNL     1     -41.656  58.469 -52.347  1.00  0.00    -0.033 A 
HETATM   10  C   UNL     1     -41.392  58.666 -53.715  1.00  0.00     0.046 A 
HETATM   11  C   UNL     1     -41.836  59.803 -54.396  1.00  0.00     0.069 A 
HETATM   12  C   UNL     1     -42.525  60.791 -53.702  1.00  0.00     0.037 A 
HETATM   13  C   UNL     1     -42.794  60.621 -52.344  1.00  0.00     0.003 A 
HETATM   14  C   UNL     1     -42.373  59.468 -51.674  1.00  0.00     0.009 A 
BRANCH  11  15
HETATM   15  O   UNL     1     -41.518  59.833 -55.725  1.00  0.00    -0.352 OA
BRANCH  15  16
HETATM   16  C   UNL     1     -42.501  60.394 -56.595  1.00  0.00     0.171 C 
HETATM   17  C   UNL     1     -43.322  59.250 -57.162  1.00  0.00     0.034 C 
ENDBRANCH  15  16
ENDBRANCH  11  15
ENDBRANCH   7   9
ENDBRANCH   1   7
BRANCH   3  18
HETATM   18  C   UNL     1     -40.327  52.942 -52.145  1.00  0.00     0.059 A 
HETATM   19  C   UNL     1     -40.053  52.276 -53.347  1.00  0.00    -0.032 A 
HETATM   20  C   UNL     1     -40.236  52.869 -54.716  1.00  0.00     0.050 C 
HETATM   21  C   UNL     1     -39.603  50.945 -53.282  1.00  0.00     0.028 A 
HETATM   22  C   UNL     1     -39.508  50.311 -52.054  1.00  0.00     0.117 A 
HETATM   23  N   UNL     1     -39.835  50.897 -50.889  1.00  0.00    -0.271 NA
HETATM   24  C   UNL     1     -40.234  52.188 -50.966  1.00  0.00     0.146 A 
ENDBRANCH   3  18
TORSDOF 5
ENDMDL
MODEL 9
REMARK VINA RESULT:      -6.4      4.091      6.029
REMARK  5 active torsions:
REMARK  status: ('A' for Active; 'I' for Inactive)
REMARK    1  A    between atoms: C_2  and  O_3 
REMARK    2  A    between atoms: O_3  and  C_4 
REMARK    3  A    between atoms: C_6  and  C_7 
REMARK    4  A    between atoms: C_7  and  N_8 
REMARK       I    between atoms: N_8  and  C_9 
REMARK       I    between atoms: C_9  and  N_10 
REMARK    5  A    between atoms: N_10  and  C_11 
ROOT
HETATM    1  N   UNL     1     -42.641  56.483 -55.348  1.00  0.00    -0.335 N 
HETATM    2  C   UNL     1     -42.966  56.957 -56.583  1.00  0.00     0.321 C 
HETATM    3  N   UNL     1     -44.291  56.915 -56.916  1.00  0.00    -0.307 N 
HETATM    4  O   UNL     1     -42.051  57.363 -57.292  1.00  0.00    -0.247 OA
HETATM    5  H   UNL     1     -41.637  56.464 -55.218  1.00  0.00     0.165 HD
HETATM    6  H   UNL     1     -44.797  56.172 -56.464  1.00  0.00     0.170 HD
ENDROOT
BRANCH   1   7
HETATM    7  C   UNL     1     -43.442  55.833 -54.317  1.00  0.00     0.115 C 
HETATM    8  C   UNL     1     -44.166  56.908 -53.502  1.00  0.00     0.037 C 
BRANCH   7   9
HETATM    9  C   UNL     1     -42.557  54.891 -53.514  1.00  0.00    -0.033 A 
HETATM   10  C   UNL     1     -41.716  53.996 -54.200  1.00  0.00     0.046 A 
HETATM   11  C   UNL     1     -40.839  53.142 -53.526  1.00  0.00     0.069 A 
HETATM   12  C   UNL     1     -40.817  53.142 -52.135  1.00  0.00     0.037 A 
HETATM   13  C   UNL     1     -41.646  54.017 -51.432  1.00  0.00     0.003 A 
HETATM   14  C   UNL     1     -42.500  54.890 -52.113  1.00  0.00     0.009 A 
BRANCH  11  15
HETATM   15  O   UNL     1     -40.074  52.351 -54.337  1.00  0.00    -0.352 OA
BRANCH  15  16
HETATM   16  C   UNL     1     -39.471  51.214 -53.721  1.00  0.00     0.171 C 
HETATM   17  C   UNL     1     -40.013  49.974 -54.408  1.00  0.00     0.034 C 
ENDBRANCH  15  16
ENDBRANCH  11  15
ENDBRANCH   7   9
ENDBRANCH   1   7
BRANCH   3  18
HETATM   18  C   UNL     1     -44.865  57.362 -58.131  1.00  0.00     0.059 A 
HETATM   19  C   UNL     1     -44.924  56.649 -59.336  1.00  0.00    -0.032 A 
HETATM   20  C   UNL     1     -44.295  55.305 -59.569  1.00  0.00     0.050 C 
HETATM   21  C   UNL     1     -45.594  57.238 -60.424  1.00  0.00     0.028 A 
HETATM   22  C   UNL     1     -46.111  58.518 -60.302  1.00  0.00     0.117 A 
HETATM   23  N   UNL     1     -46.005  59.258 -59.184  1.00  0.00    -0.271 NA
HETATM   24  C   UNL     1     -45.387  58.663 -58.137  1.00  0.00     0.146 A 
ENDBRANCH   3  18
TORSDOF 5
ENDMDL
MODEL 10
REMARK VINA RESULT:      -6.3      2.254      7.043
REMARK  5 active torsions:
REMARK  status: ('A' for Active; 'I' for Inactive)
REMARK    1  A    between atoms: C_2  and  O_3 
REMARK    2  A    between atoms: O_3  and  C_4 
REMARK    3  A    between atoms: C_6  and  C_7 
REMARK    4  A    between atoms: C_7  and  N_8 
REMARK       I    between atoms: N_8  and  C_9 
REMARK       I    between atoms: C_9  and  N_10 
REMARK    5  A    between atoms: N_10  and  C_11 
ROOT
HETATM    1  N   UNL     1     -42.061  56.609 -50.611  1.00  0.00    -0.335 N 
HETATM    2  C   UNL     1     -41.831  55.293 -50.878  1.00  0.00     0.321 C 
HETATM    3  N   UNL     1     -41.039  55.026 -51.959  1.00  0.00    -0.307 N 
HETATM    4  O   UNL     1     -42.362  54.466 -50.143  1.00  0.00    -0.247 OA
HETATM    5  H   UNL     1     -42.727  56.717 -49.857  1.00  0.00     0.165 HD
HETATM    6  H   UNL     1     -41.084  55.729 -52.676  1.00  0.00     0.170 HD
ENDROOT
BRANCH   1   7
HETATM    7  C   UNL     1     -41.692  57.823 -51.332  1.00  0.00     0.115 C 
HETATM    8  C   UNL     1     -41.251  58.884 -50.320  1.00  0.00     0.037 C 
BRANCH   7   9
HETATM    9  C   UNL     1     -42.838  58.230 -52.247  1.00  0.00    -0.033 A 
HETATM   10  C   UNL     1     -42.980  57.585 -53.489  1.00  0.00     0.046 A 
HETATM   11  C   UNL     1     -44.040  57.872 -54.354  1.00  0.00     0.069 A 
HETATM   12  C   UNL     1     -44.964  58.850 -54.001  1.00  0.00     0.037 A 
HETATM   13  C   UNL     1     -44.842  59.507 -52.777  1.00  0.00     0.003 A 
HETATM   14  C   UNL     1     -43.796  59.195 -51.903  1.00  0.00     0.009 A 
BRANCH  11  15
HETATM   15  O   UNL     1     -44.048  57.144 -55.510  1.00  0.00    -0.352 OA
BRANCH  15  16
HETATM   16  C   UNL     1     -42.807  57.058 -56.208  1.00  0.00     0.171 C 
HETATM   17  C   UNL     1     -42.999  56.109 -57.378  1.00  0.00     0.034 C 
ENDBRANCH  15  16
ENDBRANCH  11  15
ENDBRANCH   7   9
ENDBRANCH   1   7
BRANCH   3  18
HETATM   18  C   UNL     1     -40.652  53.743 -52.418  1.00  0.00     0.059 A 
HETATM   19  C   UNL     1     -41.038  53.138 -53.622  1.00  0.00    -0.032 A 
HETATM   20  C   UNL     1     -42.019  53.723 -54.599  1.00  0.00     0.050 C 
HETATM   21  C   UNL     1     -40.498  51.878 -53.936  1.00  0.00     0.028 A 
HETATM   22  C   UNL     1     -39.665  51.242 -53.029  1.00  0.00     0.117 A 
HETATM   23  N   UNL     1     -39.335  51.762 -51.834  1.00  0.00    -0.271 NA
HETATM   24  C   UNL     1     -39.836  52.989 -51.563  1.00  0.00     0.146 A 
ENDBRANCH   3  18
TORSDOF 5
ENDMDL
