MODEL 1
REMARK VINA RESULT:      -8.9      0.000      0.000
REMARK  9 active torsions:
REMARK  status: ('A' for Active; 'I' for Inactive)
REMARK    1  A    between atoms: C_2  and  C_3 
REMARK    2  A    between atoms: C_8  and  O_9 
REMARK    3  A    between atoms: C_10  and  C_11 
REMARK    4  A    between atoms: C_11  and  N_12 
REMARK       I    between atoms: N_12  and  C_13 
REMARK    5  A    between atoms: N_12  and  C_23 
REMARK       I    between atoms: C_13  and  N_14 
REMARK    6  A    between atoms: N_14  and  C_15 
REMARK    7  A    between atoms: C_23  and  C_24 
REMARK    8  A    between atoms: C_24  and  C_25 
REMARK    9  A    between atoms: C_25  and  N_26 
ROOT
HETATM    1  N   UNL     1     -42.251  57.912 -54.310  1.00  0.00    -0.330 N 
HETATM    2  C   UNL     1     -43.027  57.563 -55.407  1.00  0.00     0.323 C 
HETATM    3  N   UNL     1     -42.380  57.681 -56.612  1.00  0.00    -0.309 N 
HETATM    4  O   UNL     1     -44.238  57.390 -55.294  1.00  0.00    -0.247 OA
HETATM    5  H   UNL     1     -41.394  57.909 -56.583  1.00  0.00     0.170 HD
ENDROOT
BRANCH   1   6
HETATM    6  C   UNL     1     -42.710  57.407 -53.000  1.00  0.00     0.170 C 
BRANCH   6   7
HETATM    7  C   UNL     1     -42.001  56.179 -52.507  1.00  0.00     0.013 A 
HETATM    8  C   UNL     1     -41.750  55.998 -51.159  1.00  0.00     0.170 A 
HETATM    9  N   UNL     1     -41.128  54.950 -50.603  1.00  0.00    -0.224 NA
HETATM   10  C   UNL     1     -40.707  53.978 -51.431  1.00  0.00     0.070 A 
HETATM   11  C   UNL     1     -40.877  54.051 -52.830  1.00  0.00    -0.006 A 
HETATM   12  C   UNL     1     -40.079  52.860 -50.903  1.00  0.00     0.033 A 
HETATM   13  C   UNL     1     -40.418  53.007 -53.653  1.00  0.00     0.021 A 
HETATM   14  C   UNL     1     -41.520  55.182 -53.359  1.00  0.00     0.027 A 
HETATM   15  C   UNL     1     -39.801  51.878 -53.101  1.00  0.00    -0.058 A 
HETATM   16  C   UNL     1     -39.627  51.817 -51.716  1.00  0.00     0.009 A 
BRANCH   8  17
HETATM   17  O   UNL     1     -42.131  56.923 -50.240  1.00  0.00    -0.344 OA
HETATM   18  H   UNL     1     -41.506  57.636 -50.472  1.00  0.00     0.219 HD
ENDBRANCH   8  17
BRANCH  15  19
HETATM   19  C   UNL     1     -39.309  50.758 -53.982  1.00  0.00     0.034 C 
HETATM   20  C   UNL     1     -40.443  49.850 -54.433  1.00  0.00     0.010 C 
ENDBRANCH  15  19
ENDBRANCH   6   7
ENDBRANCH   1   6
BRANCH   1  21
HETATM   21  C   UNL     1     -41.692  59.267 -54.287  1.00  0.00     0.129 C 
BRANCH  21  22
HETATM   22  C   UNL     1     -41.994  60.072 -53.005  1.00  0.00     0.048 C 
BRANCH  22  23
HETATM   23  C   UNL     1     -42.989  61.232 -53.138  1.00  0.00     0.236 C 
BRANCH  23  24
HETATM   24  N   UNL     1     -44.224  61.147 -52.282  1.00  0.00    -0.067 N 
HETATM   25  H   UNL     1     -44.533  62.086 -51.990  1.00  0.00     0.280 HD
HETATM   26  C   UNL     1     -45.456  60.553 -52.963  1.00  0.00     0.261 C 
HETATM   27  C   UNL     1     -46.624  60.491 -51.968  1.00  0.00     0.195 C 
HETATM   28  O   UNL     1     -46.269  59.724 -50.811  1.00  0.00    -0.388 OA
HETATM   29  C   UNL     1     -45.181  60.329 -50.106  1.00  0.00     0.195 C 
HETATM   30  C   UNL     1     -43.931  60.385 -50.987  1.00  0.00     0.261 C 
ENDBRANCH  23  24
ENDBRANCH  22  23
ENDBRANCH  21  22
ENDBRANCH   1  21
BRANCH   3  31
HETATM   31  C   UNL     1     -42.929  57.400 -57.880  1.00  0.00     0.037 A 
HETATM   32  C   UNL     1     -43.414  56.108 -58.107  1.00  0.00     0.053 A 
HETATM   33  C   UNL     1     -43.940  55.770 -59.356  1.00  0.00     0.036 A 
HETATM   34 CL   UNL     1     -44.467  54.158 -59.646  1.00  0.00    -0.084 Cl
HETATM   35  C   UNL     1     -44.027  56.717 -60.373  1.00  0.00     0.024 A 
HETATM   36  C   UNL     1     -43.576  58.015 -60.140  1.00  0.00     0.004 A 
HETATM   37  C   UNL     1     -43.021  58.350 -58.902  1.00  0.00     0.029 A 
ENDBRANCH   3  31
TORSDOF 9
ENDMDL
MODEL 2
REMARK VINA RESULT:      -8.6      2.943      6.591
REMARK  9 active torsions:
REMARK  status: ('A' for Active; 'I' for Inactive)
REMARK    1  A    between atoms: C_2  and  C_3 
REMARK    2  A    between atoms: C_8  and  O_9 
REMARK    3  A    between atoms: C_10  and  C_11 
REMARK    4  A    between atoms: C_11  and  N_12 
REMARK       I    between atoms: N_12  and  C_13 
REMARK    5  A    between atoms: N_12  and  C_23 
REMARK       I    between atoms: C_13  and  N_14 
REMARK    6  A    between atoms: N_14  and  C_15 
REMARK    7  A    between atoms: C_23  and  C_24 
REMARK    8  A    between atoms: C_24  and  C_25 
REMARK    9  A    between atoms: C_25  and  N_26 
ROOT
HETATM    1  N   UNL     1     -43.390  58.280 -51.491  1.00  0.00    -0.330 N 
HETATM    2  C   UNL     1     -43.630  59.570 -51.038  1.00  0.00     0.323 C 
HETATM    3  N   UNL     1     -44.685  59.671 -50.165  1.00  0.00    -0.309 N 
HETATM    4  O   UNL     1     -43.082  60.536 -51.565  1.00  0.00    -0.247 OA
HETATM    5  H   UNL     1     -45.114  58.805 -49.863  1.00  0.00     0.170 HD
ENDROOT
BRANCH   1   6
HETATM    6  C   UNL     1     -42.050  58.029 -52.060  1.00  0.00     0.170 C 
BRANCH   6   7
HETATM    7  C   UNL     1     -41.517  56.641 -51.847  1.00  0.00     0.013 A 
HETATM    8  C   UNL     1     -41.142  56.212 -50.586  1.00  0.00     0.170 A 
HETATM    9  N   UNL     1     -40.656  55.003 -50.274  1.00  0.00    -0.224 NA
HETATM   10  C   UNL     1     -40.517  54.121 -51.278  1.00  0.00     0.070 A 
HETATM   11  C   UNL     1     -40.839  54.440 -52.615  1.00  0.00    -0.006 A 
HETATM   12  C   UNL     1     -40.040  52.848 -51.004  1.00  0.00     0.033 A 
HETATM   13  C   UNL     1     -40.675  53.480 -53.630  1.00  0.00     0.021 A 
HETATM   14  C   UNL     1     -41.328  55.728 -52.886  1.00  0.00     0.027 A 
HETATM   15  C   UNL     1     -40.208  52.195 -53.331  1.00  0.00    -0.058 A 
HETATM   16  C   UNL     1     -39.883  51.889 -52.008  1.00  0.00     0.009 A 
BRANCH   8  17
HETATM   17  O   UNL     1     -41.239  57.028 -49.505  1.00  0.00    -0.344 OA
HETATM   18  H   UNL     1     -40.327  56.940 -49.166  1.00  0.00     0.219 HD
ENDBRANCH   8  17
BRANCH  15  19
HETATM   19  C   UNL     1     -40.033  51.165 -54.418  1.00  0.00     0.034 C 
HETATM   20  C   UNL     1     -39.651  49.804 -53.856  1.00  0.00     0.010 C 
ENDBRANCH  15  19
ENDBRANCH   6   7
ENDBRANCH   1   6
BRANCH   1  21
HETATM   21  C   UNL     1     -44.489  57.592 -52.173  1.00  0.00     0.129 C 
BRANCH  21  22
HETATM   22  C   UNL     1     -44.702  58.009 -53.644  1.00  0.00     0.048 C 
BRANCH  22  23
HETATM   23  C   UNL     1     -44.262  57.004 -54.716  1.00  0.00     0.236 C 
BRANCH  23  24
HETATM   24  N   UNL     1     -43.801  57.590 -56.024  1.00  0.00    -0.067 N 
HETATM   25  H   UNL     1     -44.594  58.000 -56.541  1.00  0.00     0.280 HD
HETATM   26  C   UNL     1     -42.804  58.742 -55.912  1.00  0.00     0.261 C 
HETATM   27  C   UNL     1     -42.392  59.214 -57.315  1.00  0.00     0.195 C 
HETATM   28  O   UNL     1     -41.834  58.134 -58.074  1.00  0.00    -0.388 OA
HETATM   29  C   UNL     1     -42.795  57.093 -58.273  1.00  0.00     0.195 C 
HETATM   30  C   UNL     1     -43.232  56.498 -56.933  1.00  0.00     0.261 C 
ENDBRANCH  23  24
ENDBRANCH  22  23
ENDBRANCH  21  22
ENDBRANCH   1  21
BRANCH   3  31
HETATM   31  C   UNL     1     -45.151  60.856 -49.560  1.00  0.00     0.037 A 
HETATM   32  C   UNL     1     -46.170  61.560 -50.209  1.00  0.00     0.053 A 
HETATM   33  C   UNL     1     -46.646  62.756 -49.667  1.00  0.00     0.036 A 
HETATM   34 CL   UNL     1     -47.848  63.651 -50.511  1.00  0.00    -0.084 Cl
HETATM   35  C   UNL     1     -46.146  63.241 -48.461  1.00  0.00     0.024 A 
HETATM   36  C   UNL     1     -45.154  62.525 -47.794  1.00  0.00     0.004 A 
HETATM   37  C   UNL     1     -44.653  61.343 -48.347  1.00  0.00     0.029 A 
ENDBRANCH   3  31
TORSDOF 9
ENDMDL
MODEL 3
REMARK VINA RESULT:      -8.5      2.889      6.381
REMARK  9 active torsions:
REMARK  status: ('A' for Active; 'I' for Inactive)
REMARK    1  A    between atoms: C_2  and  C_3 
REMARK    2  A    between atoms: C_8  and  O_9 
REMARK    3  A    between atoms: C_10  and  C_11 
REMARK    4  A    between atoms: C_11  and  N_12 
REMARK       I    between atoms: N_12  and  C_13 
REMARK    5  A    between atoms: N_12  and  C_23 
REMARK       I    between atoms: C_13  and  N_14 
REMARK    6  A    between atoms: N_14  and  C_15 
REMARK    7  A    between atoms: C_23  and  C_24 
REMARK    8  A    between atoms: C_24  and  C_25 
REMARK    9  A    between atoms: C_25  and  N_26 
ROOT
HETATM    1  N   UNL     1     -43.297  57.402 -53.001  1.00  0.00    -0.330 N 
HETATM    2  C   UNL     1     -43.624  58.672 -52.547  1.00  0.00     0.323 C 
HETATM    3  N   UNL     1     -44.904  58.782 -52.062  1.00  0.00    -0.309 N 
HETATM    4  O   UNL     1     -42.895  59.633 -52.781  1.00  0.00    -0.247 OA
HETATM    5  H   UNL     1     -45.442  57.928 -51.991  1.00  0.00     0.170 HD
ENDROOT
BRANCH   1   6
HETATM    6  C   UNL     1     -41.855  57.103 -53.119  1.00  0.00     0.170 C 
BRANCH   6   7
HETATM    7  C   UNL     1     -41.413  55.830 -52.457  1.00  0.00     0.013 A 
HETATM    8  C   UNL     1     -41.357  55.730 -51.079  1.00  0.00     0.170 A 
HETATM    9  N   UNL     1     -40.980  54.652 -50.378  1.00  0.00    -0.224 NA
HETATM   10  C   UNL     1     -40.620  53.562 -51.077  1.00  0.00     0.070 A 
HETATM   11  C   UNL     1     -40.608  53.539 -52.489  1.00  0.00    -0.006 A 
HETATM   12  C   UNL     1     -40.244  52.413 -50.399  1.00  0.00     0.033 A 
HETATM   13  C   UNL     1     -40.223  52.373 -53.174  1.00  0.00     0.021 A 
HETATM   14  C   UNL     1     -40.996  54.704 -53.171  1.00  0.00     0.027 A 
HETATM   15  C   UNL     1     -39.862  51.216 -52.471  1.00  0.00    -0.058 A 
HETATM   16  C   UNL     1     -39.868  51.249 -51.075  1.00  0.00     0.009 A 
BRANCH   8  17
HETATM   17  O   UNL     1     -41.696  56.776 -50.281  1.00  0.00    -0.344 OA
HETATM   18  H   UNL     1     -41.025  56.656 -49.580  1.00  0.00     0.219 HD
ENDBRANCH   8  17
BRANCH  15  19
HETATM   19  C   UNL     1     -39.451  49.965 -53.204  1.00  0.00     0.034 C 
HETATM   20  C   UNL     1     -39.936  49.965 -54.646  1.00  0.00     0.010 C 
ENDBRANCH  15  19
ENDBRANCH   6   7
ENDBRANCH   1   6
BRANCH   1  21
HETATM   21  C   UNL     1     -44.134  56.832 -54.062  1.00  0.00     0.129 C 
BRANCH  21  22
HETATM   22  C   UNL     1     -43.948  57.478 -55.451  1.00  0.00     0.048 C 
BRANCH  22  23
HETATM   23  C   UNL     1     -43.183  56.656 -56.496  1.00  0.00     0.236 C 
BRANCH  23  24
HETATM   24  N   UNL     1     -43.795  56.597 -57.870  1.00  0.00    -0.067 N 
HETATM   25  H   UNL     1     -44.822  56.670 -57.818  1.00  0.00     0.280 HD
HETATM   26  C   UNL     1     -43.395  57.729 -58.815  1.00  0.00     0.261 C 
HETATM   27  C   UNL     1     -44.057  57.523 -60.186  1.00  0.00     0.195 C 
HETATM   28  O   UNL     1     -43.698  56.251 -60.741  1.00  0.00    -0.388 OA
HETATM   29  C   UNL     1     -44.159  55.179 -59.913  1.00  0.00     0.195 C 
HETATM   30  C   UNL     1     -43.508  55.246 -58.530  1.00  0.00     0.261 C 
ENDBRANCH  23  24
ENDBRANCH  22  23
ENDBRANCH  21  22
ENDBRANCH   1  21
BRANCH   3  31
HETATM   31  C   UNL     1     -45.498  59.953 -51.546  1.00  0.00     0.037 A 
HETATM   32  C   UNL     1     -45.132  60.354 -50.258  1.00  0.00     0.053 A 
HETATM   33  C   UNL     1     -45.714  61.489 -49.690  1.00  0.00     0.036 A 
HETATM   34 CL   UNL     1     -45.311  61.932 -48.077  1.00  0.00    -0.084 Cl
HETATM   35  C   UNL     1     -46.630  62.255 -50.406  1.00  0.00     0.024 A 
HETATM   36  C   UNL     1     -46.972  61.878 -51.703  1.00  0.00     0.004 A 
HETATM   37  C   UNL     1     -46.415  60.726 -52.265  1.00  0.00     0.029 A 
ENDBRANCH   3  31
TORSDOF 9
ENDMDL
MODEL 4
REMARK VINA RESULT:      -8.5      2.185      3.096
REMARK  9 active torsions:
REMARK  status: ('A' for Active; 'I' for Inactive)
REMARK    1  A    between atoms: C_2  and  C_3 
REMARK    2  A    between atoms: C_8  and  O_9 
REMARK    3  A    between atoms: C_10  and  C_11 
REMARK    4  A    between atoms: C_11  and  N_12 
REMARK       I    between atoms: N_12  and  C_13 
REMARK    5  A    between atoms: N_12  and  C_23 
REMARK       I    between atoms: C_13  and  N_14 
REMARK    6  A    between atoms: N_14  and  C_15 
REMARK    7  A    between atoms: C_23  and  C_24 
REMARK    8  A    between atoms: C_24  and  C_25 
REMARK    9  A    between atoms: C_25  and  N_26 
ROOT
HETATM    1  N   UNL     1     -44.258  58.238 -54.912  1.00  0.00    -0.330 N 
HETATM    2  C   UNL     1     -43.968  57.978 -56.244  1.00  0.00     0.323 C 
HETATM    3  N   UNL     1     -43.124  58.892 -56.823  1.00  0.00    -0.309 N 
HETATM    4  O   UNL     1     -44.602  57.135 -56.875  1.00  0.00    -0.247 OA
HETATM    5  H   UNL     1     -42.723  59.595 -56.215  1.00  0.00     0.170 HD
ENDROOT
BRANCH   1   6
HETATM    6  C   UNL     1     -44.780  57.102 -54.125  1.00  0.00     0.170 C 
BRANCH   6   7
HETATM    7  C   UNL     1     -43.734  56.187 -53.556  1.00  0.00     0.013 A 
HETATM    8  C   UNL     1     -43.273  56.354 -52.262  1.00  0.00     0.170 A 
HETATM    9  N   UNL     1     -42.348  55.605 -51.649  1.00  0.00    -0.224 NA
HETATM   10  C   UNL     1     -41.812  54.594 -52.354  1.00  0.00     0.070 A 
HETATM   11  C   UNL     1     -42.175  54.330 -53.693  1.00  0.00    -0.006 A 
HETATM   12  C   UNL     1     -40.866  53.775 -51.757  1.00  0.00     0.033 A 
HETATM   13  C   UNL     1     -41.584  53.260 -54.388  1.00  0.00     0.021 A 
HETATM   14  C   UNL     1     -43.138  55.160 -54.291  1.00  0.00     0.027 A 
HETATM   15  C   UNL     1     -40.643  52.433 -53.763  1.00  0.00    -0.058 A 
HETATM   16  C   UNL     1     -40.282  52.705 -52.441  1.00  0.00     0.009 A 
BRANCH   8  17
HETATM   17  O   UNL     1     -43.747  57.348 -51.467  1.00  0.00    -0.344 OA
HETATM   18  H   UNL     1     -44.256  57.848 -52.135  1.00  0.00     0.219 HD
ENDBRANCH   8  17
BRANCH  15  19
HETATM   19  C   UNL     1     -40.011  51.284 -54.506  1.00  0.00     0.034 C 
HETATM   20  C   UNL     1     -39.791  50.077 -53.607  1.00  0.00     0.010 C 
ENDBRANCH  15  19
ENDBRANCH   6   7
ENDBRANCH   1   6
BRANCH   1  21
HETATM   21  C   UNL     1     -44.863  59.536 -54.597  1.00  0.00     0.129 C 
BRANCH  21  22
HETATM   22  C   UNL     1     -44.880  59.896 -53.097  1.00  0.00     0.048 C 
BRANCH  22  23
HETATM   23  C   UNL     1     -43.651  60.634 -52.551  1.00  0.00     0.236 C 
BRANCH  23  24
HETATM   24  N   UNL     1     -42.457  59.777 -52.222  1.00  0.00    -0.067 N 
HETATM   25  H   UNL     1     -42.747  58.811 -52.009  1.00  0.00     0.280 HD
HETATM   26  C   UNL     1     -41.437  59.613 -53.347  1.00  0.00     0.261 C 
HETATM   27  C   UNL     1     -40.260  58.754 -52.863  1.00  0.00     0.195 C 
HETATM   28  O   UNL     1     -39.645  59.334 -51.706  1.00  0.00    -0.388 OA
HETATM   29  C   UNL     1     -40.565  59.397 -50.612  1.00  0.00     0.195 C 
HETATM   30  C   UNL     1     -41.758  60.289 -50.960  1.00  0.00     0.261 C 
ENDBRANCH  23  24
ENDBRANCH  22  23
ENDBRANCH  21  22
ENDBRANCH   1  21
BRANCH   3  31
HETATM   31  C   UNL     1     -42.671  58.874 -58.159  1.00  0.00     0.037 A 
HETATM   32  C   UNL     1     -42.676  60.082 -58.863  1.00  0.00     0.053 A 
HETATM   33  C   UNL     1     -42.267  60.113 -60.198  1.00  0.00     0.036 A 
HETATM   34 CL   UNL     1     -42.346  61.590 -61.076  1.00  0.00    -0.084 Cl
HETATM   35  C   UNL     1     -41.812  58.958 -60.831  1.00  0.00     0.024 A 
HETATM   36  C   UNL     1     -41.774  57.759 -60.123  1.00  0.00     0.004 A 
HETATM   37  C   UNL     1     -42.211  57.717 -58.796  1.00  0.00     0.029 A 
ENDBRANCH   3  31
TORSDOF 9
ENDMDL
MODEL 5
REMARK VINA RESULT:      -8.3      2.666      8.451
REMARK  9 active torsions:
REMARK  status: ('A' for Active; 'I' for Inactive)
REMARK    1  A    between atoms: C_2  and  C_3 
REMARK    2  A    between atoms: C_8  and  O_9 
REMARK    3  A    between atoms: C_10  and  C_11 
REMARK    4  A    between atoms: C_11  and  N_12 
REMARK       I    between atoms: N_12  and  C_13 
REMARK    5  A    between atoms: N_12  and  C_23 
REMARK       I    between atoms: C_13  and  N_14 
REMARK    6  A    between atoms: N_14  and  C_15 
REMARK    7  A    between atoms: C_23  and  C_24 
REMARK    8  A    between atoms: C_24  and  C_25 
REMARK    9  A    between atoms: C_25  and  N_26 
ROOT
HETATM    1  N   UNL     1     -42.884  56.355 -54.441  1.00  0.00    -0.330 N 
HETATM    2  C   UNL     1     -42.594  55.115 -53.890  1.00  0.00     0.323 C 
HETATM    3  N   UNL     1     -41.254  54.885 -53.701  1.00  0.00    -0.309 N 
HETATM    4  O   UNL     1     -43.457  54.244 -53.805  1.00  0.00    -0.247 OA
HETATM    5  H   UNL     1     -40.626  55.658 -53.883  1.00  0.00     0.170 HD
ENDROOT
BRANCH   1   6
HETATM    6  C   UNL     1     -44.270  56.836 -54.269  1.00  0.00     0.170 C 
BRANCH   6   7
HETATM    7  C   UNL     1     -44.402  58.298 -53.951  1.00  0.00     0.013 A 
HETATM    8  C   UNL     1     -45.205  59.121 -54.719  1.00  0.00     0.170 A 
HETATM    9  N   UNL     1     -45.400  60.433 -54.534  1.00  0.00    -0.224 NA
HETATM   10  C   UNL     1     -44.756  61.010 -53.505  1.00  0.00     0.070 A 
HETATM   11  C   UNL     1     -43.885  60.288 -52.659  1.00  0.00    -0.006 A 
HETATM   12  C   UNL     1     -44.942  62.361 -53.257  1.00  0.00     0.033 A 
HETATM   13  C   UNL     1     -43.234  60.938 -51.596  1.00  0.00     0.021 A 
HETATM   14  C   UNL     1     -43.706  58.918 -52.912  1.00  0.00     0.027 A 
HETATM   15  C   UNL     1     -43.448  62.300 -51.350  1.00  0.00    -0.058 A 
HETATM   16  C   UNL     1     -44.303  63.009 -52.197  1.00  0.00     0.009 A 
BRANCH   8  17
HETATM   17  O   UNL     1     -45.897  58.639 -55.784  1.00  0.00    -0.344 OA
HETATM   18  H   UNL     1     -45.263  57.957 -56.081  1.00  0.00     0.219 HD
ENDBRANCH   8  17
BRANCH  15  19
HETATM   19  C   UNL     1     -42.751  62.998 -50.210  1.00  0.00     0.034 C 
HETATM   20  C   UNL     1     -43.098  64.477 -50.151  1.00  0.00     0.010 C 
ENDBRANCH  15  19
ENDBRANCH   6   7
ENDBRANCH   1   6
BRANCH   1  21
HETATM   21  C   UNL     1     -42.279  56.672 -55.738  1.00  0.00     0.129 C 
BRANCH  21  22
HETATM   22  C   UNL     1     -42.934  55.974 -56.948  1.00  0.00     0.048 C 
BRANCH  22  23
HETATM   23  C   UNL     1     -43.749  56.861 -57.897  1.00  0.00     0.236 C 
BRANCH  23  24
HETATM   24  N   UNL     1     -44.718  56.148 -58.802  1.00  0.00    -0.067 N 
HETATM   25  H   UNL     1     -45.222  55.409 -58.290  1.00  0.00     0.280 HD
HETATM   26  C   UNL     1     -45.834  57.016 -59.382  1.00  0.00     0.261 C 
HETATM   27  C   UNL     1     -46.720  56.174 -60.312  1.00  0.00     0.195 C 
HETATM   28  O   UNL     1     -45.943  55.583 -61.361  1.00  0.00    -0.388 OA
HETATM   29  C   UNL     1     -44.961  54.687 -60.832  1.00  0.00     0.195 C 
HETATM   30  C   UNL     1     -43.975  55.436 -59.934  1.00  0.00     0.261 C 
ENDBRANCH  23  24
ENDBRANCH  22  23
ENDBRANCH  21  22
ENDBRANCH   1  21
BRANCH   3  31
HETATM   31  C   UNL     1     -40.680  53.713 -53.166  1.00  0.00     0.037 A 
HETATM   32  C   UNL     1     -40.452  52.645 -54.039  1.00  0.00     0.053 A 
HETATM   33  C   UNL     1     -39.913  51.451 -53.554  1.00  0.00     0.036 A 
HETATM   34 CL   UNL     1     -39.705  50.119 -54.622  1.00  0.00    -0.084 Cl
HETATM   35  C   UNL     1     -39.561  51.321 -52.213  1.00  0.00     0.024 A 
HETATM   36  C   UNL     1     -39.755  52.394 -51.347  1.00  0.00     0.004 A 
HETATM   37  C   UNL     1     -40.321  53.581 -51.821  1.00  0.00     0.029 A 
ENDBRANCH   3  31
TORSDOF 9
ENDMDL
MODEL 6
REMARK VINA RESULT:      -8.1      2.587      8.287
REMARK  9 active torsions:
REMARK  status: ('A' for Active; 'I' for Inactive)
REMARK    1  A    between atoms: C_2  and  C_3 
REMARK    2  A    between atoms: C_8  and  O_9 
REMARK    3  A    between atoms: C_10  and  C_11 
REMARK    4  A    between atoms: C_11  and  N_12 
REMARK       I    between atoms: N_12  and  C_13 
REMARK    5  A    between atoms: N_12  and  C_23 
REMARK       I    between atoms: C_13  and  N_14 
REMARK    6  A    between atoms: N_14  and  C_15 
REMARK    7  A    between atoms: C_23  and  C_24 
REMARK    8  A    between atoms: C_24  and  C_25 
REMARK    9  A    between atoms: C_25  and  N_26 
ROOT
HETATM    1  N   UNL     1     -43.103  56.764 -54.033  1.00  0.00    -0.330 N 
HETATM    2  C   UNL     1     -42.783  55.525 -53.497  1.00  0.00     0.323 C 
HETATM    3  N   UNL     1     -41.436  55.311 -53.344  1.00  0.00    -0.309 N 
HETATM    4  O   UNL     1     -43.632  54.643 -53.395  1.00  0.00    -0.247 OA
HETATM    5  H   UNL     1     -40.822  56.092 -53.537  1.00  0.00     0.170 HD
ENDROOT
BRANCH   1   6
HETATM    6  C   UNL     1     -44.490  57.227 -53.822  1.00  0.00     0.170 C 
BRANCH   6   7
HETATM    7  C   UNL     1     -44.664  58.233 -52.721  1.00  0.00     0.013 A 
HETATM    8  C   UNL     1     -44.961  57.828 -51.431  1.00  0.00     0.170 A 
HETATM    9  N   UNL     1     -45.139  58.628 -50.372  1.00  0.00    -0.224 NA
HETATM   10  C   UNL     1     -45.020  59.951 -50.576  1.00  0.00     0.070 A 
HETATM   11  C   UNL     1     -44.745  60.498 -51.849  1.00  0.00    -0.006 A 
HETATM   12  C   UNL     1     -45.172  60.821 -49.507  1.00  0.00     0.033 A 
HETATM   13  C   UNL     1     -44.630  61.890 -52.011  1.00  0.00     0.021 A 
HETATM   14  C   UNL     1     -44.585  59.611 -52.927  1.00  0.00     0.027 A 
HETATM   15  C   UNL     1     -44.770  62.752 -50.916  1.00  0.00    -0.058 A 
HETATM   16  C   UNL     1     -45.051  62.205 -49.662  1.00  0.00     0.009 A 
BRANCH   8  17
HETATM   17  O   UNL     1     -45.107  56.514 -51.120  1.00  0.00    -0.344 OA
HETATM   18  H   UNL     1     -45.946  56.339 -51.587  1.00  0.00     0.219 HD
ENDBRANCH   8  17
BRANCH  15  19
HETATM   19  C   UNL     1     -44.645  64.244 -51.087  1.00  0.00     0.034 C 
HETATM   20  C   UNL     1     -43.236  64.655 -51.486  1.00  0.00     0.010 C 
ENDBRANCH  15  19
ENDBRANCH   6   7
ENDBRANCH   1   6
BRANCH   1  21
HETATM   21  C   UNL     1     -42.534  57.096 -55.343  1.00  0.00     0.129 C 
BRANCH  21  22
HETATM   22  C   UNL     1     -43.490  56.886 -56.536  1.00  0.00     0.048 C 
BRANCH  22  23
HETATM   23  C   UNL     1     -42.904  56.199 -57.776  1.00  0.00     0.236 C 
BRANCH  23  24
HETATM   24  N   UNL     1     -43.754  56.234 -59.018  1.00  0.00    -0.067 N 
HETATM   25  H   UNL     1     -43.230  56.634 -59.810  1.00  0.00     0.280 HD
HETATM   26  C   UNL     1     -44.216  54.872 -59.536  1.00  0.00     0.261 C 
HETATM   27  C   UNL     1     -45.102  55.059 -60.776  1.00  0.00     0.195 C 
HETATM   28  O   UNL     1     -46.228  55.894 -60.479  1.00  0.00    -0.388 OA
HETATM   29  C   UNL     1     -45.808  57.205 -60.092  1.00  0.00     0.195 C 
HETATM   30  C   UNL     1     -44.965  57.148 -58.817  1.00  0.00     0.261 C 
ENDBRANCH  23  24
ENDBRANCH  22  23
ENDBRANCH  21  22
ENDBRANCH   1  21
BRANCH   3  31
HETATM   31  C   UNL     1     -40.833  54.143 -52.831  1.00  0.00     0.037 A 
HETATM   32  C   UNL     1     -40.559  53.106 -53.728  1.00  0.00     0.053 A 
HETATM   33  C   UNL     1     -39.991  51.916 -53.266  1.00  0.00     0.036 A 
HETATM   34 CL   UNL     1     -39.726  50.620 -54.365  1.00  0.00    -0.084 Cl
HETATM   35  C   UNL     1     -39.655  51.761 -51.923  1.00  0.00     0.024 A 
HETATM   36  C   UNL     1     -39.896  52.805 -51.032  1.00  0.00     0.004 A 
HETATM   37  C   UNL     1     -40.491  53.986 -51.484  1.00  0.00     0.029 A 
ENDBRANCH   3  31
TORSDOF 9
ENDMDL
MODEL 7
REMARK VINA RESULT:      -8.1      2.957      7.767
REMARK  9 active torsions:
REMARK  status: ('A' for Active; 'I' for Inactive)
REMARK    1  A    between atoms: C_2  and  C_3 
REMARK    2  A    between atoms: C_8  and  O_9 
REMARK    3  A    between atoms: C_10  and  C_11 
REMARK    4  A    between atoms: C_11  and  N_12 
REMARK       I    between atoms: N_12  and  C_13 
REMARK    5  A    between atoms: N_12  and  C_23 
REMARK       I    between atoms: C_13  and  N_14 
REMARK    6  A    between atoms: N_14  and  C_15 
REMARK    7  A    between atoms: C_23  and  C_24 
REMARK    8  A    between atoms: C_24  and  C_25 
REMARK    9  A    between atoms: C_25  and  N_26 
ROOT
HETATM    1  N   UNL     1     -42.984  56.158 -54.735  1.00  0.00    -0.330 N 
HETATM    2  C   UNL     1     -41.876  55.461 -54.273  1.00  0.00     0.323 C 
HETATM    3  N   UNL     1     -42.157  54.198 -53.817  1.00  0.00    -0.309 N 
HETATM    4  O   UNL     1     -40.802  56.032 -54.092  1.00  0.00    -0.247 OA
HETATM    5  H   UNL     1     -43.104  53.863 -53.948  1.00  0.00     0.170 HD
ENDROOT
BRANCH   1   6
HETATM    6  C   UNL     1     -42.708  57.309 -55.620  1.00  0.00     0.170 C 
BRANCH   6   7
HETATM    7  C   UNL     1     -43.634  57.445 -56.794  1.00  0.00     0.013 A 
HETATM    8  C   UNL     1     -43.458  56.674 -57.929  1.00  0.00     0.170 A 
HETATM    9  N   UNL     1     -44.215  56.707 -59.033  1.00  0.00    -0.224 NA
HETATM   10  C   UNL     1     -45.245  57.570 -59.045  1.00  0.00     0.070 A 
HETATM   11  C   UNL     1     -45.520  58.433 -57.961  1.00  0.00    -0.006 A 
HETATM   12  C   UNL     1     -46.073  57.626 -60.155  1.00  0.00     0.033 A 
HETATM   13  C   UNL     1     -46.610  59.319 -58.023  1.00  0.00     0.021 A 
HETATM   14  C   UNL     1     -44.682  58.367 -56.836  1.00  0.00     0.027 A 
HETATM   15  C   UNL     1     -47.446  59.350 -59.146  1.00  0.00    -0.058 A 
HETATM   16  C   UNL     1     -47.162  58.500 -60.217  1.00  0.00     0.009 A 
BRANCH   8  17
HETATM   17  O   UNL     1     -42.444  55.774 -58.021  1.00  0.00    -0.344 OA
HETATM   18  H   UNL     1     -41.716  56.329 -57.681  1.00  0.00     0.219 HD
ENDBRANCH   8  17
BRANCH  15  19
HETATM   19  C   UNL     1     -48.616  60.298 -59.212  1.00  0.00     0.034 C 
HETATM   20  C   UNL     1     -49.233  60.535 -57.842  1.00  0.00     0.010 C 
ENDBRANCH  15  19
ENDBRANCH   6   7
ENDBRANCH   1   6
BRANCH   1  21
HETATM   21  C   UNL     1     -44.093  56.354 -53.797  1.00  0.00     0.129 C 
BRANCH  21  22
HETATM   22  C   UNL     1     -44.007  57.642 -52.951  1.00  0.00     0.048 C 
BRANCH  22  23
HETATM   23  C   UNL     1     -44.612  57.582 -51.542  1.00  0.00     0.236 C 
BRANCH  23  24
HETATM   24  N   UNL     1     -44.350  58.773 -50.658  1.00  0.00    -0.067 N 
HETATM   25  H   UNL     1     -44.045  58.472 -49.720  1.00  0.00     0.280 HD
HETATM   26  C   UNL     1     -43.231  59.703 -51.124  1.00  0.00     0.261 C 
HETATM   27  C   UNL     1     -43.099  60.887 -50.156  1.00  0.00     0.195 C 
HETATM   28  O   UNL     1     -44.338  61.601 -50.051  1.00  0.00    -0.388 OA
HETATM   29  C   UNL     1     -45.369  60.766 -49.516  1.00  0.00     0.195 C 
HETATM   30  C   UNL     1     -45.634  59.576 -50.441  1.00  0.00     0.261 C 
ENDBRANCH  23  24
ENDBRANCH  22  23
ENDBRANCH  21  22
ENDBRANCH   1  21
BRANCH   3  31
HETATM   31  C   UNL     1     -41.227  53.279 -53.289  1.00  0.00     0.037 A 
HETATM   32  C   UNL     1     -40.821  52.221 -54.109  1.00  0.00     0.053 A 
HETATM   33  C   UNL     1     -39.924  51.267 -53.623  1.00  0.00     0.036 A 
HETATM   34 CL   UNL     1     -39.489  49.931 -54.615  1.00  0.00    -0.084 Cl
HETATM   35  C   UNL     1     -39.394  51.376 -52.340  1.00  0.00     0.024 A 
HETATM   36  C   UNL     1     -39.769  52.446 -51.532  1.00  0.00     0.004 A 
HETATM   37  C   UNL     1     -40.689  53.388 -52.003  1.00  0.00     0.029 A 
ENDBRANCH   3  31
TORSDOF 9
ENDMDL
MODEL 8
REMARK VINA RESULT:      -7.9      2.229      6.883
REMARK  9 active torsions:
REMARK  status: ('A' for Active; 'I' for Inactive)
REMARK    1  A    between atoms: C_2  and  C_3 
REMARK    2  A    between atoms: C_8  and  O_9 
REMARK    3  A    between atoms: C_10  and  C_11 
REMARK    4  A    between atoms: C_11  and  N_12 
REMARK       I    between atoms: N_12  and  C_13 
REMARK    5  A    between atoms: N_12  and  C_23 
REMARK       I    between atoms: C_13  and  N_14 
REMARK    6  A    between atoms: N_14  and  C_15 
REMARK    7  A    between atoms: C_23  and  C_24 
REMARK    8  A    between atoms: C_24  and  C_25 
REMARK    9  A    between atoms: C_25  and  N_26 
ROOT
HETATM    1  N   UNL     1     -42.783  56.532 -53.686  1.00  0.00    -0.330 N 
HETATM    2  C   UNL     1     -41.744  55.720 -53.252  1.00  0.00     0.323 C 
HETATM    3  N   UNL     1     -42.054  54.383 -53.217  1.00  0.00    -0.309 N 
HETATM    4  O   UNL     1     -40.737  56.203 -52.739  1.00  0.00    -0.247 OA
HETATM    5  H   UNL     1     -42.952  54.110 -53.595  1.00  0.00     0.170 HD
ENDROOT
BRANCH   1   6
HETATM    6  C   UNL     1     -42.403  57.879 -54.159  1.00  0.00     0.170 C 
BRANCH   6   7
HETATM    7  C   UNL     1     -42.662  58.140 -55.615  1.00  0.00     0.013 A 
HETATM    8  C   UNL     1     -42.218  59.303 -56.217  1.00  0.00     0.170 A 
HETATM    9  N   UNL     1     -42.389  59.645 -57.501  1.00  0.00    -0.224 NA
HETATM   10  C   UNL     1     -43.056  58.778 -58.282  1.00  0.00     0.070 A 
HETATM   11  C   UNL     1     -43.584  57.566 -57.787  1.00  0.00    -0.006 A 
HETATM   12  C   UNL     1     -43.239  59.074 -59.624  1.00  0.00     0.033 A 
HETATM   13  C   UNL     1     -44.275  56.693 -58.646  1.00  0.00     0.021 A 
HETATM   14  C   UNL     1     -43.389  57.268 -56.428  1.00  0.00     0.027 A 
HETATM   15  C   UNL     1     -44.435  57.001 -60.002  1.00  0.00    -0.058 A 
HETATM   16  C   UNL     1     -43.918  58.206 -60.483  1.00  0.00     0.009 A 
BRANCH   8  17
HETATM   17  O   UNL     1     -41.538  60.246 -55.514  1.00  0.00    -0.344 OA
HETATM   18  H   UNL     1     -42.295  60.699 -55.095  1.00  0.00     0.219 HD
ENDBRANCH   8  17
BRANCH  15  19
HETATM   19  C   UNL     1     -45.174  56.065 -60.925  1.00  0.00     0.034 C 
HETATM   20  C   UNL     1     -44.886  54.606 -60.603  1.00  0.00     0.010 C 
ENDBRANCH  15  19
ENDBRANCH   6   7
ENDBRANCH   1   6
BRANCH   1  21
HETATM   21  C   UNL     1     -44.040  56.473 -52.935  1.00  0.00     0.129 C 
BRANCH  21  22
HETATM   22  C   UNL     1     -43.953  56.990 -51.484  1.00  0.00     0.048 C 
BRANCH  22  23
HETATM   23  C   UNL     1     -44.994  58.034 -51.060  1.00  0.00     0.236 C 
BRANCH  23  24
HETATM   24  N   UNL     1     -44.453  59.300 -50.452  1.00  0.00    -0.067 N 
HETATM   25  H   UNL     1     -44.215  59.157 -49.459  1.00  0.00     0.280 HD
HETATM   26  C   UNL     1     -43.154  59.821 -51.067  1.00  0.00     0.261 C 
HETATM   27  C   UNL     1     -42.741  61.131 -50.380  1.00  0.00     0.195 C 
HETATM   28  O   UNL     1     -43.779  62.113 -50.486  1.00  0.00    -0.388 OA
HETATM   29  C   UNL     1     -44.969  61.678 -49.823  1.00  0.00     0.195 C 
HETATM   30  C   UNL     1     -45.513  60.403 -50.471  1.00  0.00     0.261 C 
ENDBRANCH  23  24
ENDBRANCH  22  23
ENDBRANCH  21  22
ENDBRANCH   1  21
BRANCH   3  31
HETATM   31  C   UNL     1     -41.193  53.342 -52.811  1.00  0.00     0.037 A 
HETATM   32  C   UNL     1     -40.759  52.440 -53.787  1.00  0.00     0.053 A 
HETATM   33  C   UNL     1     -39.930  51.373 -53.431  1.00  0.00     0.036 A 
HETATM   34 CL   UNL     1     -39.462  50.228 -54.627  1.00  0.00    -0.084 Cl
HETATM   35  C   UNL     1     -39.495  51.216 -52.118  1.00  0.00     0.024 A 
HETATM   36  C   UNL     1     -39.898  52.132 -51.149  1.00  0.00     0.004 A 
HETATM   37  C   UNL     1     -40.751  53.184 -51.493  1.00  0.00     0.029 A 
ENDBRANCH   3  31
TORSDOF 9
ENDMDL
MODEL 9
REMARK VINA RESULT:      -7.9      2.470      5.512
REMARK  9 active torsions:
REMARK  status: ('A' for Active; 'I' for Inactive)
REMARK    1  A    between atoms: C_2  and  C_3 
REMARK    2  A    between atoms: C_8  and  O_9 
REMARK    3  A    between atoms: C_10  and  C_11 
REMARK    4  A    between atoms: C_11  and  N_12 
REMARK       I    between atoms: N_12  and  C_13 
REMARK    5  A    between atoms: N_12  and  C_23 
REMARK       I    between atoms: C_13  and  N_14 
REMARK    6  A    between atoms: N_14  and  C_15 
REMARK    7  A    between atoms: C_23  and  C_24 
REMARK    8  A    between atoms: C_24  and  C_25 
REMARK    9  A    between atoms: C_25  and  N_26 
ROOT
HETATM    1  N   UNL     1     -41.965  56.692 -51.778  1.00  0.00    -0.330 N 
HETATM    2  C   UNL     1     -42.637  57.874 -51.499  1.00  0.00     0.323 C 
HETATM    3  N   UNL     1     -43.865  57.977 -52.103  1.00  0.00    -0.309 N 
HETATM    4  O   UNL     1     -42.063  58.812 -50.950  1.00  0.00    -0.247 OA
HETATM    5  H   UNL     1     -44.201  57.162 -52.601  1.00  0.00     0.170 HD
ENDROOT
BRANCH   1   6
HETATM    6  C   UNL     1     -40.878  56.325 -50.847  1.00  0.00     0.170 C 
BRANCH   6   7
HETATM    7  C   UNL     1     -40.680  54.850 -50.649  1.00  0.00     0.013 A 
HETATM    8  C   UNL     1     -40.825  54.276 -49.399  1.00  0.00     0.170 A 
HETATM    9  N   UNL     1     -40.674  52.979 -49.101  1.00  0.00    -0.224 NA
HETATM   10  C   UNL     1     -40.349  52.152 -50.109  1.00  0.00     0.070 A 
HETATM   11  C   UNL     1     -40.146  52.613 -51.429  1.00  0.00    -0.006 A 
HETATM   12  C   UNL     1     -40.205  50.797 -49.858  1.00  0.00     0.033 A 
HETATM   13  C   UNL     1     -39.807  51.707 -52.449  1.00  0.00     0.021 A 
HETATM   14  C   UNL     1     -40.301  53.986 -51.679  1.00  0.00     0.027 A 
HETATM   15  C   UNL     1     -39.682  50.338 -52.179  1.00  0.00    -0.058 A 
HETATM   16  C   UNL     1     -39.875  49.892 -50.870  1.00  0.00     0.009 A 
BRANCH   8  17
HETATM   17  O   UNL     1     -41.148  55.025 -48.312  1.00  0.00    -0.344 OA
HETATM   18  H   UNL     1     -42.042  54.671 -48.143  1.00  0.00     0.219 HD
ENDBRANCH   8  17
BRANCH  15  19
HETATM   19  C   UNL     1     -39.320  49.366 -53.273  1.00  0.00     0.034 C 
HETATM   20  C   UNL     1     -39.742  49.870 -54.644  1.00  0.00     0.010 C 
ENDBRANCH  15  19
ENDBRANCH   6   7
ENDBRANCH   1   6
BRANCH   1  21
HETATM   21  C   UNL     1     -41.700  56.386 -53.187  1.00  0.00     0.129 C 
BRANCH  21  22
HETATM   22  C   UNL     1     -42.558  55.246 -53.776  1.00  0.00     0.048 C 
BRANCH  22  23
HETATM   23  C   UNL     1     -43.741  55.661 -54.659  1.00  0.00     0.236 C 
BRANCH  23  24
HETATM   24  N   UNL     1     -43.404  56.486 -55.873  1.00  0.00    -0.067 N 
HETATM   25  H   UNL     1     -42.531  57.015 -55.726  1.00  0.00     0.280 HD
HETATM   26  C   UNL     1     -43.139  55.693 -57.152  1.00  0.00     0.261 C 
HETATM   27  C   UNL     1     -42.848  56.657 -58.312  1.00  0.00     0.195 C 
HETATM   28  O   UNL     1     -43.935  57.572 -58.501  1.00  0.00    -0.388 OA
HETATM   29  C   UNL     1     -44.125  58.391 -57.344  1.00  0.00     0.195 C 
HETATM   30  C   UNL     1     -44.488  57.535 -56.130  1.00  0.00     0.261 C 
ENDBRANCH  23  24
ENDBRANCH  22  23
ENDBRANCH  21  22
ENDBRANCH   1  21
BRANCH   3  31
HETATM   31  C   UNL     1     -44.753  59.068 -51.999  1.00  0.00     0.037 A 
HETATM   32  C   UNL     1     -45.095  59.743 -53.174  1.00  0.00     0.053 A 
HETATM   33  C   UNL     1     -45.947  60.848 -53.121  1.00  0.00     0.036 A 
HETATM   34 CL   UNL     1     -46.302  61.715 -54.563  1.00  0.00    -0.084 Cl
HETATM   35  C   UNL     1     -46.496  61.267 -51.912  1.00  0.00     0.024 A 
HETATM   36  C   UNL     1     -46.185  60.577 -50.743  1.00  0.00     0.004 A 
HETATM   37  C   UNL     1     -45.309  59.488 -50.786  1.00  0.00     0.029 A 
ENDBRANCH   3  31
TORSDOF 9
ENDMDL
MODEL 10
REMARK VINA RESULT:      -7.9      3.233      6.834
REMARK  9 active torsions:
REMARK  status: ('A' for Active; 'I' for Inactive)
REMARK    1  A    between atoms: C_2  and  C_3 
REMARK    2  A    between atoms: C_8  and  O_9 
REMARK    3  A    between atoms: C_10  and  C_11 
REMARK    4  A    between atoms: C_11  and  N_12 
REMARK       I    between atoms: N_12  and  C_13 
REMARK    5  A    between atoms: N_12  and  C_23 
REMARK       I    between atoms: C_13  and  N_14 
REMARK    6  A    between atoms: N_14  and  C_15 
REMARK    7  A    between atoms: C_23  and  C_24 
REMARK    8  A    between atoms: C_24  and  C_25 
REMARK    9  A    between atoms: C_25  and  N_26 
ROOT
HETATM    1  N   UNL     1     -43.233  59.793 -52.499  1.00  0.00    -0.330 N 
HETATM    2  C   UNL     1     -43.586  60.555 -51.394  1.00  0.00     0.323 C 
HETATM    3  N   UNL     1     -44.930  60.555 -51.119  1.00  0.00    -0.309 N 
HETATM    4  O   UNL     1     -42.780  61.324 -50.874  1.00  0.00    -0.247 OA
HETATM    5  H   UNL     1     -45.512  59.937 -51.672  1.00  0.00     0.170 HD
ENDROOT
BRANCH   1   6
HETATM    6  C   UNL     1     -41.812  59.396 -52.591  1.00  0.00     0.170 C 
BRANCH   6   7
HETATM    7  C   UNL     1     -41.527  57.964 -52.238  1.00  0.00     0.013 A 
HETATM    8  C   UNL     1     -41.322  57.585 -50.924  1.00  0.00     0.170 A 
HETATM    9  N   UNL     1     -41.061  56.345 -50.490  1.00  0.00    -0.224 NA
HETATM   10  C   UNL     1     -40.990  55.373 -51.416  1.00  0.00     0.070 A 
HETATM   11  C   UNL     1     -41.155  55.630 -52.795  1.00  0.00    -0.006 A 
HETATM   12  C   UNL     1     -40.746  54.069 -51.016  1.00  0.00     0.033 A 
HETATM   13  C   UNL     1     -41.072  54.579 -53.725  1.00  0.00     0.021 A 
HETATM   14  C   UNL     1     -41.409  56.953 -53.194  1.00  0.00     0.027 A 
HETATM   15  C   UNL     1     -40.841  53.264 -53.300  1.00  0.00    -0.058 A 
HETATM   16  C   UNL     1     -40.670  53.019 -51.936  1.00  0.00     0.009 A 
BRANCH   8  17
HETATM   17  O   UNL     1     -41.368  58.490 -49.913  1.00  0.00    -0.344 OA
HETATM   18  H   UNL     1     -42.175  58.175 -49.462  1.00  0.00     0.219 HD
ENDBRANCH   8  17
BRANCH  15  19
HETATM   19  C   UNL     1     -40.753  52.136 -54.296  1.00  0.00     0.034 C 
HETATM   20  C   UNL     1     -39.784  51.054 -53.844  1.00  0.00     0.010 C 
ENDBRANCH  15  19
ENDBRANCH   6   7
ENDBRANCH   1   6
BRANCH   1  21
HETATM   21  C   UNL     1     -43.861  60.134 -53.779  1.00  0.00     0.129 C 
BRANCH  21  22
HETATM   22  C   UNL     1     -44.673  58.993 -54.428  1.00  0.00     0.048 C 
BRANCH  22  23
HETATM   23  C   UNL     1     -45.223  59.253 -55.836  1.00  0.00     0.236 C 
BRANCH  23  24
HETATM   24  N   UNL     1     -44.535  58.526 -56.960  1.00  0.00    -0.067 N 
HETATM   25  H   UNL     1     -43.887  59.154 -57.461  1.00  0.00     0.280 HD
HETATM   26  C   UNL     1     -43.653  57.352 -56.540  1.00  0.00     0.261 C 
HETATM   27  C   UNL     1     -43.048  56.682 -57.783  1.00  0.00     0.195 C 
HETATM   28  O   UNL     1     -44.078  56.245 -58.679  1.00  0.00    -0.388 OA
HETATM   29  C   UNL     1     -44.845  57.352 -59.160  1.00  0.00     0.195 C 
HETATM   30  C   UNL     1     -45.552  58.062 -58.005  1.00  0.00     0.261 C 
ENDBRANCH  23  24
ENDBRANCH  22  23
ENDBRANCH  21  22
ENDBRANCH   1  21
BRANCH   3  31
HETATM   31  C   UNL     1     -45.562  61.246 -50.064  1.00  0.00     0.037 A 
HETATM   32  C   UNL     1     -45.253  60.859 -48.757  1.00  0.00     0.053 A 
HETATM   33  C   UNL     1     -45.875  61.491 -47.678  1.00  0.00     0.036 A 
HETATM   34 CL   UNL     1     -45.542  60.957 -46.077  1.00  0.00    -0.084 Cl
HETATM   35  C   UNL     1     -46.773  62.535 -47.884  1.00  0.00     0.024 A 
HETATM   36  C   UNL     1     -47.058  62.946 -49.184  1.00  0.00     0.004 A 
HETATM   37  C   UNL     1     -46.462  62.297 -50.269  1.00  0.00     0.029 A 
ENDBRANCH   3  31
TORSDOF 9
ENDMDL
