MODEL 1
REMARK VINA RESULT:      -9.0      0.000      0.000
REMARK  3 active torsions:
REMARK  status: ('A' for Active; 'I' for Inactive)
REMARK    1  A    between atoms: C_9  and  C_10 
REMARK       I    between atoms: C_10  and  N_11 
REMARK    2  A    between atoms: N_11  and  C_12 
REMARK    3  A    between atoms: C_19  and  C_20 
REMARK       I    between atoms: C_20  and  N_21 
ROOT
HETATM    1  C   UNL     1     -43.599  56.912 -55.671  1.00  0.00     0.035 A 
HETATM    2  C   UNL     1     -43.512  56.755 -57.061  1.00  0.00     0.046 A 
HETATM    3  C   UNL     1     -44.387  57.471 -57.903  1.00  0.00     0.030 A 
HETATM    4  C   UNL     1     -45.297  58.349 -57.331  1.00  0.00     0.063 A 
HETATM    5  N   UNL     1     -45.988  58.883 -58.382  1.00  0.00    -0.277 N 
HETATM    6  H   UNL     1     -46.733  59.569 -58.342  1.00  0.00     0.189 HD
HETATM    7  N   UNL     1     -45.629  58.406 -59.588  1.00  0.00    -0.168 NA
HETATM    8  C   UNL     1     -44.640  57.527 -59.305  1.00  0.00     0.156 A 
HETATM    9  C   UNL     1     -45.395  58.550 -55.951  1.00  0.00     0.034 A 
HETATM   10  C   UNL     1     -44.536  57.801 -55.132  1.00  0.00     0.032 A 
ENDROOT
BRANCH   1  11
HETATM   11  N   UNL     1     -42.838  56.133 -54.776  1.00  0.00    -0.325 N 
HETATM   12  C   UNL     1     -41.637  56.502 -54.191  1.00  0.00     0.252 C 
HETATM   13  O   UNL     1     -41.227  57.652 -54.063  1.00  0.00    -0.270 OA
HETATM   14  H   UNL     1     -43.187  55.211 -54.533  1.00  0.00     0.169 HD
BRANCH  12  15
HETATM   15  C   UNL     1     -40.775  55.292 -53.832  1.00  0.00     0.225 C 
HETATM   16  C   UNL     1     -41.049  54.795 -52.410  1.00  0.00     0.083 C 
HETATM   17  C   UNL     1     -40.561  53.410 -52.592  1.00  0.00    -0.021 A 
HETATM   18  C   UNL     1     -40.538  53.114 -53.945  1.00  0.00     0.076 A 
HETATM   19  C   UNL     1     -40.195  52.473 -51.646  1.00  0.00     0.017 A 
HETATM   20  C   UNL     1     -40.161  51.872 -54.408  1.00  0.00     0.044 A 
HETATM   21  O   UNL     1     -40.906  54.175 -54.740  1.00  0.00    -0.336 OA
HETATM   22  C   UNL     1     -39.754  50.903 -53.471  1.00  0.00    -0.053 A 
HETATM   23  C   UNL     1     -39.779  51.205 -52.080  1.00  0.00    -0.055 A 
HETATM   24  C   UNL     1     -39.319  49.549 -53.963  1.00  0.00     0.049 C 
HETATM   25  C   UNL     1     -39.328  50.201 -51.052  1.00  0.00     0.049 C 
ENDBRANCH  12  15
ENDBRANCH   1  11
BRANCH   8  26
HETATM   26  C   UNL     1     -43.980  56.745 -60.361  1.00  0.00     0.270 C 
HETATM   27  N   UNL     1     -44.833  55.982 -61.111  1.00  0.00    -0.365 N 
HETATM   28  H   UNL     1     -45.821  55.990 -60.883  1.00  0.00     0.159 HD
HETATM   29  H   UNL     1     -44.462  55.386 -61.834  1.00  0.00     0.159 HD
HETATM   30  O   UNL     1     -42.772  56.732 -60.571  1.00  0.00    -0.266 OA
ENDBRANCH   8  26
TORSDOF 3
ENDMDL
MODEL 2
REMARK VINA RESULT:      -8.9      4.470      5.903
REMARK  3 active torsions:
REMARK  status: ('A' for Active; 'I' for Inactive)
REMARK    1  A    between atoms: C_9  and  C_10 
REMARK       I    between atoms: C_10  and  N_11 
REMARK    2  A    between atoms: N_11  and  C_12 
REMARK    3  A    between atoms: C_19  and  C_20 
REMARK       I    between atoms: C_20  and  N_21 
ROOT
HETATM    1  C   UNL     1     -41.831  58.375 -51.461  1.00  0.00     0.035 A 
HETATM    2  C   UNL     1     -43.198  58.676 -51.526  1.00  0.00     0.046 A 
HETATM    3  C   UNL     1     -43.665  59.916 -51.046  1.00  0.00     0.030 A 
HETATM    4  C   UNL     1     -42.747  60.830 -50.548  1.00  0.00     0.063 A 
HETATM    5  N   UNL     1     -43.489  61.913 -50.169  1.00  0.00    -0.277 N 
HETATM    6  H   UNL     1     -43.151  62.778 -49.764  1.00  0.00     0.189 HD
HETATM    7  N   UNL     1     -44.816  61.772 -50.348  1.00  0.00    -0.168 NA
HETATM    8  C   UNL     1     -44.939  60.538 -50.887  1.00  0.00     0.156 A 
HETATM    9  C   UNL     1     -41.374  60.573 -50.490  1.00  0.00     0.034 A 
HETATM   10  C   UNL     1     -40.937  59.319 -50.943  1.00  0.00     0.032 A 
ENDROOT
BRANCH   1  11
HETATM   11  N   UNL     1     -41.322  57.107 -51.809  1.00  0.00    -0.325 N 
HETATM   12  C   UNL     1     -41.327  56.546 -53.077  1.00  0.00     0.252 C 
HETATM   13  O   UNL     1     -41.433  57.164 -54.133  1.00  0.00    -0.270 OA
HETATM   14  H   UNL     1     -40.917  56.538 -51.072  1.00  0.00     0.169 HD
BRANCH  12  15
HETATM   15  C   UNL     1     -41.328  55.018 -53.032  1.00  0.00     0.225 C 
HETATM   16  C   UNL     1     -40.698  54.408 -54.286  1.00  0.00     0.083 C 
HETATM   17  C   UNL     1     -40.341  53.096 -53.703  1.00  0.00    -0.021 A 
HETATM   18  C   UNL     1     -40.314  53.206 -52.323  1.00  0.00     0.076 A 
HETATM   19  C   UNL     1     -40.033  51.905 -54.333  1.00  0.00     0.017 A 
HETATM   20  C   UNL     1     -39.971  52.143 -51.517  1.00  0.00     0.044 A 
HETATM   21  O   UNL     1     -40.676  54.456 -51.871  1.00  0.00    -0.336 OA
HETATM   22  C   UNL     1     -39.680  50.907 -52.126  1.00  0.00    -0.053 A 
HETATM   23  C   UNL     1     -39.705  50.791 -53.545  1.00  0.00    -0.055 A 
HETATM   24  C   UNL     1     -39.325  49.730 -51.258  1.00  0.00     0.049 C 
HETATM   25  C   UNL     1     -39.423  49.480 -54.229  1.00  0.00     0.049 C 
ENDBRANCH  12  15
ENDBRANCH   1  11
BRANCH   8  26
HETATM   26  C   UNL     1     -46.255  59.967 -51.213  1.00  0.00     0.270 C 
HETATM   27  N   UNL     1     -46.945  60.660 -52.171  1.00  0.00    -0.365 N 
HETATM   28  H   UNL     1     -46.528  61.498 -52.559  1.00  0.00     0.159 HD
HETATM   29  H   UNL     1     -47.871  60.360 -52.430  1.00  0.00     0.159 HD
HETATM   30  O   UNL     1     -46.737  58.973 -50.681  1.00  0.00    -0.266 OA
ENDBRANCH   8  26
TORSDOF 3
ENDMDL
MODEL 3
REMARK VINA RESULT:      -8.5      3.780      5.542
REMARK  3 active torsions:
REMARK  status: ('A' for Active; 'I' for Inactive)
REMARK    1  A    between atoms: C_9  and  C_10 
REMARK       I    between atoms: C_10  and  N_11 
REMARK    2  A    between atoms: N_11  and  C_12 
REMARK    3  A    between atoms: C_19  and  C_20 
REMARK       I    between atoms: C_20  and  N_21 
ROOT
HETATM    1  C   UNL     1     -42.346  59.306 -53.337  1.00  0.00     0.035 A 
HETATM    2  C   UNL     1     -43.310  59.228 -52.323  1.00  0.00     0.046 A 
HETATM    3  C   UNL     1     -44.090  60.358 -52.009  1.00  0.00     0.030 A 
HETATM    4  C   UNL     1     -43.908  61.522 -52.743  1.00  0.00     0.063 A 
HETATM    5  N   UNL     1     -44.793  62.420 -52.215  1.00  0.00    -0.277 N 
HETATM    6  H   UNL     1     -44.942  63.379 -52.507  1.00  0.00     0.189 HD
HETATM    7  N   UNL     1     -45.514  61.952 -51.180  1.00  0.00    -0.168 NA
HETATM    8  C   UNL     1     -45.086  60.677 -51.039  1.00  0.00     0.156 A 
HETATM    9  C   UNL     1     -42.974  61.630 -53.777  1.00  0.00     0.034 A 
HETATM   10  C   UNL     1     -42.186  60.501 -54.049  1.00  0.00     0.032 A 
ENDROOT
BRANCH   1  11
HETATM   11  N   UNL     1     -41.452  58.251 -53.611  1.00  0.00    -0.325 N 
HETATM   12  C   UNL     1     -41.708  57.154 -54.419  1.00  0.00     0.252 C 
HETATM   13  O   UNL     1     -42.575  57.092 -55.288  1.00  0.00    -0.270 OA
HETATM   14  H   UNL     1     -40.534  58.280 -53.178  1.00  0.00     0.169 HD
BRANCH  12  15
HETATM   15  C   UNL     1     -40.875  55.937 -54.020  1.00  0.00     0.225 C 
HETATM   16  C   UNL     1     -41.218  55.445 -52.612  1.00  0.00     0.083 C 
HETATM   17  C   UNL     1     -40.736  54.055 -52.771  1.00  0.00    -0.021 A 
HETATM   18  C   UNL     1     -40.655  53.756 -54.120  1.00  0.00     0.076 A 
HETATM   19  C   UNL     1     -40.422  53.116 -51.808  1.00  0.00     0.017 A 
HETATM   20  C   UNL     1     -40.271  52.510 -54.564  1.00  0.00     0.044 A 
HETATM   21  O   UNL     1     -40.977  54.820 -54.932  1.00  0.00    -0.336 OA
HETATM   22  C   UNL     1     -39.916  51.538 -53.609  1.00  0.00    -0.053 A 
HETATM   23  C   UNL     1     -40.000  51.842 -52.221  1.00  0.00    -0.055 A 
HETATM   24  C   UNL     1     -39.473  50.179 -54.080  1.00  0.00     0.049 C 
HETATM   25  C   UNL     1     -39.606  50.836 -51.173  1.00  0.00     0.049 C 
ENDBRANCH  12  15
ENDBRANCH   1  11
BRANCH   8  26
HETATM   26  C   UNL     1     -45.607  59.802 -49.978  1.00  0.00     0.270 C 
HETATM   27  N   UNL     1     -45.316  60.225 -48.709  1.00  0.00    -0.365 N 
HETATM   28  H   UNL     1     -44.764  61.067 -48.592  1.00  0.00     0.159 HD
HETATM   29  H   UNL     1     -45.603  59.667 -47.921  1.00  0.00     0.159 HD
HETATM   30  O   UNL     1     -46.233  58.766 -50.170  1.00  0.00    -0.266 OA
ENDBRANCH   8  26
TORSDOF 3
ENDMDL
MODEL 4
REMARK VINA RESULT:      -8.4      4.412      5.760
REMARK  3 active torsions:
REMARK  status: ('A' for Active; 'I' for Inactive)
REMARK    1  A    between atoms: C_9  and  C_10 
REMARK       I    between atoms: C_10  and  N_11 
REMARK    2  A    between atoms: N_11  and  C_12 
REMARK    3  A    between atoms: C_19  and  C_20 
REMARK       I    between atoms: C_20  and  N_21 
ROOT
HETATM    1  C   UNL     1     -42.954  58.261 -51.586  1.00  0.00     0.035 A 
HETATM    2  C   UNL     1     -42.843  59.656 -51.503  1.00  0.00     0.046 A 
HETATM    3  C   UNL     1     -43.979  60.431 -51.193  1.00  0.00     0.030 A 
HETATM    4  C   UNL     1     -45.181  59.786 -50.941  1.00  0.00     0.063 A 
HETATM    5  N   UNL     1     -46.074  60.786 -50.674  1.00  0.00    -0.277 N 
HETATM    6  H   UNL     1     -47.056  60.686 -50.441  1.00  0.00     0.189 HD
HETATM    7  N   UNL     1     -45.565  62.028 -50.761  1.00  0.00    -0.168 NA
HETATM    8  C   UNL     1     -44.268  61.823 -51.085  1.00  0.00     0.156 A 
HETATM    9  C   UNL     1     -45.323  58.396 -50.991  1.00  0.00     0.034 A 
HETATM   10  C   UNL     1     -44.187  57.648 -51.334  1.00  0.00     0.032 A 
ENDROOT
BRANCH   1  11
HETATM   11  N   UNL     1     -41.887  57.444 -52.013  1.00  0.00    -0.325 N 
HETATM   12  C   UNL     1     -41.813  56.763 -53.217  1.00  0.00     0.252 C 
HETATM   13  O   UNL     1     -42.458  57.026 -54.229  1.00  0.00    -0.270 OA
HETATM   14  H   UNL     1     -41.096  57.330 -51.387  1.00  0.00     0.169 HD
BRANCH  12  15
HETATM   15  C   UNL     1     -40.927  55.521 -53.124  1.00  0.00     0.225 C 
HETATM   16  C   UNL     1     -41.096  54.795 -51.788  1.00  0.00     0.083 C 
HETATM   17  C   UNL     1     -40.622  53.465 -52.229  1.00  0.00    -0.021 A 
HETATM   18  C   UNL     1     -40.698  53.394 -53.610  1.00  0.00     0.076 A 
HETATM   19  C   UNL     1     -40.187  52.390 -51.478  1.00  0.00     0.017 A 
HETATM   20  C   UNL     1     -40.356  52.249 -54.296  1.00  0.00     0.044 A 
HETATM   21  O   UNL     1     -41.124  54.566 -54.191  1.00  0.00    -0.336 OA
HETATM   22  C   UNL     1     -39.880  51.145 -53.563  1.00  0.00    -0.053 A 
HETATM   23  C   UNL     1     -39.803  51.215 -52.143  1.00  0.00    -0.055 A 
HETATM   24  C   UNL     1     -39.482  49.895 -54.300  1.00  0.00     0.049 C 
HETATM   25  C   UNL     1     -39.279  50.063 -51.329  1.00  0.00     0.049 C 
ENDBRANCH  12  15
ENDBRANCH   1  11
BRANCH   8  26
HETATM   26  C   UNL     1     -43.345  62.945 -51.312  1.00  0.00     0.270 C 
HETATM   27  N   UNL     1     -42.803  63.466 -50.168  1.00  0.00    -0.365 N 
HETATM   28  H   UNL     1     -43.082  63.073 -49.276  1.00  0.00     0.159 HD
HETATM   29  H   UNL     1     -42.187  64.261 -50.228  1.00  0.00     0.159 HD
HETATM   30  O   UNL     1     -43.073  63.416 -52.411  1.00  0.00    -0.266 OA
ENDBRANCH   8  26
TORSDOF 3
ENDMDL
MODEL 5
REMARK VINA RESULT:      -8.3      3.682      5.333
REMARK  3 active torsions:
REMARK  status: ('A' for Active; 'I' for Inactive)
REMARK    1  A    between atoms: C_9  and  C_10 
REMARK       I    between atoms: C_10  and  N_11 
REMARK    2  A    between atoms: N_11  and  C_12 
REMARK    3  A    between atoms: C_19  and  C_20 
REMARK       I    between atoms: C_20  and  N_21 
ROOT
HETATM    1  C   UNL     1     -43.942  57.513 -52.478  1.00  0.00     0.035 A 
HETATM    2  C   UNL     1     -44.440  58.517 -51.636  1.00  0.00     0.046 A 
HETATM    3  C   UNL     1     -45.189  59.579 -52.180  1.00  0.00     0.030 A 
HETATM    4  C   UNL     1     -45.447  59.586 -53.544  1.00  0.00     0.063 A 
HETATM    5  N   UNL     1     -46.182  60.718 -53.763  1.00  0.00    -0.277 N 
HETATM    6  H   UNL     1     -46.554  61.048 -54.647  1.00  0.00     0.189 HD
HETATM    7  N   UNL     1     -46.398  61.466 -52.665  1.00  0.00    -0.168 NA
HETATM    8  C   UNL     1     -45.785  60.774 -51.678  1.00  0.00     0.156 A 
HETATM    9  C   UNL     1     -44.988  58.590 -54.410  1.00  0.00     0.034 A 
HETATM   10  C   UNL     1     -44.217  57.560 -53.850  1.00  0.00     0.032 A 
ENDROOT
BRANCH   1  11
HETATM   11  N   UNL     1     -43.084  56.496 -52.012  1.00  0.00    -0.325 N 
HETATM   12  C   UNL     1     -41.818  56.679 -51.479  1.00  0.00     0.252 C 
HETATM   13  O   UNL     1     -41.386  57.724 -51.001  1.00  0.00    -0.270 OA
HETATM   14  H   UNL     1     -43.408  55.536 -52.073  1.00  0.00     0.169 HD
BRANCH  12  15
HETATM   15  C   UNL     1     -40.927  55.452 -51.676  1.00  0.00     0.225 C 
HETATM   16  C   UNL     1     -41.086  54.441 -50.538  1.00  0.00     0.083 C 
HETATM   17  C   UNL     1     -40.612  53.247 -51.272  1.00  0.00    -0.021 A 
HETATM   18  C   UNL     1     -40.696  53.491 -52.633  1.00  0.00     0.076 A 
HETATM   19  C   UNL     1     -40.169  52.032 -50.787  1.00  0.00     0.017 A 
HETATM   20  C   UNL     1     -40.355  52.533 -53.563  1.00  0.00     0.044 A 
HETATM   21  O   UNL     1     -41.129  54.763 -52.931  1.00  0.00    -0.336 OA
HETATM   22  C   UNL     1     -39.872  51.293 -53.102  1.00  0.00    -0.053 A 
HETATM   23  C   UNL     1     -39.787  51.040 -51.704  1.00  0.00    -0.055 A 
HETATM   24  C   UNL     1     -39.476  50.245 -54.106  1.00  0.00     0.049 C 
HETATM   25  C   UNL     1     -39.254  49.735 -51.176  1.00  0.00     0.049 C 
ENDBRANCH  12  15
ENDBRANCH   1  11
BRANCH   8  26
HETATM   26  C   UNL     1     -45.754  61.270 -50.294  1.00  0.00     0.270 C 
HETATM   27  N   UNL     1     -45.248  62.535 -50.163  1.00  0.00    -0.365 N 
HETATM   28  H   UNL     1     -44.921  63.016 -50.993  1.00  0.00     0.159 HD
HETATM   29  H   UNL     1     -45.156  62.941 -49.245  1.00  0.00     0.159 HD
HETATM   30  O   UNL     1     -46.120  60.632 -49.314  1.00  0.00    -0.266 OA
ENDBRANCH   8  26
TORSDOF 3
ENDMDL
MODEL 6
REMARK VINA RESULT:      -8.2      3.467      9.044
REMARK  3 active torsions:
REMARK  status: ('A' for Active; 'I' for Inactive)
REMARK    1  A    between atoms: C_9  and  C_10 
REMARK       I    between atoms: C_10  and  N_11 
REMARK    2  A    between atoms: N_11  and  C_12 
REMARK    3  A    between atoms: C_19  and  C_20 
REMARK       I    between atoms: C_20  and  N_21 
ROOT
HETATM    1  C   UNL     1     -41.071  55.211 -54.106  1.00  0.00     0.035 A 
HETATM    2  C   UNL     1     -40.979  55.011 -52.721  1.00  0.00     0.046 A 
HETATM    3  C   UNL     1     -40.566  53.760 -52.221  1.00  0.00     0.030 A 
HETATM    4  C   UNL     1     -40.224  52.760 -53.120  1.00  0.00     0.063 A 
HETATM    5  N   UNL     1     -39.871  51.689 -52.346  1.00  0.00    -0.277 N 
HETATM    6  H   UNL     1     -39.559  50.779 -52.663  1.00  0.00     0.189 HD
HETATM    7  N   UNL     1     -39.983  51.896 -51.021  1.00  0.00    -0.168 NA
HETATM    8  C   UNL     1     -40.417  53.174 -50.929  1.00  0.00     0.156 A 
HETATM    9  C   UNL     1     -40.280  52.931 -54.506  1.00  0.00     0.034 A 
HETATM   10  C   UNL     1     -40.726  54.174 -54.980  1.00  0.00     0.032 A 
ENDROOT
BRANCH   1  11
HETATM   11  N   UNL     1     -41.596  56.395 -54.663  1.00  0.00    -0.325 N 
HETATM   12  C   UNL     1     -42.921  56.620 -55.001  1.00  0.00     0.252 C 
HETATM   13  O   UNL     1     -43.887  56.002 -54.561  1.00  0.00    -0.270 OA
HETATM   14  H   UNL     1     -40.954  57.160 -54.845  1.00  0.00     0.169 HD
BRANCH  12  15
HETATM   15  C   UNL     1     -43.064  57.652 -56.119  1.00  0.00     0.225 C 
HETATM   16  C   UNL     1     -42.264  58.924 -55.830  1.00  0.00     0.083 C 
HETATM   17  C   UNL     1     -42.139  59.396 -57.227  1.00  0.00    -0.021 A 
HETATM   18  C   UNL     1     -42.365  58.332 -58.084  1.00  0.00     0.076 A 
HETATM   19  C   UNL     1     -41.824  60.651 -57.708  1.00  0.00     0.017 A 
HETATM   20  C   UNL     1     -42.273  58.472 -59.452  1.00  0.00     0.044 A 
HETATM   21  O   UNL     1     -42.694  57.167 -57.430  1.00  0.00    -0.336 OA
HETATM   22  C   UNL     1     -41.982  59.746 -59.977  1.00  0.00    -0.053 A 
HETATM   23  C   UNL     1     -41.749  60.841 -59.097  1.00  0.00    -0.055 A 
HETATM   24  C   UNL     1     -41.901  59.920 -61.469  1.00  0.00     0.049 C 
HETATM   25  C   UNL     1     -41.458  62.220 -59.624  1.00  0.00     0.049 C 
ENDBRANCH  12  15
ENDBRANCH   1  11
BRANCH   8  26
HETATM   26  C   UNL     1     -40.705  53.798 -49.629  1.00  0.00     0.270 C 
HETATM   27  N   UNL     1     -39.592  54.207 -48.945  1.00  0.00    -0.365 N 
HETATM   28  H   UNL     1     -38.680  54.038 -49.354  1.00  0.00     0.159 HD
HETATM   29  H   UNL     1     -39.694  54.614 -48.029  1.00  0.00     0.159 HD
HETATM   30  O   UNL     1     -41.826  53.940 -49.155  1.00  0.00    -0.266 OA
ENDBRANCH   8  26
TORSDOF 3
ENDMDL
MODEL 7
REMARK VINA RESULT:      -8.2     15.169     17.075
REMARK  3 active torsions:
REMARK  status: ('A' for Active; 'I' for Inactive)
REMARK    1  A    between atoms: C_9  and  C_10 
REMARK       I    between atoms: C_10  and  N_11 
REMARK    2  A    between atoms: N_11  and  C_12 
REMARK    3  A    between atoms: C_19  and  C_20 
REMARK       I    between atoms: C_20  and  N_21 
ROOT
HETATM    1  C   UNL     1     -37.799  39.521 -59.823  1.00  0.00     0.035 A 
HETATM    2  C   UNL     1     -39.062  38.952 -60.033  1.00  0.00     0.046 A 
HETATM    3  C   UNL     1     -39.365  38.357 -61.274  1.00  0.00     0.030 A 
HETATM    4  C   UNL     1     -38.383  38.317 -62.254  1.00  0.00     0.063 A 
HETATM    5  N   UNL     1     -38.966  37.689 -63.319  1.00  0.00    -0.277 N 
HETATM    6  H   UNL     1     -38.542  37.480 -64.216  1.00  0.00     0.189 HD
HETATM    7  N   UNL     1     -40.252  37.343 -63.129  1.00  0.00    -0.168 NA
HETATM    8  C   UNL     1     -40.514  37.755 -61.867  1.00  0.00     0.156 A 
HETATM    9  C   UNL     1     -37.105  38.852 -62.072  1.00  0.00     0.034 A 
HETATM   10  C   UNL     1     -36.838  39.469 -60.840  1.00  0.00     0.032 A 
ENDROOT
BRANCH   1  11
HETATM   11  N   UNL     1     -37.481  40.239 -58.652  1.00  0.00    -0.325 N 
HETATM   12  C   UNL     1     -37.033  41.549 -58.596  1.00  0.00     0.252 C 
HETATM   13  O   UNL     1     -37.178  42.394 -59.475  1.00  0.00    -0.270 OA
HETATM   14  H   UNL     1     -37.576  39.762 -57.761  1.00  0.00     0.169 HD
BRANCH  12  15
HETATM   15  C   UNL     1     -36.190  41.818 -57.349  1.00  0.00     0.225 C 
HETATM   16  C   UNL     1     -37.058  42.081 -56.117  1.00  0.00     0.083 C 
HETATM   17  C   UNL     1     -36.051  41.727 -55.092  1.00  0.00    -0.021 A 
HETATM   18  C   UNL     1     -35.065  40.949 -55.677  1.00  0.00     0.076 A 
HETATM   19  C   UNL     1     -36.016  42.036 -53.746  1.00  0.00     0.017 A 
HETATM   20  C   UNL     1     -34.015  40.440 -54.946  1.00  0.00     0.044 A 
HETATM   21  O   UNL     1     -35.248  40.769 -57.030  1.00  0.00    -0.336 OA
HETATM   22  C   UNL     1     -33.933  40.760 -53.577  1.00  0.00    -0.053 A 
HETATM   23  C   UNL     1     -34.946  41.558 -52.973  1.00  0.00    -0.055 A 
HETATM   24  C   UNL     1     -32.780  40.229 -52.770  1.00  0.00     0.049 C 
HETATM   25  C   UNL     1     -34.879  41.939 -51.518  1.00  0.00     0.049 C 
ENDBRANCH  12  15
ENDBRANCH   1  11
BRANCH   8  26
HETATM   26  C   UNL     1     -41.846  37.594 -61.265  1.00  0.00     0.270 C 
HETATM   27  N   UNL     1     -42.808  38.400 -61.810  1.00  0.00    -0.365 N 
HETATM   28  H   UNL     1     -42.544  39.043 -62.548  1.00  0.00     0.159 HD
HETATM   29  H   UNL     1     -43.743  38.382 -61.434  1.00  0.00     0.159 HD
HETATM   30  O   UNL     1     -42.108  36.833 -60.341  1.00  0.00    -0.266 OA
ENDBRANCH   8  26
TORSDOF 3
ENDMDL
MODEL 8
REMARK VINA RESULT:      -8.1     15.620     18.796
REMARK  3 active torsions:
REMARK  status: ('A' for Active; 'I' for Inactive)
REMARK    1  A    between atoms: C_9  and  C_10 
REMARK       I    between atoms: C_10  and  N_11 
REMARK    2  A    between atoms: N_11  and  C_12 
REMARK    3  A    between atoms: C_19  and  C_20 
REMARK       I    between atoms: C_20  and  N_21 
ROOT
HETATM    1  C   UNL     1     -33.849  40.490 -51.948  1.00  0.00     0.035 A 
HETATM    2  C   UNL     1     -34.620  39.889 -50.944  1.00  0.00     0.046 A 
HETATM    3  C   UNL     1     -33.987  39.322 -49.820  1.00  0.00     0.030 A 
HETATM    4  C   UNL     1     -32.605  39.404 -49.718  1.00  0.00     0.063 A 
HETATM    5  N   UNL     1     -32.296  38.778 -48.542  1.00  0.00    -0.277 N 
HETATM    6  H   UNL     1     -31.375  38.650 -48.138  1.00  0.00     0.189 HD
HETATM    7  N   UNL     1     -33.354  38.268 -47.885  1.00  0.00    -0.168 NA
HETATM    8  C   UNL     1     -34.408  38.594 -48.668  1.00  0.00     0.156 A 
HETATM    9  C   UNL     1     -31.806  40.016 -50.687  1.00  0.00     0.034 A 
HETATM   10  C   UNL     1     -32.456  40.544 -51.813  1.00  0.00     0.032 A 
ENDROOT
BRANCH   1  11
HETATM   11  N   UNL     1     -34.413  40.962 -53.151  1.00  0.00    -0.325 N 
HETATM   12  C   UNL     1     -35.308  42.013 -53.275  1.00  0.00     0.252 C 
HETATM   13  O   UNL     1     -35.476  42.910 -52.453  1.00  0.00    -0.270 OA
HETATM   14  H   UNL     1     -34.154  40.493 -54.014  1.00  0.00     0.169 HD
BRANCH  12  15
HETATM   15  C   UNL     1     -36.197  41.871 -54.510  1.00  0.00     0.225 C 
HETATM   16  C   UNL     1     -35.558  42.500 -55.750  1.00  0.00     0.083 C 
HETATM   17  C   UNL     1     -36.309  41.728 -56.766  1.00  0.00    -0.021 A 
HETATM   18  C   UNL     1     -36.828  40.589 -56.174  1.00  0.00     0.076 A 
HETATM   19  C   UNL     1     -36.497  41.989 -58.109  1.00  0.00     0.017 A 
HETATM   20  C   UNL     1     -37.544  39.660 -56.897  1.00  0.00     0.044 A 
HETATM   21  O   UNL     1     -36.567  40.510 -54.825  1.00  0.00    -0.336 OA
HETATM   22  C   UNL     1     -37.779  39.909 -58.263  1.00  0.00    -0.053 A 
HETATM   23  C   UNL     1     -37.244  41.079 -58.873  1.00  0.00    -0.055 A 
HETATM   24  C   UNL     1     -38.578  38.914 -59.060  1.00  0.00     0.049 C 
HETATM   25  C   UNL     1     -37.495  41.389 -60.325  1.00  0.00     0.049 C 
ENDBRANCH  12  15
ENDBRANCH   1  11
BRANCH   8  26
HETATM   26  C   UNL     1     -35.778  38.188 -48.322  1.00  0.00     0.270 C 
HETATM   27  N   UNL     1     -36.289  37.202 -49.122  1.00  0.00    -0.365 N 
HETATM   28  H   UNL     1     -35.719  36.848 -49.882  1.00  0.00     0.159 HD
HETATM   29  H   UNL     1     -37.236  36.888 -48.980  1.00  0.00     0.159 HD
HETATM   30  O   UNL     1     -36.446  38.679 -47.419  1.00  0.00    -0.266 OA
ENDBRANCH   8  26
TORSDOF 3
ENDMDL
MODEL 9
REMARK VINA RESULT:      -8.0      1.815      2.537
REMARK  3 active torsions:
REMARK  status: ('A' for Active; 'I' for Inactive)
REMARK    1  A    between atoms: C_9  and  C_10 
REMARK       I    between atoms: C_10  and  N_11 
REMARK    2  A    between atoms: N_11  and  C_12 
REMARK    3  A    between atoms: C_19  and  C_20 
REMARK       I    between atoms: C_20  and  N_21 
ROOT
HETATM    1  C   UNL     1     -43.860  58.164 -55.744  1.00  0.00     0.035 A 
HETATM    2  C   UNL     1     -43.791  57.327 -56.867  1.00  0.00     0.046 A 
HETATM    3  C   UNL     1     -44.596  57.596 -57.991  1.00  0.00     0.030 A 
HETATM    4  C   UNL     1     -45.420  58.712 -57.973  1.00  0.00     0.063 A 
HETATM    5  N   UNL     1     -46.060  58.705 -59.181  1.00  0.00    -0.277 N 
HETATM    6  H   UNL     1     -46.738  59.377 -59.521  1.00  0.00     0.189 HD
HETATM    7  N   UNL     1     -45.748  57.663 -59.972  1.00  0.00    -0.168 NA
HETATM    8  C   UNL     1     -44.844  56.965 -59.246  1.00  0.00     0.156 A 
HETATM    9  C   UNL     1     -45.498  59.582 -56.881  1.00  0.00     0.034 A 
HETATM   10  C   UNL     1     -44.711  59.275 -55.761  1.00  0.00     0.032 A 
ENDROOT
BRANCH   1  11
HETATM   11  N   UNL     1     -43.175  57.876 -54.546  1.00  0.00    -0.325 N 
HETATM   12  C   UNL     1     -41.916  58.341 -54.196  1.00  0.00     0.252 C 
HETATM   13  O   UNL     1     -41.359  59.326 -54.671  1.00  0.00    -0.270 OA
HETATM   14  H   UNL     1     -43.629  57.269 -53.872  1.00  0.00     0.169 HD
BRANCH  12  15
HETATM   15  C   UNL     1     -41.203  57.398 -53.227  1.00  0.00     0.225 C 
HETATM   16  C   UNL     1     -41.632  57.634 -51.777  1.00  0.00     0.083 C 
HETATM   17  C   UNL     1     -41.265  56.302 -51.248  1.00  0.00    -0.021 A 
HETATM   18  C   UNL     1     -41.165  55.409 -52.301  1.00  0.00     0.076 A 
HETATM   19  C   UNL     1     -41.064  55.897 -49.942  1.00  0.00     0.017 A 
HETATM   20  C   UNL     1     -40.874  54.078 -52.097  1.00  0.00     0.044 A 
HETATM   21  O   UNL     1     -41.369  55.994 -53.530  1.00  0.00    -0.336 OA
HETATM   22  C   UNL     1     -40.634  53.639 -50.781  1.00  0.00    -0.053 A 
HETATM   23  C   UNL     1     -40.737  54.554 -49.696  1.00  0.00    -0.055 A 
HETATM   24  C   UNL     1     -40.292  52.192 -50.545  1.00  0.00     0.049 C 
HETATM   25  C   UNL     1     -40.465  54.125 -48.280  1.00  0.00     0.049 C 
ENDBRANCH  12  15
ENDBRANCH   1  11
BRANCH   8  26
HETATM   26  C   UNL     1     -44.260  55.710 -59.743  1.00  0.00     0.270 C 
HETATM   27  N   UNL     1     -45.071  54.617 -59.595  1.00  0.00    -0.365 N 
HETATM   28  H   UNL     1     -45.974  54.738 -59.150  1.00  0.00     0.159 HD
HETATM   29  H   UNL     1     -44.736  53.709 -59.875  1.00  0.00     0.159 HD
HETATM   30  O   UNL     1     -43.142  55.605 -60.234  1.00  0.00    -0.266 OA
ENDBRANCH   8  26
TORSDOF 3
ENDMDL
MODEL 10
REMARK VINA RESULT:      -7.9      2.259      3.255
REMARK  3 active torsions:
REMARK  status: ('A' for Active; 'I' for Inactive)
REMARK    1  A    between atoms: C_9  and  C_10 
REMARK       I    between atoms: C_10  and  N_11 
REMARK    2  A    between atoms: N_11  and  C_12 
REMARK    3  A    between atoms: C_19  and  C_20 
REMARK       I    between atoms: C_20  and  N_21 
ROOT
HETATM    1  C   UNL     1     -43.651  57.245 -58.193  1.00  0.00     0.035 A 
HETATM    2  C   UNL     1     -44.771  57.710 -58.895  1.00  0.00     0.046 A 
HETATM    3  C   UNL     1     -44.615  58.697 -59.888  1.00  0.00     0.030 A 
HETATM    4  C   UNL     1     -43.340  59.164 -60.173  1.00  0.00     0.063 A 
HETATM    5  N   UNL     1     -43.511  60.093 -61.161  1.00  0.00    -0.277 N 
HETATM    6  H   UNL     1     -42.793  60.640 -61.621  1.00  0.00     0.189 HD
HETATM    7  N   UNL     1     -44.792  60.295 -61.522  1.00  0.00    -0.168 NA
HETATM    8  C   UNL     1     -45.487  59.439 -60.739  1.00  0.00     0.156 A 
HETATM    9  C   UNL     1     -42.197  58.706 -59.511  1.00  0.00     0.034 A 
HETATM   10  C   UNL     1     -42.382  57.747 -58.503  1.00  0.00     0.032 A 
ENDROOT
BRANCH   1  11
HETATM   11  N   UNL     1     -43.759  56.353 -57.106  1.00  0.00    -0.325 N 
HETATM   12  C   UNL     1     -43.553  56.665 -55.771  1.00  0.00     0.252 C 
HETATM   13  O   UNL     1     -43.600  57.791 -55.284  1.00  0.00    -0.270 OA
HETATM   14  H   UNL     1     -44.002  55.388 -57.306  1.00  0.00     0.169 HD
BRANCH  12  15
HETATM   15  C   UNL     1     -43.108  55.450 -54.957  1.00  0.00     0.225 C 
HETATM   16  C   UNL     1     -42.087  54.597 -55.712  1.00  0.00     0.083 C 
HETATM   17  C   UNL     1     -41.479  53.936 -54.536  1.00  0.00    -0.021 A 
HETATM   18  C   UNL     1     -41.764  54.680 -53.403  1.00  0.00     0.076 A 
HETATM   19  C   UNL     1     -40.712  52.790 -54.467  1.00  0.00     0.017 A 
HETATM   20  C   UNL     1     -41.288  54.319 -52.161  1.00  0.00     0.044 A 
HETATM   21  O   UNL     1     -42.564  55.771 -53.657  1.00  0.00    -0.336 OA
HETATM   22  C   UNL     1     -40.527  53.140 -52.052  1.00  0.00    -0.053 A 
HETATM   23  C   UNL     1     -40.232  52.374 -53.215  1.00  0.00    -0.055 A 
HETATM   24  C   UNL     1     -40.019  52.721 -50.699  1.00  0.00     0.049 C 
HETATM   25  C   UNL     1     -39.441  51.096 -53.132  1.00  0.00     0.049 C 
ENDBRANCH  12  15
ENDBRANCH   1  11
BRANCH   8  26
HETATM   26  C   UNL     1     -46.954  59.364 -60.793  1.00  0.00     0.270 C 
HETATM   27  N   UNL     1     -47.437  58.508 -61.746  1.00  0.00    -0.365 N 
HETATM   28  H   UNL     1     -46.776  58.021 -62.342  1.00  0.00     0.159 HD
HETATM   29  H   UNL     1     -48.432  58.421 -61.878  1.00  0.00     0.159 HD
HETATM   30  O   UNL     1     -47.715  60.009 -60.080  1.00  0.00    -0.266 OA
ENDBRANCH   8  26
TORSDOF 3
ENDMDL
