MODEL 1
REMARK VINA RESULT:      -9.5      0.000      0.000
REMARK  8 active torsions:
REMARK  status: ('A' for Active; 'I' for Inactive)
REMARK    1  A    between atoms: C_6  and  N_7 
REMARK       I    between atoms: N_7  and  C_8 
REMARK    2  A    between atoms: C_8  and  C_9 
REMARK    3  A    between atoms: C_9  and  S_10 
REMARK    4  A    between atoms: S_10  and  C_11 
REMARK    5  A    between atoms: N_12  and  C_13 
REMARK    6  A    between atoms: C_13  and  C_14 
REMARK    7  A    between atoms: C_25  and  C_26 
REMARK       I    between atoms: C_26  and  N_27 
REMARK    8  A    between atoms: C_30  and  C_31 
REMARK       I    between atoms: C_31  and  N_32 
ROOT
HETATM    1  C   UNL     1     -43.626  57.675 -52.593  1.00  0.00     0.172 C 
HETATM    2  N   UNL     1     -43.035  58.919 -52.499  1.00  0.00    -0.286 N 
HETATM    3  C   UNL     1     -42.401  59.476 -53.606  1.00  0.00     0.262 C 
HETATM    4  O   UNL     1     -41.742  60.513 -53.577  1.00  0.00    -0.267 OA
HETATM    5  C   UNL     1     -42.557  58.762 -54.883  1.00  0.00     0.061 A 
HETATM    6  C   UNL     1     -43.239  57.546 -54.866  1.00  0.00     0.076 A 
HETATM    7  C   UNL     1     -42.074  59.314 -56.076  1.00  0.00     0.020 A 
HETATM    8  C   UNL     1     -42.306  58.653 -57.281  1.00  0.00     0.018 A 
HETATM    9  C   UNL     1     -43.030  57.458 -57.277  1.00  0.00     0.034 A 
HETATM   10  C   UNL     1     -43.471  56.888 -56.075  1.00  0.00     0.050 A 
HETATM   11  N   UNL     1     -43.715  56.975 -53.678  1.00  0.00    -0.224 NA
ENDROOT
BRANCH   1  12
HETATM   12  S   UNL     1     -44.268  56.906 -51.161  1.00  0.00    -0.082 SA
BRANCH  12  13
HETATM   13  C   UNL     1     -42.752  56.069 -50.620  1.00  0.00     0.185 C 
BRANCH  13  14
HETATM   14  C   UNL     1     -42.517  54.717 -51.276  1.00  0.00     0.231 C 
HETATM   15  N   UNL     1     -41.224  54.478 -51.699  1.00  0.00    -0.326 N 
HETATM   16  H   UNL     1     -40.576  55.262 -51.641  1.00  0.00     0.169 HD
HETATM   17  O   UNL     1     -43.445  53.911 -51.322  1.00  0.00    -0.272 OA
BRANCH  15  18
HETATM   18  C   UNL     1     -40.718  53.294 -52.280  1.00  0.00     0.036 A 
HETATM   19  C   UNL     1     -40.223  52.212 -51.549  1.00  0.00     0.053 A 
HETATM   20  C   UNL     1     -39.738  51.072 -52.202  1.00  0.00     0.042 A 
HETATM   21  C   UNL     1     -39.755  50.981 -53.602  1.00  0.00    -0.040 A 
HETATM   22 CL   UNL     1     -39.110  49.790 -51.224  1.00  0.00    -0.084 Cl
HETATM   23  C   UNL     1     -39.228  49.782 -54.337  1.00  0.00     0.050 C 
HETATM   24  C   UNL     1     -40.234  52.079 -54.331  1.00  0.00     0.011 A 
HETATM   25  C   UNL     1     -40.708  53.221 -53.676  1.00  0.00     0.030 A 
ENDBRANCH  15  18
ENDBRANCH  13  14
ENDBRANCH  12  13
ENDBRANCH   1  12
BRANCH   2  26
HETATM   26  C   UNL     1     -43.052  59.758 -51.298  1.00  0.00     0.199 C 
BRANCH  26  27
HETATM   27  C   UNL     1     -44.288  60.591 -51.308  1.00  0.00     0.070 A 
HETATM   28  O   UNL     1     -44.182  61.853 -51.814  1.00  0.00    -0.325 OA
HETATM   29  C   UNL     1     -45.406  62.429 -51.699  1.00  0.00     0.142 A 
HETATM   30  C   UNL     1     -46.299  61.555 -51.128  1.00  0.00     0.027 A 
HETATM   31  C   UNL     1     -45.579  60.364 -50.874  1.00  0.00     0.036 A 
ENDBRANCH  26  27
ENDBRANCH   2  26
BRANCH   9  32
HETATM   32  C   UNL     1     -43.287  56.781 -58.563  1.00  0.00     0.253 C 
HETATM   33  N   UNL     1     -44.584  56.799 -59.084  1.00  0.00    -0.348 N 
HETATM   34  C   UNL     1     -44.776  56.164 -60.387  1.00  0.00     0.127 C 
HETATM   35  C   UNL     1     -45.568  57.829 -58.748  1.00  0.00     0.127 C 
HETATM   36  C   UNL     1     -46.193  55.614 -60.544  1.00  0.00     0.034 C 
HETATM   37  C   UNL     1     -47.278  56.638 -60.193  1.00  0.00     0.081 C 
HETATM   38  C   UNL     1     -46.990  57.283 -58.831  1.00  0.00     0.034 C 
HETATM   39  O   UNL     1     -42.333  56.225 -59.098  1.00  0.00    -0.267 OA
BRANCH  37  40
HETATM   40  C   UNL     1     -47.449  57.688 -61.284  1.00  0.00     0.219 C 
HETATM   41  N   UNL     1     -47.735  57.193 -62.523  1.00  0.00    -0.370 N 
HETATM   42  H   UNL     1     -47.580  56.224 -62.764  1.00  0.00     0.159 HD
HETATM   43  H   UNL     1     -47.768  57.866 -63.279  1.00  0.00     0.159 HD
HETATM   44  O   UNL     1     -47.350  58.896 -61.109  1.00  0.00    -0.273 OA
ENDBRANCH  37  40
ENDBRANCH   9  32
TORSDOF 8
ENDMDL
MODEL 2
REMARK VINA RESULT:      -9.3      2.055      2.494
REMARK  8 active torsions:
REMARK  status: ('A' for Active; 'I' for Inactive)
REMARK    1  A    between atoms: C_6  and  N_7 
REMARK       I    between atoms: N_7  and  C_8 
REMARK    2  A    between atoms: C_8  and  C_9 
REMARK    3  A    between atoms: C_9  and  S_10 
REMARK    4  A    between atoms: S_10  and  C_11 
REMARK    5  A    between atoms: N_12  and  C_13 
REMARK    6  A    between atoms: C_13  and  C_14 
REMARK    7  A    between atoms: C_25  and  C_26 
REMARK       I    between atoms: C_26  and  N_27 
REMARK    8  A    between atoms: C_30  and  C_31 
REMARK       I    between atoms: C_31  and  N_32 
ROOT
HETATM    1  C   UNL     1     -41.562  59.063 -52.558  1.00  0.00     0.172 C 
HETATM    2  N   UNL     1     -42.112  60.237 -52.087  1.00  0.00    -0.286 N 
HETATM    3  C   UNL     1     -42.574  61.200 -52.980  1.00  0.00     0.262 C 
HETATM    4  O   UNL     1     -42.957  62.320 -52.652  1.00  0.00    -0.267 OA
HETATM    5  C   UNL     1     -42.607  60.818 -54.400  1.00  0.00     0.061 A 
HETATM    6  C   UNL     1     -42.088  59.571 -54.749  1.00  0.00     0.076 A 
HETATM    7  C   UNL     1     -43.184  61.663 -55.356  1.00  0.00     0.020 A 
HETATM    8  C   UNL     1     -43.273  61.241 -56.681  1.00  0.00     0.018 A 
HETATM    9  C   UNL     1     -42.797  59.974 -57.028  1.00  0.00     0.034 A 
HETATM   10  C   UNL     1     -42.181  59.151 -56.077  1.00  0.00     0.050 A 
HETATM   11  N   UNL     1     -41.496  58.721 -53.805  1.00  0.00    -0.224 NA
ENDROOT
BRANCH   1  12
HETATM   12  S   UNL     1     -40.826  57.936 -51.442  1.00  0.00    -0.082 SA
BRANCH  12  13
HETATM   13  C   UNL     1     -42.289  56.916 -51.109  1.00  0.00     0.185 C 
BRANCH  13  14
HETATM   14  C   UNL     1     -42.210  55.506 -51.674  1.00  0.00     0.231 C 
HETATM   15  N   UNL     1     -40.945  55.077 -52.026  1.00  0.00    -0.326 N 
HETATM   16  H   UNL     1     -40.203  55.774 -51.985  1.00  0.00     0.169 HD
HETATM   17  O   UNL     1     -43.233  54.825 -51.714  1.00  0.00    -0.272 OA
BRANCH  15  18
HETATM   18  C   UNL     1     -40.577  53.804 -52.515  1.00  0.00     0.036 A 
HETATM   19  C   UNL     1     -40.195  52.733 -51.704  1.00  0.00     0.053 A 
HETATM   20  C   UNL     1     -39.844  51.500 -52.268  1.00  0.00     0.042 A 
HETATM   21  C   UNL     1     -39.888  51.304 -53.656  1.00  0.00    -0.040 A 
HETATM   22 CL   UNL     1     -39.347  50.237 -51.195  1.00  0.00    -0.084 Cl
HETATM   23  C   UNL     1     -39.503  50.002 -54.298  1.00  0.00     0.050 C 
HETATM   24  C   UNL     1     -40.253  52.388 -54.466  1.00  0.00     0.011 A 
HETATM   25  C   UNL     1     -40.593  53.623 -53.901  1.00  0.00     0.030 A 
ENDBRANCH  15  18
ENDBRANCH  13  14
ENDBRANCH  12  13
ENDBRANCH   1  12
BRANCH   2  26
HETATM   26  C   UNL     1     -42.296  60.558 -50.669  1.00  0.00     0.199 C 
BRANCH  26  27
HETATM   27  C   UNL     1     -43.754  60.558 -50.360  1.00  0.00     0.070 A 
HETATM   28  O   UNL     1     -44.486  59.504 -50.821  1.00  0.00    -0.325 OA
HETATM   29  C   UNL     1     -45.774  59.725 -50.452  1.00  0.00     0.142 A 
HETATM   30  C   UNL     1     -45.882  60.906 -49.758  1.00  0.00     0.027 A 
HETATM   31  C   UNL     1     -44.575  61.448 -49.696  1.00  0.00     0.036 A 
ENDBRANCH  26  27
ENDBRANCH   2  26
BRANCH   9  32
HETATM   32  C   UNL     1     -42.918  59.531 -58.431  1.00  0.00     0.253 C 
HETATM   33  N   UNL     1     -43.092  58.169 -58.693  1.00  0.00    -0.348 N 
HETATM   34  C   UNL     1     -43.263  57.787 -60.094  1.00  0.00     0.127 C 
HETATM   35  C   UNL     1     -43.663  57.233 -57.724  1.00  0.00     0.127 C 
HETATM   36  C   UNL     1     -42.754  56.373 -60.361  1.00  0.00     0.034 C 
HETATM   37  C   UNL     1     -43.302  55.339 -59.370  1.00  0.00     0.081 C 
HETATM   38  C   UNL     1     -43.116  55.824 -57.927  1.00  0.00     0.034 C 
HETATM   39  O   UNL     1     -42.847  60.399 -59.296  1.00  0.00    -0.267 OA
BRANCH  37  40
HETATM   40  C   UNL     1     -44.756  54.986 -59.658  1.00  0.00     0.219 C 
HETATM   41  N   UNL     1     -45.069  53.665 -59.517  1.00  0.00    -0.370 N 
HETATM   42  H   UNL     1     -44.360  52.944 -59.494  1.00  0.00     0.159 HD
HETATM   43  H   UNL     1     -46.007  53.394 -59.785  1.00  0.00     0.159 HD
HETATM   44  O   UNL     1     -45.616  55.792 -59.989  1.00  0.00    -0.273 OA
ENDBRANCH  37  40
ENDBRANCH   9  32
TORSDOF 8
ENDMDL
MODEL 3
REMARK VINA RESULT:      -8.5      3.013      8.008
REMARK  8 active torsions:
REMARK  status: ('A' for Active; 'I' for Inactive)
REMARK    1  A    between atoms: C_6  and  N_7 
REMARK       I    between atoms: N_7  and  C_8 
REMARK    2  A    between atoms: C_8  and  C_9 
REMARK    3  A    between atoms: C_9  and  S_10 
REMARK    4  A    between atoms: S_10  and  C_11 
REMARK    5  A    between atoms: N_12  and  C_13 
REMARK    6  A    between atoms: C_13  and  C_14 
REMARK    7  A    between atoms: C_25  and  C_26 
REMARK       I    between atoms: C_26  and  N_27 
REMARK    8  A    between atoms: C_30  and  C_31 
REMARK       I    between atoms: C_31  and  N_32 
ROOT
HETATM    1  C   UNL     1     -43.466  59.749 -53.378  1.00  0.00     0.172 C 
HETATM    2  N   UNL     1     -44.055  59.752 -52.129  1.00  0.00    -0.286 N 
HETATM    3  C   UNL     1     -44.367  58.549 -51.502  1.00  0.00     0.262 C 
HETATM    4  O   UNL     1     -45.004  58.460 -50.455  1.00  0.00    -0.267 OA
HETATM    5  C   UNL     1     -43.878  57.322 -52.149  1.00  0.00     0.061 A 
HETATM    6  C   UNL     1     -43.231  57.451 -53.378  1.00  0.00     0.076 A 
HETATM    7  C   UNL     1     -44.021  56.077 -51.524  1.00  0.00     0.020 A 
HETATM    8  C   UNL     1     -43.478  54.942 -52.124  1.00  0.00     0.018 A 
HETATM    9  C   UNL     1     -42.787  55.072 -53.332  1.00  0.00     0.034 A 
HETATM   10  C   UNL     1     -42.687  56.313 -53.974  1.00  0.00     0.050 A 
HETATM   11  N   UNL     1     -43.093  58.689 -54.021  1.00  0.00    -0.224 NA
ENDROOT
BRANCH   1  12
HETATM   12  S   UNL     1     -43.235  61.254 -54.235  1.00  0.00    -0.082 SA
BRANCH  12  13
HETATM   13  C   UNL     1     -44.782  61.248 -55.183  1.00  0.00     0.185 C 
BRANCH  13  14
HETATM   14  C   UNL     1     -44.703  60.498 -56.503  1.00  0.00     0.231 C 
HETATM   15  N   UNL     1     -45.101  59.175 -56.461  1.00  0.00    -0.326 N 
HETATM   16  H   UNL     1     -45.300  58.792 -55.539  1.00  0.00     0.169 HD
HETATM   17  O   UNL     1     -44.370  61.113 -57.516  1.00  0.00    -0.272 OA
BRANCH  15  18
HETATM   18  C   UNL     1     -45.184  58.271 -57.543  1.00  0.00     0.036 A 
HETATM   19  C   UNL     1     -44.103  57.538 -58.037  1.00  0.00     0.053 A 
HETATM   20  C   UNL     1     -44.269  56.660 -59.115  1.00  0.00     0.042 A 
HETATM   21  C   UNL     1     -45.526  56.481 -59.711  1.00  0.00    -0.040 A 
HETATM   22 CL   UNL     1     -42.871  55.817 -59.690  1.00  0.00    -0.084 Cl
HETATM   23  C   UNL     1     -45.739  55.562 -60.880  1.00  0.00     0.050 C 
HETATM   24  C   UNL     1     -46.603  57.234 -59.225  1.00  0.00     0.011 A 
HETATM   25  C   UNL     1     -46.432  58.119 -58.154  1.00  0.00     0.030 A 
ENDBRANCH  15  18
ENDBRANCH  13  14
ENDBRANCH  12  13
ENDBRANCH   1  12
BRANCH   2  26
HETATM   26  C   UNL     1     -44.357  60.959 -51.356  1.00  0.00     0.199 C 
BRANCH  26  27
HETATM   27  C   UNL     1     -45.655  61.521 -51.824  1.00  0.00     0.070 A 
HETATM   28  O   UNL     1     -45.725  62.874 -51.981  1.00  0.00    -0.325 OA
HETATM   29  C   UNL     1     -46.990  63.161 -52.382  1.00  0.00     0.142 A 
HETATM   30  C   UNL     1     -47.736  62.011 -52.487  1.00  0.00     0.027 A 
HETATM   31  C   UNL     1     -46.874  60.948 -52.128  1.00  0.00     0.036 A 
ENDBRANCH  26  27
ENDBRANCH   2  26
BRANCH   9  32
HETATM   32  C   UNL     1     -42.198  53.865 -53.945  1.00  0.00     0.253 C 
HETATM   33  N   UNL     1     -41.236  53.148 -53.227  1.00  0.00    -0.348 N 
HETATM   34  C   UNL     1     -40.725  51.929 -53.851  1.00  0.00     0.127 C 
HETATM   35  C   UNL     1     -41.136  53.183 -51.767  1.00  0.00     0.127 C 
HETATM   36  C   UNL     1     -39.293  51.627 -53.412  1.00  0.00     0.034 C 
HETATM   37  C   UNL     1     -39.112  51.661 -51.890  1.00  0.00     0.081 C 
HETATM   38  C   UNL     1     -39.700  52.951 -51.306  1.00  0.00     0.034 C 
HETATM   39  O   UNL     1     -42.587  53.566 -55.070  1.00  0.00    -0.267 OA
BRANCH  37  40
HETATM   40  C   UNL     1     -39.695  50.425 -51.216  1.00  0.00     0.219 C 
HETATM   41  N   UNL     1     -39.538  49.260 -51.911  1.00  0.00    -0.370 N 
HETATM   42  H   UNL     1     -39.307  49.247 -52.894  1.00  0.00     0.159 HD
HETATM   43  H   UNL     1     -39.992  48.441 -51.523  1.00  0.00     0.159 HD
HETATM   44  O   UNL     1     -40.266  50.427 -50.134  1.00  0.00    -0.273 OA
ENDBRANCH  37  40
ENDBRANCH   9  32
TORSDOF 8
ENDMDL
MODEL 4
REMARK VINA RESULT:      -8.5      2.596      3.452
REMARK  8 active torsions:
REMARK  status: ('A' for Active; 'I' for Inactive)
REMARK    1  A    between atoms: C_6  and  N_7 
REMARK       I    between atoms: N_7  and  C_8 
REMARK    2  A    between atoms: C_8  and  C_9 
REMARK    3  A    between atoms: C_9  and  S_10 
REMARK    4  A    between atoms: S_10  and  C_11 
REMARK    5  A    between atoms: N_12  and  C_13 
REMARK    6  A    between atoms: C_13  and  C_14 
REMARK    7  A    between atoms: C_25  and  C_26 
REMARK       I    between atoms: C_26  and  N_27 
REMARK    8  A    between atoms: C_30  and  C_31 
REMARK       I    between atoms: C_31  and  N_32 
ROOT
HETATM    1  C   UNL     1     -42.599  60.355 -52.116  1.00  0.00     0.172 C 
HETATM    2  N   UNL     1     -43.860  60.797 -51.771  1.00  0.00    -0.286 N 
HETATM    3  C   UNL     1     -44.758  61.187 -52.760  1.00  0.00     0.262 C 
HETATM    4  O   UNL     1     -45.847  61.711 -52.538  1.00  0.00    -0.267 OA
HETATM    5  C   UNL     1     -44.356  60.932 -54.152  1.00  0.00     0.061 A 
HETATM    6  C   UNL     1     -43.081  60.414 -54.374  1.00  0.00     0.076 A 
HETATM    7  C   UNL     1     -45.247  61.161 -55.208  1.00  0.00     0.020 A 
HETATM    8  C   UNL     1     -44.867  60.836 -56.509  1.00  0.00     0.018 A 
HETATM    9  C   UNL     1     -43.609  60.272 -56.733  1.00  0.00     0.034 A 
HETATM   10  C   UNL     1     -42.705  60.087 -55.678  1.00  0.00     0.050 A 
HETATM   11  N   UNL     1     -42.174  60.192 -53.329  1.00  0.00    -0.224 NA
ENDROOT
BRANCH   1  12
HETATM   12  S   UNL     1     -41.417  60.031 -50.869  1.00  0.00    -0.082 SA
BRANCH  12  13
HETATM   13  C   UNL     1     -41.884  58.314 -50.516  1.00  0.00     0.185 C 
BRANCH  13  14
HETATM   14  C   UNL     1     -41.180  57.284 -51.385  1.00  0.00     0.231 C 
HETATM   15  N   UNL     1     -41.533  55.968 -51.154  1.00  0.00    -0.326 N 
HETATM   16  H   UNL     1     -42.139  55.797 -50.354  1.00  0.00     0.169 HD
HETATM   17  O   UNL     1     -40.416  57.675 -52.268  1.00  0.00    -0.272 OA
BRANCH  15  18
HETATM   18  C   UNL     1     -41.083  54.826 -51.852  1.00  0.00     0.036 A 
HETATM   19  C   UNL     1     -40.922  54.767 -53.237  1.00  0.00     0.053 A 
HETATM   20  C   UNL     1     -40.471  53.593 -53.854  1.00  0.00     0.042 A 
HETATM   21  C   UNL     1     -40.151  52.457 -53.095  1.00  0.00    -0.040 A 
HETATM   22 CL   UNL     1     -40.333  53.591 -55.579  1.00  0.00    -0.084 Cl
HETATM   23  C   UNL     1     -39.681  51.176 -53.722  1.00  0.00     0.050 C 
HETATM   24  C   UNL     1     -40.335  52.516 -51.707  1.00  0.00     0.011 A 
HETATM   25  C   UNL     1     -40.796  53.686 -51.094  1.00  0.00     0.030 A 
ENDBRANCH  15  18
ENDBRANCH  13  14
ENDBRANCH  12  13
ENDBRANCH   1  12
BRANCH   2  26
HETATM   26  C   UNL     1     -44.373  60.856 -50.400  1.00  0.00     0.199 C 
BRANCH  26  27
HETATM   27  C   UNL     1     -44.076  62.200 -49.830  1.00  0.00     0.070 A 
HETATM   28  O   UNL     1     -44.793  62.582 -48.735  1.00  0.00    -0.325 OA
HETATM   29  C   UNL     1     -44.380  63.834 -48.409  1.00  0.00     0.142 A 
HETATM   30  C   UNL     1     -43.407  64.264 -49.279  1.00  0.00     0.027 A 
HETATM   31  C   UNL     1     -43.207  63.207 -50.199  1.00  0.00     0.036 A 
ENDBRANCH  26  27
ENDBRANCH   2  26
BRANCH   9  32
HETATM   32  C   UNL     1     -43.229  59.911 -58.113  1.00  0.00     0.253 C 
HETATM   33  N   UNL     1     -43.162  58.559 -58.460  1.00  0.00    -0.348 N 
HETATM   34  C   UNL     1     -42.837  58.254 -59.852  1.00  0.00     0.127 C 
HETATM   35  C   UNL     1     -43.908  57.514 -57.757  1.00  0.00     0.127 C 
HETATM   36  C   UNL     1     -42.120  56.912 -59.985  1.00  0.00     0.034 C 
HETATM   37  C   UNL     1     -42.841  55.771 -59.258  1.00  0.00     0.081 C 
HETATM   38  C   UNL     1     -43.176  56.177 -57.817  1.00  0.00     0.034 C 
HETATM   39  O   UNL     1     -42.980  60.836 -58.880  1.00  0.00    -0.267 OA
BRANCH  37  40
HETATM   40  C   UNL     1     -44.081  55.305 -60.011  1.00  0.00     0.219 C 
HETATM   41  N   UNL     1     -44.896  54.461 -59.314  1.00  0.00    -0.370 N 
HETATM   42  H   UNL     1     -44.583  53.970 -58.488  1.00  0.00     0.159 HD
HETATM   43  H   UNL     1     -45.680  54.072 -59.824  1.00  0.00     0.159 HD
HETATM   44  O   UNL     1     -44.368  55.639 -61.153  1.00  0.00    -0.273 OA
ENDBRANCH  37  40
ENDBRANCH   9  32
TORSDOF 8
ENDMDL
MODEL 5
REMARK VINA RESULT:      -8.4      3.205      7.834
REMARK  8 active torsions:
REMARK  status: ('A' for Active; 'I' for Inactive)
REMARK    1  A    between atoms: C_6  and  N_7 
REMARK       I    between atoms: N_7  and  C_8 
REMARK    2  A    between atoms: C_8  and  C_9 
REMARK    3  A    between atoms: C_9  and  S_10 
REMARK    4  A    between atoms: S_10  and  C_11 
REMARK    5  A    between atoms: N_12  and  C_13 
REMARK    6  A    between atoms: C_13  and  C_14 
REMARK    7  A    between atoms: C_25  and  C_26 
REMARK       I    between atoms: C_26  and  N_27 
REMARK    8  A    between atoms: C_30  and  C_31 
REMARK       I    between atoms: C_31  and  N_32 
ROOT
HETATM    1  C   UNL     1     -45.132  58.517 -58.944  1.00  0.00     0.172 C 
HETATM    2  N   UNL     1     -45.401  59.802 -59.371  1.00  0.00    -0.286 N 
HETATM    3  C   UNL     1     -45.697  60.798 -58.444  1.00  0.00     0.262 C 
HETATM    4  O   UNL     1     -46.072  61.930 -58.741  1.00  0.00    -0.267 OA
HETATM    5  C   UNL     1     -45.529  60.448 -57.025  1.00  0.00     0.061 A 
HETATM    6  C   UNL     1     -45.183  59.132 -56.719  1.00  0.00     0.076 A 
HETATM    7  C   UNL     1     -45.667  61.420 -56.026  1.00  0.00     0.020 A 
HETATM    8  C   UNL     1     -45.425  61.078 -54.698  1.00  0.00     0.018 A 
HETATM    9  C   UNL     1     -45.032  59.773 -54.389  1.00  0.00     0.034 A 
HETATM   10  C   UNL     1     -44.939  58.794 -55.387  1.00  0.00     0.050 A 
HETATM   11  N   UNL     1     -45.054  58.146 -57.706  1.00  0.00    -0.224 NA
ENDROOT
BRANCH   1  12
HETATM   12  S   UNL     1     -44.932  57.235 -60.115  1.00  0.00    -0.082 SA
BRANCH  12  13
HETATM   13  C   UNL     1     -43.267  56.702 -59.628  1.00  0.00     0.185 C 
BRANCH  13  14
HETATM   14  C   UNL     1     -43.238  55.760 -58.434  1.00  0.00     0.231 C 
HETATM   15  N   UNL     1     -42.618  56.254 -57.302  1.00  0.00    -0.326 N 
HETATM   16  H   UNL     1     -42.140  57.148 -57.401  1.00  0.00     0.169 HD
HETATM   17  O   UNL     1     -43.815  54.677 -58.519  1.00  0.00    -0.272 OA
BRANCH  15  18
HETATM   18  C   UNL     1     -42.502  55.622 -56.044  1.00  0.00     0.036 A 
HETATM   19  C   UNL     1     -41.478  54.735 -55.705  1.00  0.00     0.053 A 
HETATM   20  C   UNL     1     -41.434  54.149 -54.434  1.00  0.00     0.042 A 
HETATM   21  C   UNL     1     -42.403  54.453 -53.466  1.00  0.00    -0.040 A 
HETATM   22 CL   UNL     1     -40.153  53.033 -54.106  1.00  0.00    -0.084 Cl
HETATM   23  C   UNL     1     -42.398  53.831 -52.099  1.00  0.00     0.050 C 
HETATM   24  C   UNL     1     -43.440  55.328 -53.819  1.00  0.00     0.011 A 
HETATM   25  C   UNL     1     -43.487  55.904 -55.094  1.00  0.00     0.030 A 
ENDBRANCH  15  18
ENDBRANCH  13  14
ENDBRANCH  12  13
ENDBRANCH   1  12
BRANCH   2  26
HETATM   26  C   UNL     1     -45.361  60.239 -60.769  1.00  0.00     0.199 C 
BRANCH  26  27
HETATM   27  C   UNL     1     -44.000  60.765 -61.072  1.00  0.00     0.070 A 
HETATM   28  O   UNL     1     -43.059  59.861 -61.466  1.00  0.00    -0.325 OA
HETATM   29  C   UNL     1     -41.904  60.550 -61.659  1.00  0.00     0.142 A 
HETATM   30  C   UNL     1     -42.090  61.886 -61.395  1.00  0.00     0.027 A 
HETATM   31  C   UNL     1     -43.446  62.029 -61.016  1.00  0.00     0.036 A 
ENDBRANCH  26  27
ENDBRANCH   2  26
BRANCH   9  32
HETATM   32  C   UNL     1     -44.756  59.430 -52.980  1.00  0.00     0.253 C 
HETATM   33  N   UNL     1     -43.477  58.985 -52.634  1.00  0.00    -0.348 N 
HETATM   34  C   UNL     1     -43.237  58.713 -51.218  1.00  0.00     0.127 C 
HETATM   35  C   UNL     1     -42.280  59.306 -53.413  1.00  0.00     0.127 C 
HETATM   36  C   UNL     1     -42.174  57.634 -51.021  1.00  0.00     0.034 C 
HETATM   37  C   UNL     1     -40.894  57.900 -51.822  1.00  0.00     0.081 C 
HETATM   38  C   UNL     1     -41.228  58.208 -53.287  1.00  0.00     0.034 C 
HETATM   39  O   UNL     1     -45.686  59.549 -52.187  1.00  0.00    -0.267 OA
BRANCH  37  40
HETATM   40  C   UNL     1     -40.046  59.002 -51.198  1.00  0.00     0.219 C 
HETATM   41  N   UNL     1     -40.510  59.484 -50.008  1.00  0.00    -0.370 N 
HETATM   42  H   UNL     1     -41.460  59.330 -49.699  1.00  0.00     0.159 HD
HETATM   43  H   UNL     1     -40.011  60.274 -49.619  1.00  0.00     0.159 HD
HETATM   44  O   UNL     1     -39.018  59.450 -51.688  1.00  0.00    -0.273 OA
ENDBRANCH  37  40
ENDBRANCH   9  32
TORSDOF 8
ENDMDL
MODEL 6
REMARK VINA RESULT:      -8.2      3.496      8.182
REMARK  8 active torsions:
REMARK  status: ('A' for Active; 'I' for Inactive)
REMARK    1  A    between atoms: C_6  and  N_7 
REMARK       I    between atoms: N_7  and  C_8 
REMARK    2  A    between atoms: C_8  and  C_9 
REMARK    3  A    between atoms: C_9  and  S_10 
REMARK    4  A    between atoms: S_10  and  C_11 
REMARK    5  A    between atoms: N_12  and  C_13 
REMARK    6  A    between atoms: C_13  and  C_14 
REMARK    7  A    between atoms: C_25  and  C_26 
REMARK       I    between atoms: C_26  and  N_27 
REMARK    8  A    between atoms: C_30  and  C_31 
REMARK       I    between atoms: C_31  and  N_32 
ROOT
HETATM    1  C   UNL     1     -43.767  59.665 -58.384  1.00  0.00     0.172 C 
HETATM    2  N   UNL     1     -44.540  58.852 -59.188  1.00  0.00    -0.286 N 
HETATM    3  C   UNL     1     -44.395  57.469 -59.128  1.00  0.00     0.262 C 
HETATM    4  O   UNL     1     -44.946  56.681 -59.894  1.00  0.00    -0.267 OA
HETATM    5  C   UNL     1     -43.530  56.944 -58.060  1.00  0.00     0.061 A 
HETATM    6  C   UNL     1     -42.854  57.865 -57.261  1.00  0.00     0.076 A 
HETATM    7  C   UNL     1     -43.431  55.565 -57.831  1.00  0.00     0.020 A 
HETATM    8  C   UNL     1     -42.667  55.101 -56.762  1.00  0.00     0.018 A 
HETATM    9  C   UNL     1     -42.026  56.021 -55.929  1.00  0.00     0.034 A 
HETATM   10  C   UNL     1     -42.091  57.396 -56.190  1.00  0.00     0.050 A 
HETATM   11  N   UNL     1     -42.933  59.246 -57.487  1.00  0.00    -0.224 NA
ENDROOT
BRANCH   1  12
HETATM   12  S   UNL     1     -43.828  61.400 -58.586  1.00  0.00    -0.082 SA
BRANCH  12  13
HETATM   13  C   UNL     1     -44.761  61.799 -57.082  1.00  0.00     0.185 C 
BRANCH  13  14
HETATM   14  C   UNL     1     -43.916  61.853 -55.819  1.00  0.00     0.231 C 
HETATM   15  N   UNL     1     -43.978  60.733 -55.013  1.00  0.00    -0.326 N 
HETATM   16  H   UNL     1     -44.665  60.027 -55.272  1.00  0.00     0.169 HD
HETATM   17  O   UNL     1     -43.191  62.830 -55.632  1.00  0.00    -0.272 OA
BRANCH  15  18
HETATM   18  C   UNL     1     -43.257  60.493 -53.823  1.00  0.00     0.036 A 
HETATM   19  C   UNL     1     -43.685  60.887 -52.553  1.00  0.00     0.053 A 
HETATM   20  C   UNL     1     -42.909  60.610 -51.420  1.00  0.00     0.042 A 
HETATM   21  C   UNL     1     -41.696  59.915 -51.530  1.00  0.00    -0.040 A 
HETATM   22 CL   UNL     1     -43.494  61.164 -49.889  1.00  0.00    -0.084 Cl
HETATM   23  C   UNL     1     -40.830  59.615 -50.341  1.00  0.00     0.050 C 
HETATM   24  C   UNL     1     -41.261  59.540 -52.809  1.00  0.00     0.011 A 
HETATM   25  C   UNL     1     -42.033  59.827 -53.941  1.00  0.00     0.030 A 
ENDBRANCH  15  18
ENDBRANCH  13  14
ENDBRANCH  12  13
ENDBRANCH   1  12
BRANCH   2  26
HETATM   26  C   UNL     1     -45.572  59.334 -60.110  1.00  0.00     0.199 C 
BRANCH  26  27
HETATM   27  C   UNL     1     -46.794  59.677 -59.330  1.00  0.00     0.070 A 
HETATM   28  O   UNL     1     -47.518  60.753 -59.752  1.00  0.00    -0.325 OA
HETATM   29  C   UNL     1     -48.557  60.894 -58.889  1.00  0.00     0.142 A 
HETATM   30  C   UNL     1     -48.514  59.922 -57.918  1.00  0.00     0.027 A 
HETATM   31  C   UNL     1     -47.374  59.132 -58.201  1.00  0.00     0.036 A 
ENDBRANCH  26  27
ENDBRANCH   2  26
BRANCH   9  32
HETATM   32  C   UNL     1     -41.238  55.515 -54.788  1.00  0.00     0.253 C 
HETATM   33  N   UNL     1     -41.739  55.693 -53.495  1.00  0.00    -0.348 N 
HETATM   34  C   UNL     1     -40.950  55.124 -52.402  1.00  0.00     0.127 C 
HETATM   35  C   UNL     1     -43.162  55.865 -53.204  1.00  0.00     0.127 C 
HETATM   36  C   UNL     1     -41.134  55.909 -51.105  1.00  0.00     0.034 C 
HETATM   37  C   UNL     1     -42.606  56.140 -50.745  1.00  0.00     0.081 C 
HETATM   38  C   UNL     1     -43.372  56.705 -51.948  1.00  0.00     0.034 C 
HETATM   39  O   UNL     1     -40.169  54.971 -55.048  1.00  0.00    -0.267 OA
BRANCH  37  40
HETATM   40  C   UNL     1     -43.268  54.879 -50.203  1.00  0.00     0.219 C 
HETATM   41  N   UNL     1     -44.605  54.774 -50.456  1.00  0.00    -0.370 N 
HETATM   42  H   UNL     1     -45.164  55.570 -50.731  1.00  0.00     0.159 HD
HETATM   43  H   UNL     1     -45.082  53.988 -50.032  1.00  0.00     0.159 HD
HETATM   44  O   UNL     1     -42.684  53.998 -49.585  1.00  0.00    -0.273 OA
ENDBRANCH  37  40
ENDBRANCH   9  32
TORSDOF 8
ENDMDL
MODEL 7
REMARK VINA RESULT:      -8.0      3.834      4.780
REMARK  8 active torsions:
REMARK  status: ('A' for Active; 'I' for Inactive)
REMARK    1  A    between atoms: C_6  and  N_7 
REMARK       I    between atoms: N_7  and  C_8 
REMARK    2  A    between atoms: C_8  and  C_9 
REMARK    3  A    between atoms: C_9  and  S_10 
REMARK    4  A    between atoms: S_10  and  C_11 
REMARK    5  A    between atoms: N_12  and  C_13 
REMARK    6  A    between atoms: C_13  and  C_14 
REMARK    7  A    between atoms: C_25  and  C_26 
REMARK       I    between atoms: C_26  and  N_27 
REMARK    8  A    between atoms: C_30  and  C_31 
REMARK       I    between atoms: C_31  and  N_32 
ROOT
HETATM    1  C   UNL     1     -41.666  59.799 -53.913  1.00  0.00     0.172 C 
HETATM    2  N   UNL     1     -42.391  60.693 -53.151  1.00  0.00    -0.286 N 
HETATM    3  C   UNL     1     -43.093  61.725 -53.766  1.00  0.00     0.262 C 
HETATM    4  O   UNL     1     -43.655  62.635 -53.161  1.00  0.00    -0.267 OA
HETATM    5  C   UNL     1     -43.161  61.691 -55.235  1.00  0.00     0.061 A 
HETATM    6  C   UNL     1     -42.444  60.694 -55.895  1.00  0.00     0.076 A 
HETATM    7  C   UNL     1     -43.959  62.605 -55.936  1.00  0.00     0.020 A 
HETATM    8  C   UNL     1     -44.066  62.499 -57.322  1.00  0.00     0.018 A 
HETATM    9  C   UNL     1     -43.387  61.473 -57.983  1.00  0.00     0.034 A 
HETATM   10  C   UNL     1     -42.556  60.590 -57.282  1.00  0.00     0.050 A 
HETATM   11  N   UNL     1     -41.632  59.782 -55.207  1.00  0.00    -0.224 NA
ENDROOT
BRANCH   1  12
HETATM   12  S   UNL     1     -40.648  58.612 -53.130  1.00  0.00    -0.082 SA
BRANCH  12  13
HETATM   13  C   UNL     1     -41.387  57.123 -53.857  1.00  0.00     0.185 C 
BRANCH  13  14
HETATM   14  C   UNL     1     -41.222  55.869 -53.014  1.00  0.00     0.231 C 
HETATM   15  N   UNL     1     -40.678  54.779 -53.667  1.00  0.00    -0.326 N 
HETATM   16  H   UNL     1     -40.545  54.875 -54.672  1.00  0.00     0.169 HD
HETATM   17  O   UNL     1     -41.503  55.917 -51.817  1.00  0.00    -0.272 OA
BRANCH  15  18
HETATM   18  C   UNL     1     -40.361  53.519 -53.114  1.00  0.00     0.036 A 
HETATM   19  C   UNL     1     -40.088  52.378 -53.871  1.00  0.00     0.053 A 
HETATM   20  C   UNL     1     -39.782  51.163 -53.245  1.00  0.00     0.042 A 
HETATM   21  C   UNL     1     -39.724  51.067 -51.847  1.00  0.00    -0.040 A 
HETATM   22 CL   UNL     1     -39.491  49.788 -54.255  1.00  0.00    -0.084 Cl
HETATM   23  C   UNL     1     -39.416  49.778 -51.140  1.00  0.00     0.050 C 
HETATM   24  C   UNL     1     -40.019  52.211 -51.092  1.00  0.00     0.011 A 
HETATM   25  C   UNL     1     -40.335  53.421 -51.720  1.00  0.00     0.030 A 
ENDBRANCH  15  18
ENDBRANCH  13  14
ENDBRANCH  12  13
ENDBRANCH   1  12
BRANCH   2  26
HETATM   26  C   UNL     1     -42.525  60.624 -51.693  1.00  0.00     0.199 C 
BRANCH  26  27
HETATM   27  C   UNL     1     -43.765  59.871 -51.357  1.00  0.00     0.070 A 
HETATM   28  O   UNL     1     -43.850  58.585 -51.804  1.00  0.00    -0.325 OA
HETATM   29  C   UNL     1     -45.060  58.109 -51.410  1.00  0.00     0.142 A 
HETATM   30  C   UNL     1     -45.755  59.070 -50.715  1.00  0.00     0.027 A 
HETATM   31  C   UNL     1     -44.918  60.211 -50.678  1.00  0.00     0.036 A 
ENDBRANCH  26  27
ENDBRANCH   2  26
BRANCH   9  32
HETATM   32  C   UNL     1     -43.528  61.359 -59.449  1.00  0.00     0.253 C 
HETATM   33  N   UNL     1     -42.730  62.166 -60.265  1.00  0.00    -0.348 N 
HETATM   34  C   UNL     1     -42.866  61.976 -61.708  1.00  0.00     0.127 C 
HETATM   35  C   UNL     1     -41.447  62.721 -59.833  1.00  0.00     0.127 C 
HETATM   36  C   UNL     1     -42.558  63.258 -62.479  1.00  0.00     0.034 C 
HETATM   37  C   UNL     1     -41.230  63.904 -62.065  1.00  0.00     0.081 C 
HETATM   38  C   UNL     1     -41.149  64.039 -60.540  1.00  0.00     0.034 C 
HETATM   39  O   UNL     1     -44.360  60.559 -59.866  1.00  0.00    -0.267 OA
BRANCH  37  40
HETATM   40  C   UNL     1     -40.029  63.152 -62.624  1.00  0.00     0.219 C 
HETATM   41  N   UNL     1     -40.228  62.570 -63.844  1.00  0.00    -0.370 N 
HETATM   42  H   UNL     1     -41.152  62.414 -64.221  1.00  0.00     0.159 HD
HETATM   43  H   UNL     1     -39.472  61.994 -64.195  1.00  0.00     0.159 HD
HETATM   44  O   UNL     1     -38.947  63.051 -62.061  1.00  0.00    -0.273 OA
ENDBRANCH  37  40
ENDBRANCH   9  32
TORSDOF 8
ENDMDL
MODEL 8
REMARK VINA RESULT:      -8.0      2.713      7.674
REMARK  8 active torsions:
REMARK  status: ('A' for Active; 'I' for Inactive)
REMARK    1  A    between atoms: C_6  and  N_7 
REMARK       I    between atoms: N_7  and  C_8 
REMARK    2  A    between atoms: C_8  and  C_9 
REMARK    3  A    between atoms: C_9  and  S_10 
REMARK    4  A    between atoms: S_10  and  C_11 
REMARK    5  A    between atoms: N_12  and  C_13 
REMARK    6  A    between atoms: C_13  and  C_14 
REMARK    7  A    between atoms: C_25  and  C_26 
REMARK       I    between atoms: C_26  and  N_27 
REMARK    8  A    between atoms: C_30  and  C_31 
REMARK       I    between atoms: C_31  and  N_32 
ROOT
HETATM    1  C   UNL     1     -43.825  57.142 -56.691  1.00  0.00     0.172 C 
HETATM    2  N   UNL     1     -44.705  57.885 -57.452  1.00  0.00    -0.286 N 
HETATM    3  C   UNL     1     -45.300  59.024 -56.919  1.00  0.00     0.262 C 
HETATM    4  O   UNL     1     -46.187  59.667 -57.476  1.00  0.00    -0.267 OA
HETATM    5  C   UNL     1     -44.806  59.473 -55.607  1.00  0.00     0.061 A 
HETATM    6  C   UNL     1     -43.859  58.675 -54.964  1.00  0.00     0.076 A 
HETATM    7  C   UNL     1     -45.242  60.683 -55.053  1.00  0.00     0.020 A 
HETATM    8  C   UNL     1     -44.697  61.120 -53.847  1.00  0.00     0.018 A 
HETATM    9  C   UNL     1     -43.714  60.349 -53.222  1.00  0.00     0.034 A 
HETATM   10  C   UNL     1     -43.315  59.118 -53.758  1.00  0.00     0.050 A 
HETATM   11  N   UNL     1     -43.424  57.456 -55.501  1.00  0.00    -0.224 NA
ENDROOT
BRANCH   1  12
HETATM   12  S   UNL     1     -43.216  55.621 -57.300  1.00  0.00    -0.082 SA
BRANCH  12  13
HETATM   13  C   UNL     1     -41.728  55.510 -56.267  1.00  0.00     0.185 C 
BRANCH  13  14
HETATM   14  C   UNL     1     -41.775  54.406 -55.222  1.00  0.00     0.231 C 
HETATM   15  N   UNL     1     -40.548  53.976 -54.755  1.00  0.00    -0.326 N 
HETATM   16  H   UNL     1     -39.728  54.349 -55.230  1.00  0.00     0.169 HD
HETATM   17  O   UNL     1     -42.871  54.025 -54.811  1.00  0.00    -0.272 OA
BRANCH  15  18
HETATM   18  C   UNL     1     -40.303  53.015 -53.750  1.00  0.00     0.036 A 
HETATM   19  C   UNL     1     -40.446  53.258 -52.382  1.00  0.00     0.053 A 
HETATM   20  C   UNL     1     -40.183  52.250 -51.446  1.00  0.00     0.042 A 
HETATM   21  C   UNL     1     -39.789  50.969 -51.860  1.00  0.00    -0.040 A 
HETATM   22 CL   UNL     1     -40.350  52.644 -49.770  1.00  0.00    -0.084 Cl
HETATM   23  C   UNL     1     -39.481  49.868 -50.886  1.00  0.00     0.050 C 
HETATM   24  C   UNL     1     -39.627  50.737 -53.233  1.00  0.00     0.011 A 
HETATM   25  C   UNL     1     -39.880  51.749 -54.165  1.00  0.00     0.030 A 
ENDBRANCH  15  18
ENDBRANCH  13  14
ENDBRANCH  12  13
ENDBRANCH   1  12
BRANCH   2  26
HETATM   26  C   UNL     1     -45.053  57.589 -58.845  1.00  0.00     0.199 C 
BRANCH  26  27
HETATM   27  C   UNL     1     -44.179  58.396 -59.742  1.00  0.00     0.070 A 
HETATM   28  O   UNL     1     -42.883  57.994 -59.870  1.00  0.00    -0.325 OA
HETATM   29  C   UNL     1     -42.274  58.878 -60.702  1.00  0.00     0.142 A 
HETATM   30  C   UNL     1     -43.162  59.844 -61.113  1.00  0.00     0.027 A 
HETATM   31  C   UNL     1     -44.396  59.533 -60.494  1.00  0.00     0.036 A 
ENDBRANCH  26  27
ENDBRANCH   2  26
BRANCH   9  32
HETATM   32  C   UNL     1     -43.130  60.837 -51.956  1.00  0.00     0.253 C 
HETATM   33  N   UNL     1     -43.976  61.050 -50.864  1.00  0.00    -0.348 N 
HETATM   34  C   UNL     1     -43.342  61.477 -49.618  1.00  0.00     0.127 C 
HETATM   35  C   UNL     1     -45.261  60.370 -50.702  1.00  0.00     0.127 C 
HETATM   36  C   UNL     1     -44.285  62.325 -48.766  1.00  0.00     0.034 C 
HETATM   37  C   UNL     1     -45.661  61.678 -48.567  1.00  0.00     0.081 C 
HETATM   38  C   UNL     1     -46.245  61.228 -49.911  1.00  0.00     0.034 C 
HETATM   39  O   UNL     1     -41.919  61.038 -51.945  1.00  0.00    -0.267 OA
BRANCH  37  40
HETATM   40  C   UNL     1     -45.614  60.530 -47.565  1.00  0.00     0.219 C 
HETATM   41  N   UNL     1     -44.741  60.702 -46.530  1.00  0.00    -0.370 N 
HETATM   42  H   UNL     1     -43.999  61.387 -46.560  1.00  0.00     0.159 HD
HETATM   43  H   UNL     1     -44.631  59.916 -45.900  1.00  0.00     0.159 HD
HETATM   44  O   UNL     1     -46.290  59.513 -47.640  1.00  0.00    -0.273 OA
ENDBRANCH  37  40
ENDBRANCH   9  32
TORSDOF 8
ENDMDL
MODEL 9
REMARK VINA RESULT:      -8.0      2.998      8.085
REMARK  8 active torsions:
REMARK  status: ('A' for Active; 'I' for Inactive)
REMARK    1  A    between atoms: C_6  and  N_7 
REMARK       I    between atoms: N_7  and  C_8 
REMARK    2  A    between atoms: C_8  and  C_9 
REMARK    3  A    between atoms: C_9  and  S_10 
REMARK    4  A    between atoms: S_10  and  C_11 
REMARK    5  A    between atoms: N_12  and  C_13 
REMARK    6  A    between atoms: C_13  and  C_14 
REMARK    7  A    between atoms: C_25  and  C_26 
REMARK       I    between atoms: C_26  and  N_27 
REMARK    8  A    between atoms: C_30  and  C_31 
REMARK       I    between atoms: C_31  and  N_32 
ROOT
HETATM    1  C   UNL     1     -44.121  58.456 -55.099  1.00  0.00     0.172 C 
HETATM    2  N   UNL     1     -44.900  59.066 -56.063  1.00  0.00    -0.286 N 
HETATM    3  C   UNL     1     -45.535  60.273 -55.786  1.00  0.00     0.262 C 
HETATM    4  O   UNL     1     -46.344  60.817 -56.534  1.00  0.00    -0.267 OA
HETATM    5  C   UNL     1     -45.186  60.924 -54.513  1.00  0.00     0.061 A 
HETATM    6  C   UNL     1     -44.330  60.242 -53.650  1.00  0.00     0.076 A 
HETATM    7  C   UNL     1     -45.665  62.205 -54.209  1.00  0.00     0.020 A 
HETATM    8  C   UNL     1     -45.254  62.829 -53.033  1.00  0.00     0.018 A 
HETATM    9  C   UNL     1     -44.359  62.170 -52.186  1.00  0.00     0.034 A 
HETATM   10  C   UNL     1     -43.919  60.872 -52.474  1.00  0.00     0.050 A 
HETATM   11  N   UNL     1     -43.854  58.955 -53.935  1.00  0.00    -0.224 NA
ENDROOT
BRANCH   1  12
HETATM   12  S   UNL     1     -43.469  56.861 -55.389  1.00  0.00    -0.082 SA
BRANCH  12  13
HETATM   13  C   UNL     1     -42.470  56.717 -53.881  1.00  0.00     0.185 C 
BRANCH  13  14
HETATM   14  C   UNL     1     -42.308  55.293 -53.373  1.00  0.00     0.231 C 
HETATM   15  N   UNL     1     -41.016  54.802 -53.377  1.00  0.00    -0.326 N 
HETATM   16  H   UNL     1     -40.312  55.388 -53.823  1.00  0.00     0.169 HD
HETATM   17  O   UNL     1     -43.295  54.705 -52.931  1.00  0.00    -0.272 OA
BRANCH  15  18
HETATM   18  C   UNL     1     -40.575  53.545 -52.908  1.00  0.00     0.036 A 
HETATM   19  C   UNL     1     -40.229  52.477 -53.738  1.00  0.00     0.053 A 
HETATM   20  C   UNL     1     -39.800  51.260 -53.192  1.00  0.00     0.042 A 
HETATM   21  C   UNL     1     -39.689  51.092 -51.805  1.00  0.00    -0.040 A 
HETATM   22 CL   UNL     1     -39.424  49.975 -54.289  1.00  0.00    -0.084 Cl
HETATM   23  C   UNL     1     -39.250  49.797 -51.183  1.00  0.00     0.050 C 
HETATM   24  C   UNL     1     -40.058  52.161 -50.976  1.00  0.00     0.011 A 
HETATM   25  C   UNL     1     -40.497  53.372 -51.523  1.00  0.00     0.030 A 
ENDBRANCH  15  18
ENDBRANCH  13  14
ENDBRANCH  12  13
ENDBRANCH   1  12
BRANCH   2  26
HETATM   26  C   UNL     1     -45.092  58.554 -57.422  1.00  0.00     0.199 C 
BRANCH  26  27
HETATM   27  C   UNL     1     -43.989  59.058 -58.288  1.00  0.00     0.070 A 
HETATM   28  O   UNL     1     -42.935  58.219 -58.501  1.00  0.00    -0.325 OA
HETATM   29  C   UNL     1     -42.050  58.887 -59.285  1.00  0.00     0.142 A 
HETATM   30  C   UNL     1     -42.521  60.144 -59.582  1.00  0.00     0.027 A 
HETATM   31  C   UNL     1     -43.777  60.257 -58.939  1.00  0.00     0.036 A 
ENDBRANCH  26  27
ENDBRANCH   2  26
BRANCH   9  32
HETATM   32  C   UNL     1     -43.915  62.853 -50.955  1.00  0.00     0.253 C 
HETATM   33  N   UNL     1     -44.818  62.982 -49.895  1.00  0.00    -0.348 N 
HETATM   34  C   UNL     1     -44.314  63.614 -48.677  1.00  0.00     0.127 C 
HETATM   35  C   UNL     1     -45.955  62.082 -49.699  1.00  0.00     0.127 C 
HETATM   36  C   UNL     1     -45.425  64.327 -47.909  1.00  0.00     0.034 C 
HETATM   37  C   UNL     1     -46.658  63.445 -47.679  1.00  0.00     0.081 C 
HETATM   38  C   UNL     1     -47.106  62.793 -48.993  1.00  0.00     0.034 C 
HETATM   39  O   UNL     1     -42.765  63.282 -50.941  1.00  0.00    -0.267 OA
BRANCH  37  40
HETATM   40  C   UNL     1     -46.423  62.406 -46.590  1.00  0.00     0.219 C 
HETATM   41  N   UNL     1     -47.535  61.714 -46.203  1.00  0.00    -0.370 N 
HETATM   42  H   UNL     1     -48.469  62.037 -46.411  1.00  0.00     0.159 HD
HETATM   43  H   UNL     1     -47.419  61.079 -45.422  1.00  0.00     0.159 HD
HETATM   44  O   UNL     1     -45.338  62.171 -46.074  1.00  0.00    -0.273 OA
ENDBRANCH  37  40
ENDBRANCH   9  32
TORSDOF 8
ENDMDL
MODEL 10
REMARK VINA RESULT:      -7.9      3.313      8.426
REMARK  8 active torsions:
REMARK  status: ('A' for Active; 'I' for Inactive)
REMARK    1  A    between atoms: C_6  and  N_7 
REMARK       I    between atoms: N_7  and  C_8 
REMARK    2  A    between atoms: C_8  and  C_9 
REMARK    3  A    between atoms: C_9  and  S_10 
REMARK    4  A    between atoms: S_10  and  C_11 
REMARK    5  A    between atoms: N_12  and  C_13 
REMARK    6  A    between atoms: C_13  and  C_14 
REMARK    7  A    between atoms: C_25  and  C_26 
REMARK       I    between atoms: C_26  and  N_27 
REMARK    8  A    between atoms: C_30  and  C_31 
REMARK       I    between atoms: C_31  and  N_32 
ROOT
HETATM    1  C   UNL     1     -45.197  61.036 -53.998  1.00  0.00     0.172 C 
HETATM    2  N   UNL     1     -45.700  61.417 -52.770  1.00  0.00    -0.286 N 
HETATM    3  C   UNL     1     -45.828  60.481 -51.748  1.00  0.00     0.262 C 
HETATM    4  O   UNL     1     -46.381  60.702 -50.673  1.00  0.00    -0.267 OA
HETATM    5  C   UNL     1     -45.242  59.154 -51.993  1.00  0.00     0.061 A 
HETATM    6  C   UNL     1     -44.695  58.909 -53.253  1.00  0.00     0.076 A 
HETATM    7  C   UNL     1     -45.197  58.192 -50.976  1.00  0.00     0.020 A 
HETATM    8  C   UNL     1     -44.565  56.973 -51.212  1.00  0.00     0.018 A 
HETATM    9  C   UNL     1     -43.973  56.740 -52.457  1.00  0.00     0.034 A 
HETATM   10  C   UNL     1     -44.061  57.688 -53.485  1.00  0.00     0.050 A 
HETATM   11  N   UNL     1     -44.745  59.857 -54.283  1.00  0.00    -0.224 NA
ENDROOT
BRANCH   1  12
HETATM   12  S   UNL     1     -45.200  62.170 -55.329  1.00  0.00    -0.082 SA
BRANCH  12  13
HETATM   13  C   UNL     1     -46.524  61.408 -56.309  1.00  0.00     0.185 C 
BRANCH  13  14
HETATM   14  C   UNL     1     -46.031  60.538 -57.455  1.00  0.00     0.231 C 
HETATM   15  N   UNL     1     -46.110  59.175 -57.243  1.00  0.00    -0.326 N 
HETATM   16  H   UNL     1     -46.380  58.877 -56.307  1.00  0.00     0.169 HD
HETATM   17  O   UNL     1     -45.672  61.080 -58.500  1.00  0.00    -0.272 OA
BRANCH  15  18
HETATM   18  C   UNL     1     -45.781  58.146 -58.153  1.00  0.00     0.036 A 
HETATM   19  C   UNL     1     -44.487  57.662 -58.354  1.00  0.00     0.053 A 
HETATM   20  C   UNL     1     -44.243  56.637 -59.277  1.00  0.00     0.042 A 
HETATM   21  C   UNL     1     -45.293  56.059 -60.005  1.00  0.00    -0.040 A 
HETATM   22 CL   UNL     1     -42.606  56.120 -59.492  1.00  0.00    -0.084 Cl
HETATM   23  C   UNL     1     -45.068  54.971 -61.015  1.00  0.00     0.050 C 
HETATM   24  C   UNL     1     -46.587  56.563 -59.814  1.00  0.00     0.011 A 
HETATM   25  C   UNL     1     -46.826  57.594 -58.899  1.00  0.00     0.030 A 
ENDBRANCH  15  18
ENDBRANCH  13  14
ENDBRANCH  12  13
ENDBRANCH   1  12
BRANCH   2  26
HETATM   26  C   UNL     1     -46.090  62.785 -52.420  1.00  0.00     0.199 C 
BRANCH  26  27
HETATM   27  C   UNL     1     -47.578  62.872 -52.398  1.00  0.00     0.070 A 
HETATM   28  O   UNL     1     -48.255  62.153 -53.338  1.00  0.00    -0.325 OA
HETATM   29  C   UNL     1     -49.577  62.401 -53.150  1.00  0.00     0.142 A 
HETATM   30  C   UNL     1     -49.760  63.270 -52.101  1.00  0.00     0.027 A 
HETATM   31  C   UNL     1     -48.468  63.575 -51.611  1.00  0.00     0.036 A 
ENDBRANCH  26  27
ENDBRANCH   2  26
BRANCH   9  32
HETATM   32  C   UNL     1     -43.288  55.452 -52.686  1.00  0.00     0.253 C 
HETATM   33  N   UNL     1     -42.267  55.070 -51.811  1.00  0.00    -0.348 N 
HETATM   34  C   UNL     1     -41.658  53.762 -52.045  1.00  0.00     0.127 C 
HETATM   35  C   UNL     1     -42.164  55.561 -50.436  1.00  0.00     0.127 C 
HETATM   36  C   UNL     1     -40.204  53.722 -51.577  1.00  0.00     0.034 C 
HETATM   37  C   UNL     1     -40.021  54.239 -50.145  1.00  0.00     0.081 C 
HETATM   38  C   UNL     1     -40.713  55.596 -49.968  1.00  0.00     0.034 C 
HETATM   39  O   UNL     1     -43.655  54.792 -53.653  1.00  0.00    -0.267 OA
BRANCH  37  40
HETATM   40  C   UNL     1     -40.496  53.230 -49.107  1.00  0.00     0.219 C 
HETATM   41  N   UNL     1     -40.480  51.928 -49.517  1.00  0.00    -0.370 N 
HETATM   42  H   UNL     1     -40.424  51.672 -50.493  1.00  0.00     0.159 HD
HETATM   43  H   UNL     1     -40.872  51.250 -48.874  1.00  0.00     0.159 HD
HETATM   44  O   UNL     1     -40.869  53.517 -47.977  1.00  0.00    -0.273 OA
ENDBRANCH  37  40
ENDBRANCH   9  32
TORSDOF 8
ENDMDL
