MODEL 1
REMARK VINA RESULT:      -7.1      0.000      0.000
REMARK  7 active torsions:
REMARK  status: ('A' for Active; 'I' for Inactive)
REMARK       I    between atoms: C_2  and  N_3 
REMARK    1  A    between atoms: N_3  and  C_4 
REMARK    2  A    between atoms: C_7  and  N_8 
REMARK       I    between atoms: N_8  and  C_9 
REMARK    3  A    between atoms: C_9  and  C_10 
REMARK    4  A    between atoms: C_11  and  C_12 
REMARK    5  A    between atoms: C_13  and  O_14 
REMARK    6  A    between atoms: N_20  and  C_21 
REMARK    7  A    between atoms: C_24  and  O_25 
ROOT
HETATM    1  C   UNL     1     -42.953  59.960 -56.403  1.00  0.00     0.106 C 
HETATM    2  C   UNL     1     -43.634  60.619 -57.643  1.00  0.00     0.142 C 
HETATM    3  N   UNL     1     -45.059  60.232 -57.736  1.00  0.00    -0.308 N 
HETATM    4  C   UNL     1     -45.803  60.579 -56.598  1.00  0.00     0.225 C 
HETATM    5  O   UNL     1     -46.781  61.318 -56.593  1.00  0.00    -0.273 OA
HETATM    6  C   UNL     1     -45.312  59.846 -55.369  1.00  0.00     0.104 C 
HETATM    7  C   UNL     1     -43.829  60.083 -55.139  1.00  0.00     0.026 C 
ENDROOT
BRANCH   1   8
HETATM    8  C   UNL     1     -42.492  58.525 -56.657  1.00  0.00     0.228 C 
HETATM    9  N   UNL     1     -42.766  57.704 -55.580  1.00  0.00    -0.327 N 
HETATM   10  H   UNL     1     -43.332  58.115 -54.843  1.00  0.00     0.169 HD
HETATM   11  O   UNL     1     -41.941  58.190 -57.700  1.00  0.00    -0.273 OA
BRANCH   9  12
HETATM   12  C   UNL     1     -42.318  56.400 -55.315  1.00  0.00     0.034 A 
HETATM   13  C   UNL     1     -43.079  55.250 -55.500  1.00  0.00     0.032 A 
HETATM   14  C   UNL     1     -42.507  53.984 -55.297  1.00  0.00     0.032 A 
HETATM   15  C   UNL     1     -41.174  53.856 -54.899  1.00  0.00     0.034 A 
HETATM   16  C   UNL     1     -40.425  55.014 -54.680  1.00  0.00     0.032 A 
HETATM   17  C   UNL     1     -40.990  56.273 -54.893  1.00  0.00     0.032 A 
BRANCH  15  18
HETATM   18  N   UNL     1     -40.510  52.627 -54.712  1.00  0.00    -0.328 N 
HETATM   19  C   UNL     1     -40.115  52.055 -53.519  1.00  0.00     0.218 C 
HETATM   20  C   UNL     1     -39.485  50.699 -53.726  1.00  0.00     0.117 C 
HETATM   21  O   UNL     1     -40.265  52.513 -52.393  1.00  0.00    -0.274 OA
HETATM   22  H   UNL     1     -40.350  52.081 -55.549  1.00  0.00     0.169 HD
ENDBRANCH  15  18
ENDBRANCH   9  12
ENDBRANCH   1   8
BRANCH   2  23
HETATM   23  C   UNL     1     -42.859  60.807 -58.967  1.00  0.00    -0.001 C 
HETATM   24  C   UNL     1     -41.802  61.727 -59.124  1.00  0.00     0.076 C 
HETATM   25  C   UNL     1     -41.063  61.803 -60.316  1.00  0.00     0.037 C 
HETATM   26  C   UNL     1     -41.429  61.045 -61.420  1.00  0.00     0.003 C 
HETATM   27  C   UNL     1     -42.554  60.237 -61.343  1.00  0.00     0.001 C 
HETATM   28  C   UNL     1     -43.269  60.145 -60.145  1.00  0.00     0.012 C 
BRANCH  24  29
HETATM   29  O   UNL     1     -41.453  62.535 -58.070  1.00  0.00    -0.355 OA
HETATM   30  C   UNL     1     -40.593  63.609 -58.464  1.00  0.00     0.210 C 
ENDBRANCH  24  29
ENDBRANCH   2  23
BRANCH   3  31
HETATM   31  C   UNL     1     -45.586  59.129 -58.501  1.00  0.00     0.038 A 
HETATM   32  C   UNL     1     -46.613  59.379 -59.428  1.00  0.00     0.032 A 
HETATM   33  C   UNL     1     -47.146  58.359 -60.220  1.00  0.00     0.039 A 
HETATM   34  C   UNL     1     -46.676  57.055 -60.105  1.00  0.00     0.068 A 
HETATM   35  C   UNL     1     -45.663  56.786 -59.190  1.00  0.00     0.039 A 
HETATM   36  C   UNL     1     -45.117  57.816 -58.403  1.00  0.00     0.032 A 
BRANCH  34  37
HETATM   37  O   UNL     1     -47.279  56.157 -60.940  1.00  0.00    -0.356 OA
HETATM   38  C   UNL     1     -48.109  56.689 -61.964  1.00  0.00     0.210 C 
ENDBRANCH  34  37
ENDBRANCH   3  31
TORSDOF 7
ENDMDL
MODEL 2
REMARK VINA RESULT:      -7.0      4.730      7.915
REMARK  7 active torsions:
REMARK  status: ('A' for Active; 'I' for Inactive)
REMARK       I    between atoms: C_2  and  N_3 
REMARK    1  A    between atoms: N_3  and  C_4 
REMARK    2  A    between atoms: C_7  and  N_8 
REMARK       I    between atoms: N_8  and  C_9 
REMARK    3  A    between atoms: C_9  and  C_10 
REMARK    4  A    between atoms: C_11  and  C_12 
REMARK    5  A    between atoms: C_13  and  O_14 
REMARK    6  A    between atoms: N_20  and  C_21 
REMARK    7  A    between atoms: C_24  and  O_25 
ROOT
HETATM    1  C   UNL     1     -45.229  59.049 -52.609  1.00  0.00     0.106 C 
HETATM    2  C   UNL     1     -44.494  60.385 -52.277  1.00  0.00     0.142 C 
HETATM    3  N   UNL     1     -43.174  60.446 -52.945  1.00  0.00    -0.308 N 
HETATM    4  C   UNL     1     -43.252  60.328 -54.341  1.00  0.00     0.225 C 
HETATM    5  O   UNL     1     -42.857  61.167 -55.142  1.00  0.00    -0.273 OA
HETATM    6  C   UNL     1     -43.802  58.981 -54.755  1.00  0.00     0.104 C 
HETATM    7  C   UNL     1     -45.153  58.714 -54.112  1.00  0.00     0.026 C 
ENDROOT
BRANCH   1   8
HETATM    8  C   UNL     1     -44.789  57.882 -51.725  1.00  0.00     0.228 C 
HETATM    9  N   UNL     1     -43.496  57.485 -52.013  1.00  0.00    -0.327 N 
HETATM   10  H   UNL     1     -42.984  58.081 -52.657  1.00  0.00     0.169 HD
HETATM   11  O   UNL     1     -45.527  57.383 -50.884  1.00  0.00    -0.273 OA
BRANCH   9  12
HETATM   12  C   UNL     1     -42.803  56.335 -51.601  1.00  0.00     0.034 A 
HETATM   13  C   UNL     1     -41.890  56.296 -50.554  1.00  0.00     0.032 A 
HETATM   14  C   UNL     1     -41.320  55.075 -50.158  1.00  0.00     0.032 A 
HETATM   15  C   UNL     1     -41.652  53.885 -50.811  1.00  0.00     0.034 A 
HETATM   16  C   UNL     1     -42.542  53.936 -51.886  1.00  0.00     0.032 A 
HETATM   17  C   UNL     1     -43.117  55.148 -52.272  1.00  0.00     0.032 A 
BRANCH  15  18
HETATM   18  N   UNL     1     -41.160  52.615 -50.454  1.00  0.00    -0.328 N 
HETATM   19  C   UNL     1     -40.216  51.857 -51.120  1.00  0.00     0.218 C 
HETATM   20  C   UNL     1     -39.907  50.573 -50.391  1.00  0.00     0.117 C 
HETATM   21  O   UNL     1     -39.629  52.151 -52.155  1.00  0.00    -0.274 OA
HETATM   22  H   UNL     1     -41.506  52.237 -49.581  1.00  0.00     0.169 HD
ENDBRANCH  15  18
ENDBRANCH   9  12
ENDBRANCH   1   8
BRANCH   2  23
HETATM   23  C   UNL     1     -44.615  61.034 -50.880  1.00  0.00    -0.001 C 
HETATM   24  C   UNL     1     -44.202  62.352 -50.598  1.00  0.00     0.076 C 
HETATM   25  C   UNL     1     -44.414  62.936 -49.338  1.00  0.00     0.037 C 
HETATM   26  C   UNL     1     -44.941  62.186 -48.295  1.00  0.00     0.003 C 
HETATM   27  C   UNL     1     -45.223  60.845 -48.501  1.00  0.00     0.001 C 
HETATM   28  C   UNL     1     -45.036  60.276 -49.765  1.00  0.00     0.012 C 
BRANCH  24  29
HETATM   29  O   UNL     1     -43.622  63.101 -51.591  1.00  0.00    -0.355 OA
HETATM   30  C   UNL     1     -43.144  64.365 -51.117  1.00  0.00     0.210 C 
ENDBRANCH  24  29
ENDBRANCH   2  23
BRANCH   3  31
HETATM   31  C   UNL     1     -41.917  60.045 -52.365  1.00  0.00     0.038 A 
HETATM   32  C   UNL     1     -41.721  60.225 -50.984  1.00  0.00     0.032 A 
HETATM   33  C   UNL     1     -40.536  59.831 -50.356  1.00  0.00     0.039 A 
HETATM   34  C   UNL     1     -39.505  59.254 -51.090  1.00  0.00     0.068 A 
HETATM   35  C   UNL     1     -39.677  59.071 -52.459  1.00  0.00     0.039 A 
HETATM   36  C   UNL     1     -40.876  59.455 -53.088  1.00  0.00     0.032 A 
BRANCH  34  37
HETATM   37  O   UNL     1     -38.406  58.912 -50.354  1.00  0.00    -0.356 OA
HETATM   38  C   UNL     1     -37.724  59.967 -49.689  1.00  0.00     0.210 C 
ENDBRANCH  34  37
ENDBRANCH   3  31
TORSDOF 7
ENDMDL
MODEL 3
REMARK VINA RESULT:      -7.0      4.579      8.821
REMARK  7 active torsions:
REMARK  status: ('A' for Active; 'I' for Inactive)
REMARK       I    between atoms: C_2  and  N_3 
REMARK    1  A    between atoms: N_3  and  C_4 
REMARK    2  A    between atoms: C_7  and  N_8 
REMARK       I    between atoms: N_8  and  C_9 
REMARK    3  A    between atoms: C_9  and  C_10 
REMARK    4  A    between atoms: C_11  and  C_12 
REMARK    5  A    between atoms: C_13  and  O_14 
REMARK    6  A    between atoms: N_20  and  C_21 
REMARK    7  A    between atoms: C_24  and  O_25 
ROOT
HETATM    1  C   UNL     1     -41.773  57.357 -51.070  1.00  0.00     0.106 C 
HETATM    2  C   UNL     1     -41.310  57.065 -52.531  1.00  0.00     0.142 C 
HETATM    3  N   UNL     1     -40.762  58.284 -53.169  1.00  0.00    -0.308 N 
HETATM    4  C   UNL     1     -39.676  58.835 -52.470  1.00  0.00     0.225 C 
HETATM    5  O   UNL     1     -38.552  58.997 -52.931  1.00  0.00    -0.273 OA
HETATM    6  C   UNL     1     -40.083  59.303 -51.091  1.00  0.00     0.104 C 
HETATM    7  C   UNL     1     -40.727  58.182 -50.293  1.00  0.00     0.026 C 
ENDROOT
BRANCH   1   8
HETATM    8  C   UNL     1     -43.174  57.964 -50.990  1.00  0.00     0.228 C 
HETATM    9  N   UNL     1     -43.131  59.346 -50.993  1.00  0.00    -0.327 N 
HETATM   10  H   UNL     1     -42.220  59.759 -51.172  1.00  0.00     0.169 HD
HETATM   11  O   UNL     1     -44.184  57.273 -50.922  1.00  0.00    -0.273 OA
BRANCH   9  12
HETATM   12  C   UNL     1     -44.149  60.271 -50.714  1.00  0.00     0.034 A 
HETATM   13  C   UNL     1     -45.375  60.317 -51.369  1.00  0.00     0.032 A 
HETATM   14  C   UNL     1     -46.366  61.221 -50.951  1.00  0.00     0.032 A 
HETATM   15  C   UNL     1     -46.136  62.091 -49.883  1.00  0.00     0.034 A 
HETATM   16  C   UNL     1     -44.891  62.066 -49.253  1.00  0.00     0.032 A 
HETATM   17  C   UNL     1     -43.910  61.160 -49.660  1.00  0.00     0.032 A 
BRANCH  15  18
HETATM   18  N   UNL     1     -47.086  62.999 -49.374  1.00  0.00    -0.328 N 
HETATM   19  C   UNL     1     -47.681  62.986 -48.127  1.00  0.00     0.218 C 
HETATM   20  C   UNL     1     -48.604  64.164 -47.931  1.00  0.00     0.117 C 
HETATM   21  O   UNL     1     -47.495  62.176 -47.227  1.00  0.00    -0.274 OA
HETATM   22  H   UNL     1     -47.320  63.776 -49.977  1.00  0.00     0.169 HD
ENDBRANCH  15  18
ENDBRANCH   9  12
ENDBRANCH   1   8
BRANCH   2  23
HETATM   23  C   UNL     1     -42.091  56.081 -53.431  1.00  0.00    -0.001 C 
HETATM   24  C   UNL     1     -41.589  54.822 -53.822  1.00  0.00     0.076 C 
HETATM   25  C   UNL     1     -42.366  53.918 -54.564  1.00  0.00     0.037 C 
HETATM   26  C   UNL     1     -43.621  54.288 -55.031  1.00  0.00     0.003 C 
HETATM   27  C   UNL     1     -44.083  55.572 -54.786  1.00  0.00     0.001 C 
HETATM   28  C   UNL     1     -43.316  56.459 -54.023  1.00  0.00     0.012 C 
BRANCH  24  29
HETATM   29  O   UNL     1     -40.328  54.450 -53.427  1.00  0.00    -0.355 OA
HETATM   30  C   UNL     1     -40.344  53.376 -52.480  1.00  0.00     0.210 C 
ENDBRANCH  24  29
ENDBRANCH   2  23
BRANCH   3  31
HETATM   31  C   UNL     1     -41.501  59.213 -53.986  1.00  0.00     0.038 A 
HETATM   32  C   UNL     1     -41.709  58.903 -55.341  1.00  0.00     0.032 A 
HETATM   33  C   UNL     1     -42.442  59.748 -56.180  1.00  0.00     0.039 A 
HETATM   34  C   UNL     1     -42.980  60.934 -55.692  1.00  0.00     0.068 A 
HETATM   35  C   UNL     1     -42.781  61.262 -54.354  1.00  0.00     0.039 A 
HETATM   36  C   UNL     1     -42.056  60.404 -53.508  1.00  0.00     0.032 A 
BRANCH  34  37
HETATM   37  O   UNL     1     -43.677  61.664 -56.615  1.00  0.00    -0.356 OA
HETATM   38  C   UNL     1     -44.590  60.953 -57.440  1.00  0.00     0.210 C 
ENDBRANCH  34  37
ENDBRANCH   3  31
TORSDOF 7
ENDMDL
MODEL 4
REMARK VINA RESULT:      -6.9      3.390      6.780
REMARK  7 active torsions:
REMARK  status: ('A' for Active; 'I' for Inactive)
REMARK       I    between atoms: C_2  and  N_3 
REMARK    1  A    between atoms: N_3  and  C_4 
REMARK    2  A    between atoms: C_7  and  N_8 
REMARK       I    between atoms: N_8  and  C_9 
REMARK    3  A    between atoms: C_9  and  C_10 
REMARK    4  A    between atoms: C_11  and  C_12 
REMARK    5  A    between atoms: C_13  and  O_14 
REMARK    6  A    between atoms: N_20  and  C_21 
REMARK    7  A    between atoms: C_24  and  O_25 
ROOT
HETATM    1  C   UNL     1     -44.273  57.904 -55.484  1.00  0.00     0.106 C 
HETATM    2  C   UNL     1     -44.165  59.256 -54.712  1.00  0.00     0.142 C 
HETATM    3  N   UNL     1     -42.770  59.751 -54.699  1.00  0.00    -0.308 N 
HETATM    4  C   UNL     1     -42.237  59.941 -55.983  1.00  0.00     0.225 C 
HETATM    5  O   UNL     1     -41.817  61.005 -56.422  1.00  0.00    -0.273 OA
HETATM    6  C   UNL     1     -42.148  58.637 -56.746  1.00  0.00     0.104 C 
HETATM    7  C   UNL     1     -43.498  57.945 -56.817  1.00  0.00     0.026 C 
ENDROOT
BRANCH   1   8
HETATM    8  C   UNL     1     -43.906  56.689 -54.631  1.00  0.00     0.228 C 
HETATM    9  N   UNL     1     -42.551  56.420 -54.684  1.00  0.00    -0.327 N 
HETATM   10  H   UNL     1     -41.981  57.114 -55.160  1.00  0.00     0.169 HD
HETATM   11  O   UNL     1     -44.744  56.055 -54.000  1.00  0.00    -0.273 OA
BRANCH   9  12
HETATM   12  C   UNL     1     -41.848  55.290 -54.239  1.00  0.00     0.034 A 
HETATM   13  C   UNL     1     -41.958  54.742 -52.965  1.00  0.00     0.032 A 
HETATM   14  C   UNL     1     -41.283  53.552 -52.647  1.00  0.00     0.032 A 
HETATM   15  C   UNL     1     -40.487  52.905 -53.596  1.00  0.00     0.034 A 
HETATM   16  C   UNL     1     -40.351  53.478 -54.862  1.00  0.00     0.032 A 
HETATM   17  C   UNL     1     -41.031  54.655 -55.182  1.00  0.00     0.032 A 
BRANCH  15  18
HETATM   18  N   UNL     1     -39.810  51.690 -53.375  1.00  0.00    -0.328 N 
HETATM   19  C   UNL     1     -40.134  50.441 -53.870  1.00  0.00     0.218 C 
HETATM   20  C   UNL     1     -39.129  49.393 -53.458  1.00  0.00     0.117 C 
HETATM   21  O   UNL     1     -41.079  50.156 -54.596  1.00  0.00    -0.274 OA
HETATM   22  H   UNL     1     -38.961  51.751 -52.829  1.00  0.00     0.169 HD
ENDBRANCH  15  18
ENDBRANCH   9  12
ENDBRANCH   1   8
BRANCH   2  23
HETATM   23  C   UNL     1     -45.028  59.527 -53.459  1.00  0.00    -0.001 C 
HETATM   24  C   UNL     1     -45.862  60.655 -53.320  1.00  0.00     0.076 C 
HETATM   25  C   UNL     1     -46.700  60.818 -52.205  1.00  0.00     0.037 C 
HETATM   26  C   UNL     1     -46.648  59.919 -51.148  1.00  0.00     0.003 C 
HETATM   27  C   UNL     1     -45.733  58.878 -51.190  1.00  0.00     0.001 C 
HETATM   28  C   UNL     1     -44.920  58.705 -52.315  1.00  0.00     0.012 C 
BRANCH  24  29
HETATM   29  O   UNL     1     -45.892  61.595 -54.321  1.00  0.00    -0.355 OA
HETATM   30  C   UNL     1     -45.159  62.777 -53.985  1.00  0.00     0.210 C 
ENDBRANCH  24  29
ENDBRANCH   2  23
BRANCH   3  31
HETATM   31  C   UNL     1     -41.799  59.510 -53.661  1.00  0.00     0.038 A 
HETATM   32  C   UNL     1     -42.013  60.076 -52.392  1.00  0.00     0.032 A 
HETATM   33  C   UNL     1     -41.124  59.857 -51.335  1.00  0.00     0.039 A 
HETATM   34  C   UNL     1     -39.989  59.074 -51.517  1.00  0.00     0.068 A 
HETATM   35  C   UNL     1     -39.757  58.509 -52.767  1.00  0.00     0.039 A 
HETATM   36  C   UNL     1     -40.659  58.718 -53.826  1.00  0.00     0.032 A 
BRANCH  34  37
HETATM   37  O   UNL     1     -39.208  58.937 -50.404  1.00  0.00    -0.356 OA
HETATM   38  C   UNL     1     -38.371  60.036 -50.067  1.00  0.00     0.210 C 
ENDBRANCH  34  37
ENDBRANCH   3  31
TORSDOF 7
ENDMDL
MODEL 5
REMARK VINA RESULT:      -6.9     17.978     21.170
REMARK  7 active torsions:
REMARK  status: ('A' for Active; 'I' for Inactive)
REMARK       I    between atoms: C_2  and  N_3 
REMARK    1  A    between atoms: N_3  and  C_4 
REMARK    2  A    between atoms: C_7  and  N_8 
REMARK       I    between atoms: N_8  and  C_9 
REMARK    3  A    between atoms: C_9  and  C_10 
REMARK    4  A    between atoms: C_11  and  C_12 
REMARK    5  A    between atoms: C_13  and  O_14 
REMARK    6  A    between atoms: N_20  and  C_21 
REMARK    7  A    between atoms: C_24  and  O_25 
ROOT
HETATM    1  C   UNL     1     -34.698  38.813 -52.795  1.00  0.00     0.106 C 
HETATM    2  C   UNL     1     -33.863  39.965 -53.437  1.00  0.00     0.142 C 
HETATM    3  N   UNL     1     -34.713  41.143 -53.721  1.00  0.00    -0.308 N 
HETATM    4  C   UNL     1     -35.352  41.654 -52.579  1.00  0.00     0.225 C 
HETATM    5  O   UNL     1     -35.219  42.793 -52.148  1.00  0.00    -0.273 OA
HETATM    6  C   UNL     1     -36.316  40.650 -51.987  1.00  0.00     0.104 C 
HETATM    7  C   UNL     1     -35.623  39.334 -51.677  1.00  0.00     0.026 C 
ENDROOT
BRANCH   1   8
HETATM    8  C   UNL     1     -35.444  37.961 -53.823  1.00  0.00     0.228 C 
HETATM    9  N   UNL     1     -35.045  38.255 -55.113  1.00  0.00    -0.327 N 
HETATM   10  H   UNL     1     -34.248  38.881 -55.198  1.00  0.00     0.169 HD
HETATM   11  O   UNL     1     -36.291  37.137 -53.498  1.00  0.00    -0.273 OA
BRANCH   9  12
HETATM   12  C   UNL     1     -35.623  37.874 -56.334  1.00  0.00     0.034 A 
HETATM   13  C   UNL     1     -36.674  36.972 -56.463  1.00  0.00     0.032 A 
HETATM   14  C   UNL     1     -37.246  36.728 -57.722  1.00  0.00     0.032 A 
HETATM   15  C   UNL     1     -36.766  37.376 -58.864  1.00  0.00     0.034 A 
HETATM   16  C   UNL     1     -35.687  38.252 -58.734  1.00  0.00     0.032 A 
HETATM   17  C   UNL     1     -35.126  38.503 -57.481  1.00  0.00     0.032 A 
BRANCH  15  18
HETATM   18  N   UNL     1     -37.305  37.221 -60.156  1.00  0.00    -0.328 N 
HETATM   19  C   UNL     1     -38.497  37.727 -60.639  1.00  0.00     0.218 C 
HETATM   20  C   UNL     1     -38.700  37.395 -62.097  1.00  0.00     0.117 C 
HETATM   21  O   UNL     1     -39.313  38.406 -60.028  1.00  0.00    -0.274 OA
HETATM   22  H   UNL     1     -36.727  36.721 -60.818  1.00  0.00     0.169 HD
ENDBRANCH  15  18
ENDBRANCH   9  12
ENDBRANCH   1   8
BRANCH   2  23
HETATM   23  C   UNL     1     -32.717  39.659 -54.428  1.00  0.00    -0.001 C 
HETATM   24  C   UNL     1     -31.655  38.779 -54.137  1.00  0.00     0.076 C 
HETATM   25  C   UNL     1     -30.682  38.456 -55.098  1.00  0.00     0.037 C 
HETATM   26  C   UNL     1     -30.680  39.087 -56.335  1.00  0.00     0.003 C 
HETATM   27  C   UNL     1     -31.628  40.064 -56.598  1.00  0.00     0.001 C 
HETATM   28  C   UNL     1     -32.610  40.362 -55.648  1.00  0.00     0.012 C 
BRANCH  24  29
HETATM   29  O   UNL     1     -31.594  38.184 -52.901  1.00  0.00    -0.355 OA
HETATM   30  C   UNL     1     -31.505  36.758 -52.983  1.00  0.00     0.210 C 
ENDBRANCH  24  29
ENDBRANCH   2  23
BRANCH   3  31
HETATM   31  C   UNL     1     -35.371  41.427 -54.971  1.00  0.00     0.038 A 
HETATM   32  C   UNL     1     -36.722  41.068 -55.121  1.00  0.00     0.032 A 
HETATM   33  C   UNL     1     -37.425  41.341 -56.298  1.00  0.00     0.039 A 
HETATM   34  C   UNL     1     -36.797  41.974 -57.365  1.00  0.00     0.068 A 
HETATM   35  C   UNL     1     -35.459  42.334 -57.239  1.00  0.00     0.039 A 
HETATM   36  C   UNL     1     -34.756  42.071 -56.049  1.00  0.00     0.032 A 
BRANCH  34  37
HETATM   37  O   UNL     1     -37.598  42.185 -58.452  1.00  0.00    -0.356 OA
HETATM   38  C   UNL     1     -37.262  41.486 -59.643  1.00  0.00     0.210 C 
ENDBRANCH  34  37
ENDBRANCH   3  31
TORSDOF 7
ENDMDL
MODEL 6
REMARK VINA RESULT:      -6.9      3.213      6.340
REMARK  7 active torsions:
REMARK  status: ('A' for Active; 'I' for Inactive)
REMARK       I    between atoms: C_2  and  N_3 
REMARK    1  A    between atoms: N_3  and  C_4 
REMARK    2  A    between atoms: C_7  and  N_8 
REMARK       I    between atoms: N_8  and  C_9 
REMARK    3  A    between atoms: C_9  and  C_10 
REMARK    4  A    between atoms: C_11  and  C_12 
REMARK    5  A    between atoms: C_13  and  O_14 
REMARK    6  A    between atoms: N_20  and  C_21 
REMARK    7  A    between atoms: C_24  and  O_25 
ROOT
HETATM    1  C   UNL     1     -41.895  59.775 -57.027  1.00  0.00     0.106 C 
HETATM    2  C   UNL     1     -42.589  58.525 -57.653  1.00  0.00     0.142 C 
HETATM    3  N   UNL     1     -43.613  58.926 -58.645  1.00  0.00    -0.308 N 
HETATM    4  C   UNL     1     -43.095  59.705 -59.692  1.00  0.00     0.225 C 
HETATM    5  O   UNL     1     -43.141  59.408 -60.880  1.00  0.00    -0.273 OA
HETATM    6  C   UNL     1     -42.550  61.022 -59.187  1.00  0.00     0.104 C 
HETATM    7  C   UNL     1     -41.507  60.810 -58.103  1.00  0.00     0.026 C 
ENDROOT
BRANCH   1   8
HETATM    8  C   UNL     1     -42.690  60.396 -55.878  1.00  0.00     0.228 C 
HETATM    9  N   UNL     1     -41.973  60.378 -54.696  1.00  0.00    -0.327 N 
HETATM   10  H   UNL     1     -41.003  60.084 -54.771  1.00  0.00     0.169 HD
HETATM   11  O   UNL     1     -43.824  60.835 -56.029  1.00  0.00    -0.273 OA
BRANCH   9  12
HETATM   12  C   UNL     1     -42.407  60.637 -53.386  1.00  0.00     0.034 A 
HETATM   13  C   UNL     1     -42.936  61.848 -52.955  1.00  0.00     0.032 A 
HETATM   14  C   UNL     1     -43.429  61.978 -51.646  1.00  0.00     0.032 A 
HETATM   15  C   UNL     1     -43.390  60.902 -50.756  1.00  0.00     0.034 A 
HETATM   16  C   UNL     1     -42.824  59.698 -51.183  1.00  0.00     0.032 A 
HETATM   17  C   UNL     1     -42.344  59.566 -52.488  1.00  0.00     0.032 A 
BRANCH  15  18
HETATM   18  N   UNL     1     -43.899  60.932 -49.443  1.00  0.00    -0.328 N 
HETATM   19  C   UNL     1     -45.223  60.976 -49.052  1.00  0.00     0.218 C 
HETATM   20  C   UNL     1     -45.369  60.936 -47.550  1.00  0.00     0.117 C 
HETATM   21  O   UNL     1     -46.209  61.001 -49.779  1.00  0.00    -0.274 OA
HETATM   22  H   UNL     1     -43.212  60.865 -48.703  1.00  0.00     0.169 HD
ENDBRANCH  15  18
ENDBRANCH   9  12
ENDBRANCH   1   8
BRANCH   2  23
HETATM   23  C   UNL     1     -42.876  57.267 -56.803  1.00  0.00    -0.001 C 
HETATM   24  C   UNL     1     -42.901  55.961 -57.335  1.00  0.00     0.076 C 
HETATM   25  C   UNL     1     -43.074  54.835 -56.513  1.00  0.00     0.037 C 
HETATM   26  C   UNL     1     -43.338  54.988 -55.158  1.00  0.00     0.003 C 
HETATM   27  C   UNL     1     -43.463  56.264 -54.632  1.00  0.00     0.001 C 
HETATM   28  C   UNL     1     -43.263  57.381 -55.450  1.00  0.00     0.012 C 
BRANCH  24  29
HETATM   29  O   UNL     1     -42.703  55.780 -58.681  1.00  0.00    -0.355 OA
HETATM   30  C   UNL     1     -43.872  55.289 -59.346  1.00  0.00     0.210 C 
ENDBRANCH  24  29
ENDBRANCH   2  23
BRANCH   3  31
HETATM   31  C   UNL     1     -45.017  59.108 -58.381  1.00  0.00     0.038 A 
HETATM   32  C   UNL     1     -45.604  60.351 -58.674  1.00  0.00     0.032 A 
HETATM   33  C   UNL     1     -46.967  60.583 -58.467  1.00  0.00     0.039 A 
HETATM   34  C   UNL     1     -47.784  59.583 -57.951  1.00  0.00     0.068 A 
HETATM   35  C   UNL     1     -47.221  58.346 -57.650  1.00  0.00     0.039 A 
HETATM   36  C   UNL     1     -45.853  58.109 -57.871  1.00  0.00     0.032 A 
BRANCH  34  37
HETATM   37  O   UNL     1     -49.095  59.939 -57.803  1.00  0.00    -0.356 OA
HETATM   38  C   UNL     1     -49.541  61.068 -58.542  1.00  0.00     0.210 C 
ENDBRANCH  34  37
ENDBRANCH   3  31
TORSDOF 7
ENDMDL
MODEL 7
REMARK VINA RESULT:      -6.8      3.406      5.805
REMARK  7 active torsions:
REMARK  status: ('A' for Active; 'I' for Inactive)
REMARK       I    between atoms: C_2  and  N_3 
REMARK    1  A    between atoms: N_3  and  C_4 
REMARK    2  A    between atoms: C_7  and  N_8 
REMARK       I    between atoms: N_8  and  C_9 
REMARK    3  A    between atoms: C_9  and  C_10 
REMARK    4  A    between atoms: C_11  and  C_12 
REMARK    5  A    between atoms: C_13  and  O_14 
REMARK    6  A    between atoms: N_20  and  C_21 
REMARK    7  A    between atoms: C_24  and  O_25 
ROOT
HETATM    1  C   UNL     1     -44.349  58.514 -50.925  1.00  0.00     0.106 C 
HETATM    2  C   UNL     1     -43.407  59.704 -51.288  1.00  0.00     0.142 C 
HETATM    3  N   UNL     1     -44.009  60.558 -52.337  1.00  0.00    -0.308 N 
HETATM    4  C   UNL     1     -45.257  61.087 -51.973  1.00  0.00     0.225 C 
HETATM    5  O   UNL     1     -45.522  62.282 -51.904  1.00  0.00    -0.273 OA
HETATM    6  C   UNL     1     -46.284  59.996 -51.765  1.00  0.00     0.104 C 
HETATM    7  C   UNL     1     -45.809  58.977 -50.743  1.00  0.00     0.026 C 
ENDROOT
BRANCH   1   8
HETATM    8  C   UNL     1     -44.225  57.330 -51.884  1.00  0.00     0.228 C 
HETATM    9  N   UNL     1     -43.315  56.396 -51.426  1.00  0.00    -0.327 N 
HETATM   10  H   UNL     1     -42.958  56.550 -50.487  1.00  0.00     0.169 HD
HETATM   11  O   UNL     1     -44.867  57.263 -52.926  1.00  0.00    -0.273 OA
BRANCH   9  12
HETATM   12  C   UNL     1     -42.750  55.298 -52.094  1.00  0.00     0.034 A 
HETATM   13  C   UNL     1     -43.338  54.640 -53.168  1.00  0.00     0.032 A 
HETATM   14  C   UNL     1     -42.649  53.611 -53.830  1.00  0.00     0.032 A 
HETATM   15  C   UNL     1     -41.371  53.225 -53.418  1.00  0.00     0.034 A 
HETATM   16  C   UNL     1     -40.800  53.865 -52.315  1.00  0.00     0.032 A 
HETATM   17  C   UNL     1     -41.481  54.896 -51.665  1.00  0.00     0.032 A 
BRANCH  15  18
HETATM   18  N   UNL     1     -40.594  52.234 -54.048  1.00  0.00    -0.328 N 
HETATM   19  C   UNL     1     -39.885  51.209 -53.449  1.00  0.00     0.218 C 
HETATM   20  C   UNL     1     -39.225  50.311 -54.466  1.00  0.00     0.117 C 
HETATM   21  O   UNL     1     -39.798  50.973 -52.250  1.00  0.00    -0.274 OA
HETATM   22  H   UNL     1     -40.597  52.248 -55.059  1.00  0.00     0.169 HD
ENDBRANCH  15  18
ENDBRANCH   9  12
ENDBRANCH   1   8
BRANCH   2  23
HETATM   23  C   UNL     1     -41.872  59.525 -51.311  1.00  0.00    -0.001 C 
HETATM   24  C   UNL     1     -41.185  58.847 -52.339  1.00  0.00     0.076 C 
HETATM   25  C   UNL     1     -39.783  58.785 -52.370  1.00  0.00     0.037 C 
HETATM   26  C   UNL     1     -39.033  59.299 -51.321  1.00  0.00     0.003 C 
HETATM   27  C   UNL     1     -39.685  59.843 -50.225  1.00  0.00     0.001 C 
HETATM   28  C   UNL     1     -41.082  59.927 -50.212  1.00  0.00     0.012 C 
BRANCH  24  29
HETATM   29  O   UNL     1     -41.901  58.275 -53.361  1.00  0.00    -0.355 OA
HETATM   30  C   UNL     1     -41.072  57.537 -54.265  1.00  0.00     0.210 C 
ENDBRANCH  24  29
ENDBRANCH   2  23
BRANCH   3  31
HETATM   31  C   UNL     1     -43.785  60.435 -53.756  1.00  0.00     0.038 A 
HETATM   32  C   UNL     1     -44.681  59.666 -54.517  1.00  0.00     0.032 A 
HETATM   33  C   UNL     1     -44.535  59.532 -55.901  1.00  0.00     0.039 A 
HETATM   34  C   UNL     1     -43.483  60.153 -56.565  1.00  0.00     0.068 A 
HETATM   35  C   UNL     1     -42.582  60.916 -55.828  1.00  0.00     0.039 A 
HETATM   36  C   UNL     1     -42.737  61.062 -54.438  1.00  0.00     0.032 A 
BRANCH  34  37
HETATM   37  O   UNL     1     -43.460  59.944 -57.915  1.00  0.00    -0.356 OA
HETATM   38  C   UNL     1     -42.980  58.683 -58.362  1.00  0.00     0.210 C 
ENDBRANCH  34  37
ENDBRANCH   3  31
TORSDOF 7
ENDMDL
MODEL 8
REMARK VINA RESULT:      -6.7      3.016      7.633
REMARK  7 active torsions:
REMARK  status: ('A' for Active; 'I' for Inactive)
REMARK       I    between atoms: C_2  and  N_3 
REMARK    1  A    between atoms: N_3  and  C_4 
REMARK    2  A    between atoms: C_7  and  N_8 
REMARK       I    between atoms: N_8  and  C_9 
REMARK    3  A    between atoms: C_9  and  C_10 
REMARK    4  A    between atoms: C_11  and  C_12 
REMARK    5  A    between atoms: C_13  and  O_14 
REMARK    6  A    between atoms: N_20  and  C_21 
REMARK    7  A    between atoms: C_24  and  O_25 
ROOT
HETATM    1  C   UNL     1     -43.339  60.901 -55.436  1.00  0.00     0.106 C 
HETATM    2  C   UNL     1     -42.223  59.867 -55.785  1.00  0.00     0.142 C 
HETATM    3  N   UNL     1     -41.949  59.851 -57.239  1.00  0.00    -0.308 N 
HETATM    4  C   UNL     1     -41.555  61.101 -57.743  1.00  0.00     0.225 C 
HETATM    5  O   UNL     1     -40.491  61.331 -58.305  1.00  0.00    -0.273 OA
HETATM    6  C   UNL     1     -42.655  62.129 -57.597  1.00  0.00     0.104 C 
HETATM    7  C   UNL     1     -43.114  62.248 -56.153  1.00  0.00     0.026 C 
ENDROOT
BRANCH   1   8
HETATM    8  C   UNL     1     -44.753  60.357 -55.643  1.00  0.00     0.228 C 
HETATM    9  N   UNL     1     -45.469  61.129 -56.540  1.00  0.00    -0.327 N 
HETATM   10  H   UNL     1     -44.941  61.851 -57.022  1.00  0.00     0.169 HD
HETATM   11  O   UNL     1     -45.164  59.362 -55.058  1.00  0.00    -0.273 OA
BRANCH   9  12
HETATM   12  C   UNL     1     -46.841  61.111 -56.834  1.00  0.00     0.034 A 
HETATM   13  C   UNL     1     -47.762  62.041 -56.364  1.00  0.00     0.032 A 
HETATM   14  C   UNL     1     -49.098  61.992 -56.793  1.00  0.00     0.032 A 
HETATM   15  C   UNL     1     -49.527  61.009 -57.688  1.00  0.00     0.034 A 
HETATM   16  C   UNL     1     -48.607  60.056 -58.129  1.00  0.00     0.032 A 
HETATM   17  C   UNL     1     -47.276  60.111 -57.712  1.00  0.00     0.032 A 
BRANCH  15  18
HETATM   18  N   UNL     1     -50.836  60.911 -58.201  1.00  0.00    -0.328 N 
HETATM   19  C   UNL     1     -51.943  60.359 -57.587  1.00  0.00     0.218 C 
HETATM   20  C   UNL     1     -53.185  60.497 -58.434  1.00  0.00     0.117 C 
HETATM   21  O   UNL     1     -51.994  59.845 -56.476  1.00  0.00    -0.274 OA
HETATM   22  H   UNL     1     -50.988  61.340 -59.104  1.00  0.00     0.169 HD
ENDBRANCH  15  18
ENDBRANCH   9  12
ENDBRANCH   1   8
BRANCH   2  23
HETATM   23  C   UNL     1     -42.118  58.525 -55.025  1.00  0.00    -0.001 C 
HETATM   24  C   UNL     1     -41.317  58.343 -53.879  1.00  0.00     0.076 C 
HETATM   25  C   UNL     1     -41.320  57.134 -53.164  1.00  0.00     0.037 C 
HETATM   26  C   UNL     1     -42.034  56.040 -53.635  1.00  0.00     0.003 C 
HETATM   27  C   UNL     1     -42.716  56.144 -54.838  1.00  0.00     0.001 C 
HETATM   28  C   UNL     1     -42.732  57.359 -55.531  1.00  0.00     0.012 C 
BRANCH  24  29
HETATM   29  O   UNL     1     -40.552  59.387 -53.421  1.00  0.00    -0.355 OA
HETATM   30  C   UNL     1     -39.944  59.107 -52.156  1.00  0.00     0.210 C 
ENDBRANCH  24  29
ENDBRANCH   2  23
BRANCH   3  31
HETATM   31  C   UNL     1     -42.551  58.963 -58.201  1.00  0.00     0.038 A 
HETATM   32  C   UNL     1     -41.731  58.044 -58.878  1.00  0.00     0.032 A 
HETATM   33  C   UNL     1     -42.258  57.136 -59.802  1.00  0.00     0.039 A 
HETATM   34  C   UNL     1     -43.619  57.127 -60.085  1.00  0.00     0.068 A 
HETATM   35  C   UNL     1     -44.448  58.033 -59.429  1.00  0.00     0.039 A 
HETATM   36  C   UNL     1     -43.919  58.936 -58.489  1.00  0.00     0.032 A 
BRANCH  34  37
HETATM   37  O   UNL     1     -44.003  56.189 -61.002  1.00  0.00    -0.356 OA
HETATM   38  C   UNL     1     -45.070  55.326 -60.631  1.00  0.00     0.210 C 
ENDBRANCH  34  37
ENDBRANCH   3  31
TORSDOF 7
ENDMDL
MODEL 9
REMARK VINA RESULT:      -6.7      4.651      9.055
REMARK  7 active torsions:
REMARK  status: ('A' for Active; 'I' for Inactive)
REMARK       I    between atoms: C_2  and  N_3 
REMARK    1  A    between atoms: N_3  and  C_4 
REMARK    2  A    between atoms: C_7  and  N_8 
REMARK       I    between atoms: N_8  and  C_9 
REMARK    3  A    between atoms: C_9  and  C_10 
REMARK    4  A    between atoms: C_11  and  C_12 
REMARK    5  A    between atoms: C_13  and  O_14 
REMARK    6  A    between atoms: N_20  and  C_21 
REMARK    7  A    between atoms: C_24  and  O_25 
ROOT
HETATM    1  C   UNL     1     -43.982  56.589 -53.638  1.00  0.00     0.106 C 
HETATM    2  C   UNL     1     -42.824  57.350 -54.355  1.00  0.00     0.142 C 
HETATM    3  N   UNL     1     -41.518  57.045 -53.728  1.00  0.00    -0.308 N 
HETATM    4  C   UNL     1     -41.207  55.676 -53.733  1.00  0.00     0.225 C 
HETATM    5  O   UNL     1     -40.220  55.180 -54.263  1.00  0.00    -0.273 OA
HETATM    6  C   UNL     1     -42.195  54.879 -52.910  1.00  0.00     0.104 C 
HETATM    7  C   UNL     1     -43.620  55.112 -53.380  1.00  0.00     0.026 C 
ENDROOT
BRANCH   1   8
HETATM    8  C   UNL     1     -44.482  57.297 -52.378  1.00  0.00     0.228 C 
HETATM    9  N   UNL     1     -44.889  58.590 -52.649  1.00  0.00    -0.327 N 
HETATM   10  H   UNL     1     -44.923  58.846 -53.631  1.00  0.00     0.169 HD
HETATM   11  O   UNL     1     -44.494  56.750 -51.281  1.00  0.00    -0.273 OA
BRANCH   9  12
HETATM   12  C   UNL     1     -45.197  59.632 -51.760  1.00  0.00     0.034 A 
HETATM   13  C   UNL     1     -44.413  60.001 -50.673  1.00  0.00     0.032 A 
HETATM   14  C   UNL     1     -44.760  61.120 -49.898  1.00  0.00     0.032 A 
HETATM   15  C   UNL     1     -45.896  61.874 -50.199  1.00  0.00     0.034 A 
HETATM   16  C   UNL     1     -46.700  61.479 -51.270  1.00  0.00     0.032 A 
HETATM   17  C   UNL     1     -46.349  60.373 -52.047  1.00  0.00     0.032 A 
BRANCH  15  18
HETATM   18  N   UNL     1     -46.294  63.032 -49.503  1.00  0.00    -0.328 N 
HETATM   19  C   UNL     1     -47.017  63.103 -48.328  1.00  0.00     0.218 C 
HETATM   20  C   UNL     1     -47.194  64.527 -47.859  1.00  0.00     0.117 C 
HETATM   21  O   UNL     1     -47.454  62.166 -47.670  1.00  0.00    -0.274 OA
HETATM   22  H   UNL     1     -45.968  63.911 -49.885  1.00  0.00     0.169 HD
ENDBRANCH  15  18
ENDBRANCH   9  12
ENDBRANCH   1   8
BRANCH   2  23
HETATM   23  C   UNL     1     -43.033  58.779 -54.905  1.00  0.00    -0.001 C 
HETATM   24  C   UNL     1     -43.599  59.049 -56.168  1.00  0.00     0.076 C 
HETATM   25  C   UNL     1     -43.857  60.363 -56.593  1.00  0.00     0.037 C 
HETATM   26  C   UNL     1     -43.457  61.444 -55.819  1.00  0.00     0.003 C 
HETATM   27  C   UNL     1     -42.767  61.212 -54.638  1.00  0.00     0.001 C 
HETATM   28  C   UNL     1     -42.537  59.902 -54.207  1.00  0.00     0.012 C 
BRANCH  24  29
HETATM   29  O   UNL     1     -43.952  58.003 -56.983  1.00  0.00    -0.355 OA
HETATM   30  C   UNL     1     -45.287  58.126 -57.487  1.00  0.00     0.210 C 
ENDBRANCH  24  29
ENDBRANCH   2  23
BRANCH   3  31
HETATM   31  C   UNL     1     -40.881  57.816 -52.690  1.00  0.00     0.038 A 
HETATM   32  C   UNL     1     -39.689  58.498 -52.991  1.00  0.00     0.032 A 
HETATM   33  C   UNL     1     -39.037  59.286 -52.037  1.00  0.00     0.039 A 
HETATM   34  C   UNL     1     -39.551  59.408 -50.751  1.00  0.00     0.068 A 
HETATM   35  C   UNL     1     -40.728  58.737 -50.432  1.00  0.00     0.039 A 
HETATM   36  C   UNL     1     -41.390  57.956 -51.396  1.00  0.00     0.032 A 
BRANCH  34  37
HETATM   37  O   UNL     1     -38.820  60.210 -49.920  1.00  0.00    -0.356 OA
HETATM   38  C   UNL     1     -37.489  59.799 -49.638  1.00  0.00     0.210 C 
ENDBRANCH  34  37
ENDBRANCH   3  31
TORSDOF 7
ENDMDL
MODEL 10
REMARK VINA RESULT:      -6.6      3.862      5.850
REMARK  7 active torsions:
REMARK  status: ('A' for Active; 'I' for Inactive)
REMARK       I    between atoms: C_2  and  N_3 
REMARK    1  A    between atoms: N_3  and  C_4 
REMARK    2  A    between atoms: C_7  and  N_8 
REMARK       I    between atoms: N_8  and  C_9 
REMARK    3  A    between atoms: C_9  and  C_10 
REMARK    4  A    between atoms: C_11  and  C_12 
REMARK    5  A    between atoms: C_13  and  O_14 
REMARK    6  A    between atoms: N_20  and  C_21 
REMARK    7  A    between atoms: C_24  and  O_25 
ROOT
HETATM    1  C   UNL     1     -44.334  59.125 -51.019  1.00  0.00     0.106 C 
HETATM    2  C   UNL     1     -43.321  59.749 -52.030  1.00  0.00     0.142 C 
HETATM    3  N   UNL     1     -43.846  59.691 -53.413  1.00  0.00    -0.308 N 
HETATM    4  C   UNL     1     -45.076  60.350 -53.568  1.00  0.00     0.225 C 
HETATM    5  O   UNL     1     -45.282  61.288 -54.329  1.00  0.00    -0.273 OA
HETATM    6  C   UNL     1     -46.163  59.697 -52.743  1.00  0.00     0.104 C 
HETATM    7  C   UNL     1     -45.773  59.616 -51.277  1.00  0.00     0.026 C 
ENDROOT
BRANCH   1   8
HETATM    8  C   UNL     1     -44.241  57.602 -50.933  1.00  0.00     0.228 C 
HETATM    9  N   UNL     1     -42.928  57.174 -50.863  1.00  0.00    -0.327 N 
HETATM   10  H   UNL     1     -42.231  57.905 -50.752  1.00  0.00     0.169 HD
HETATM   11  O   UNL     1     -45.235  56.885 -50.939  1.00  0.00    -0.273 OA
BRANCH   9  12
HETATM   12  C   UNL     1     -42.404  55.879 -50.995  1.00  0.00     0.034 A 
HETATM   13  C   UNL     1     -43.030  54.839 -51.673  1.00  0.00     0.032 A 
HETATM   14  C   UNL     1     -42.378  53.604 -51.830  1.00  0.00     0.032 A 
HETATM   15  C   UNL     1     -41.101  53.397 -51.303  1.00  0.00     0.034 A 
HETATM   16  C   UNL     1     -40.492  54.433 -50.592  1.00  0.00     0.032 A 
HETATM   17  C   UNL     1     -41.134  55.664 -50.446  1.00  0.00     0.032 A 
BRANCH  15  18
HETATM   18  N   UNL     1     -40.360  52.208 -51.449  1.00  0.00    -0.328 N 
HETATM   19  C   UNL     1     -40.190  51.200 -50.519  1.00  0.00     0.218 C 
HETATM   20  C   UNL     1     -39.375  50.056 -51.070  1.00  0.00     0.117 C 
HETATM   21  O   UNL     1     -40.652  51.155 -49.385  1.00  0.00    -0.274 OA
HETATM   22  H   UNL     1     -39.946  52.055 -52.360  1.00  0.00     0.169 HD
ENDBRANCH  15  18
ENDBRANCH   9  12
ENDBRANCH   1   8
BRANCH   2  23
HETATM   23  C   UNL     1     -41.798  59.574 -51.839  1.00  0.00    -0.001 C 
HETATM   24  C   UNL     1     -41.099  60.038 -50.706  1.00  0.00     0.076 C 
HETATM   25  C   UNL     1     -39.731  59.779 -50.527  1.00  0.00     0.037 C 
HETATM   26  C   UNL     1     -38.999  59.147 -51.524  1.00  0.00     0.003 C 
HETATM   27  C   UNL     1     -39.627  58.807 -52.712  1.00  0.00     0.001 C 
HETATM   28  C   UNL     1     -40.996  59.043 -52.874  1.00  0.00     0.012 C 
BRANCH  24  29
HETATM   29  O   UNL     1     -41.782  60.720 -49.729  1.00  0.00    -0.355 OA
HETATM   30  C   UNL     1     -42.328  61.956 -50.202  1.00  0.00     0.210 C 
ENDBRANCH  24  29
ENDBRANCH   2  23
BRANCH   3  31
HETATM   31  C   UNL     1     -43.585  58.646 -54.371  1.00  0.00     0.038 A 
HETATM   32  C   UNL     1     -42.908  58.972 -55.559  1.00  0.00     0.032 A 
HETATM   33  C   UNL     1     -42.600  58.000 -56.515  1.00  0.00     0.039 A 
HETATM   34  C   UNL     1     -42.967  56.673 -56.317  1.00  0.00     0.068 A 
HETATM   35  C   UNL     1     -43.642  56.330 -55.150  1.00  0.00     0.039 A 
HETATM   36  C   UNL     1     -43.940  57.307 -54.182  1.00  0.00     0.032 A 
BRANCH  34  37
HETATM   37  O   UNL     1     -42.601  55.826 -57.325  1.00  0.00    -0.356 OA
HETATM   38  C   UNL     1     -43.382  55.864 -58.512  1.00  0.00     0.210 C 
ENDBRANCH  34  37
ENDBRANCH   3  31
TORSDOF 7
ENDMDL
