MODEL 1
REMARK VINA RESULT:      -9.2      0.000      0.000
REMARK  4 active torsions:
REMARK  status: ('A' for Active; 'I' for Inactive)
REMARK    1  A    between atoms: C_2  and  C_3 
REMARK       I    between atoms: C_3  and  N_4 
REMARK    2  A    between atoms: N_4  and  N_5 
REMARK    3  A    between atoms: N_5  and  C_6 
REMARK    4  A    between atoms: N_7  and  C_8 
ROOT
HETATM    1  C   UNL     1     -42.757  55.954 -56.819  1.00  0.00     0.208 A 
HETATM    2  N   UNL     1     -43.328  57.092 -56.252  1.00  0.00    -0.251 N 
HETATM    3  C   UNL     1     -43.435  57.211 -54.867  1.00  0.00     0.264 A 
HETATM    4  O   UNL     1     -43.963  58.169 -54.304  1.00  0.00    -0.267 OA
HETATM    5  C   UNL     1     -42.807  56.134 -54.042  1.00  0.00     0.049 A 
HETATM    6  C   UNL     1     -42.204  55.143 -54.730  1.00  0.00     0.083 A 
HETATM    7  C   UNL     1     -41.458  54.094 -53.983  1.00  0.00    -0.000 A 
HETATM    8  C   UNL     1     -41.696  53.903 -52.613  1.00  0.00    -0.044 A 
HETATM    9  C   UNL     1     -41.013  52.904 -51.905  1.00  0.00     0.008 A 
HETATM   10  C   UNL     1     -40.072  52.105 -52.551  1.00  0.00     0.001 A 
HETATM   11  C   UNL     1     -39.818  52.293 -53.906  1.00  0.00     0.001 A 
HETATM   12  C   UNL     1     -40.508  53.278 -54.617  1.00  0.00     0.014 A 
HETATM   13  C   UNL     1     -42.737  54.748 -51.936  1.00  0.00     0.054 C 
HETATM   14  C   UNL     1     -42.787  56.194 -52.501  1.00  0.00    -0.002 C 
HETATM   15  C   UNL     1     -41.563  57.008 -52.008  1.00  0.00     0.015 C 
HETATM   16  C   UNL     1     -42.068  58.434 -51.868  1.00  0.00     0.001 C 
HETATM   17  C   UNL     1     -43.484  58.279 -51.340  1.00  0.00     0.001 C 
HETATM   18  C   UNL     1     -43.981  56.907 -51.808  1.00  0.00     0.015 C 
HETATM   19  N   UNL     1     -42.212  55.020 -56.090  1.00  0.00    -0.217 NA
ENDROOT
BRANCH   1  20
HETATM   20  N   UNL     1     -42.801  55.758 -58.193  1.00  0.00    -0.171 NA
HETATM   21  H   UNL     1     -42.502  56.547 -58.777  1.00  0.00     0.156 HD
BRANCH  20  22
HETATM   22  N   UNL     1     -43.983  55.161 -58.683  1.00  0.00    -0.284 N 
HETATM   23  C   UNL     1     -44.348  55.511 -59.970  1.00  0.00     0.231 C 
HETATM   24  O   UNL     1     -43.612  56.157 -60.713  1.00  0.00    -0.272 OA
HETATM   25  H   UNL     1     -44.682  54.976 -57.961  1.00  0.00     0.184 HD
BRANCH  23  26
HETATM   26  C   UNL     1     -45.737  55.038 -60.342  1.00  0.00     0.100 C 
HETATM   27  C   UNL     1     -46.747  56.174 -60.338  1.00  0.00     0.014 C 
ENDBRANCH  23  26
ENDBRANCH  20  22
ENDBRANCH   1  20
BRANCH   2  28
HETATM   28  C   UNL     1     -43.784  58.183 -57.076  1.00  0.00     0.045 A 
HETATM   29  C   UNL     1     -42.899  59.198 -57.479  1.00  0.00     0.030 A 
HETATM   30  C   UNL     1     -43.330  60.248 -58.293  1.00  0.00     0.002 A 
HETATM   31  C   UNL     1     -44.656  60.307 -58.710  1.00  0.00     0.000 A 
HETATM   32  C   UNL     1     -45.553  59.320 -58.306  1.00  0.00     0.002 A 
HETATM   33  C   UNL     1     -45.120  58.269 -57.492  1.00  0.00     0.030 A 
ENDBRANCH   2  28
TORSDOF 4
ENDMDL
MODEL 2
REMARK VINA RESULT:      -8.7     15.652     18.207
REMARK  4 active torsions:
REMARK  status: ('A' for Active; 'I' for Inactive)
REMARK    1  A    between atoms: C_2  and  C_3 
REMARK       I    between atoms: C_3  and  N_4 
REMARK    2  A    between atoms: N_4  and  N_5 
REMARK    3  A    between atoms: N_5  and  C_6 
REMARK    4  A    between atoms: N_7  and  C_8 
ROOT
HETATM    1  C   UNL     1     -36.646  41.044 -54.724  1.00  0.00     0.208 A 
HETATM    2  N   UNL     1     -36.010  40.759 -55.931  1.00  0.00    -0.251 N 
HETATM    3  C   UNL     1     -34.665  40.390 -55.948  1.00  0.00     0.264 A 
HETATM    4  O   UNL     1     -34.033  40.165 -56.979  1.00  0.00    -0.267 OA
HETATM    5  C   UNL     1     -33.996  40.199 -54.625  1.00  0.00     0.049 A 
HETATM    6  C   UNL     1     -34.767  40.416 -53.540  1.00  0.00     0.083 A 
HETATM    7  C   UNL     1     -34.208  40.137 -52.189  1.00  0.00    -0.000 A 
HETATM    8  C   UNL     1     -32.821  40.037 -52.009  1.00  0.00    -0.044 A 
HETATM    9  C   UNL     1     -32.283  39.795 -50.736  1.00  0.00     0.008 A 
HETATM   10  C   UNL     1     -33.127  39.627 -49.640  1.00  0.00     0.001 A 
HETATM   11  C   UNL     1     -34.506  39.711 -49.807  1.00  0.00     0.001 A 
HETATM   12  C   UNL     1     -35.042  39.967 -51.072  1.00  0.00     0.014 A 
HETATM   13  C   UNL     1     -31.921  40.253 -53.192  1.00  0.00     0.054 C 
HETATM   14  C   UNL     1     -32.536  39.712 -54.512  1.00  0.00    -0.002 C 
HETATM   15  C   UNL     1     -32.480  38.163 -54.538  1.00  0.00     0.015 C 
HETATM   16  C   UNL     1     -32.289  37.800 -56.001  1.00  0.00     0.001 C 
HETATM   17  C   UNL     1     -31.356  38.875 -56.534  1.00  0.00     0.001 C 
HETATM   18  C   UNL     1     -31.569  40.115 -55.659  1.00  0.00     0.015 C 
HETATM   19  N   UNL     1     -36.053  40.874 -53.575  1.00  0.00    -0.217 NA
ENDROOT
BRANCH   1  20
HETATM   20  N   UNL     1     -37.931  41.572 -54.716  1.00  0.00    -0.171 NA
HETATM   21  H   UNL     1     -38.031  42.534 -55.058  1.00  0.00     0.156 HD
BRANCH  20  22
HETATM   22  N   UNL     1     -38.667  41.355 -53.532  1.00  0.00    -0.284 N 
HETATM   23  C   UNL     1     -40.044  41.398 -53.660  1.00  0.00     0.231 C 
HETATM   24  O   UNL     1     -40.603  41.443 -54.754  1.00  0.00    -0.272 OA
HETATM   25  H   UNL     1     -38.200  41.689 -52.688  1.00  0.00     0.184 HD
BRANCH  23  26
HETATM   26  C   UNL     1     -40.764  41.405 -52.329  1.00  0.00     0.100 C 
HETATM   27  C   UNL     1     -41.391  40.058 -52.013  1.00  0.00     0.014 C 
ENDBRANCH  23  26
ENDBRANCH  20  22
ENDBRANCH   1  20
BRANCH   2  28
HETATM   28  C   UNL     1     -36.730  40.804 -57.178  1.00  0.00     0.045 A 
HETATM   29  C   UNL     1     -36.611  41.911 -58.036  1.00  0.00     0.030 A 
HETATM   30  C   UNL     1     -37.291  41.953 -59.256  1.00  0.00     0.002 A 
HETATM   31  C   UNL     1     -38.110  40.893 -59.633  1.00  0.00     0.000 A 
HETATM   32  C   UNL     1     -38.254  39.795 -58.788  1.00  0.00     0.002 A 
HETATM   33  C   UNL     1     -37.573  39.754 -57.568  1.00  0.00     0.030 A 
ENDBRANCH   2  28
TORSDOF 4
ENDMDL
MODEL 3
REMARK VINA RESULT:      -8.3      2.225      6.719
REMARK  4 active torsions:
REMARK  status: ('A' for Active; 'I' for Inactive)
REMARK    1  A    between atoms: C_2  and  C_3 
REMARK       I    between atoms: C_3  and  N_4 
REMARK    2  A    between atoms: N_4  and  N_5 
REMARK    3  A    between atoms: N_5  and  C_6 
REMARK    4  A    between atoms: N_7  and  C_8 
ROOT
HETATM    1  C   UNL     1     -41.750  56.766 -54.584  1.00  0.00     0.208 A 
HETATM    2  N   UNL     1     -41.650  58.125 -54.292  1.00  0.00    -0.251 N 
HETATM    3  C   UNL     1     -41.863  59.077 -55.288  1.00  0.00     0.264 A 
HETATM    4  O   UNL     1     -41.750  60.289 -55.109  1.00  0.00    -0.267 OA
HETATM    5  C   UNL     1     -42.315  58.576 -56.622  1.00  0.00     0.049 A 
HETATM    6  C   UNL     1     -42.463  57.240 -56.728  1.00  0.00     0.083 A 
HETATM    7  C   UNL     1     -43.018  56.671 -57.986  1.00  0.00    -0.000 A 
HETATM    8  C   UNL     1     -43.018  57.435 -59.163  1.00  0.00    -0.044 A 
HETATM    9  C   UNL     1     -43.520  56.901 -60.359  1.00  0.00     0.008 A 
HETATM   10  C   UNL     1     -44.048  55.612 -60.383  1.00  0.00     0.001 A 
HETATM   11  C   UNL     1     -44.066  54.848 -59.220  1.00  0.00     0.001 A 
HETATM   12  C   UNL     1     -43.551  55.374 -58.031  1.00  0.00     0.014 A 
HETATM   13  C   UNL     1     -42.416  58.811 -59.131  1.00  0.00     0.054 C 
HETATM   14  C   UNL     1     -42.662  59.535 -57.779  1.00  0.00    -0.002 C 
HETATM   15  C   UNL     1     -44.139  59.995 -57.675  1.00  0.00     0.015 C 
HETATM   16  C   UNL     1     -44.095  61.284 -56.871  1.00  0.00     0.001 C 
HETATM   17  C   UNL     1     -42.830  61.978 -57.347  1.00  0.00     0.001 C 
HETATM   18  C   UNL     1     -41.883  60.878 -57.839  1.00  0.00     0.015 C 
HETATM   19  N   UNL     1     -42.145  56.340 -55.751  1.00  0.00    -0.217 NA
ENDROOT
BRANCH   1  20
HETATM   20  N   UNL     1     -41.376  55.817 -53.642  1.00  0.00    -0.171 NA
HETATM   21  H   UNL     1     -40.994  56.176 -52.760  1.00  0.00     0.156 HD
BRANCH  20  22
HETATM   22  N   UNL     1     -40.621  54.734 -54.140  1.00  0.00    -0.284 N 
HETATM   23  C   UNL     1     -40.847  53.511 -53.534  1.00  0.00     0.231 C 
HETATM   24  O   UNL     1     -41.764  53.329 -52.737  1.00  0.00    -0.272 OA
HETATM   25  H   UNL     1     -39.696  54.997 -54.482  1.00  0.00     0.184 HD
BRANCH  23  26
HETATM   26  C   UNL     1     -39.842  52.454 -53.939  1.00  0.00     0.100 C 
HETATM   27  C   UNL     1     -40.513  51.141 -54.306  1.00  0.00     0.014 C 
ENDBRANCH  23  26
ENDBRANCH  20  22
ENDBRANCH   1  20
BRANCH   2  28
HETATM   28  C   UNL     1     -41.362  58.578 -52.954  1.00  0.00     0.045 A 
HETATM   29  C   UNL     1     -42.403  58.854 -52.051  1.00  0.00     0.030 A 
HETATM   30  C   UNL     1     -42.130  59.275 -50.747  1.00  0.00     0.002 A 
HETATM   31  C   UNL     1     -40.814  59.438 -50.328  1.00  0.00     0.000 A 
HETATM   32  C   UNL     1     -39.770  59.187 -51.215  1.00  0.00     0.002 A 
HETATM   33  C   UNL     1     -40.043  58.765 -52.519  1.00  0.00     0.030 A 
ENDBRANCH   2  28
TORSDOF 4
ENDMDL
MODEL 4
REMARK VINA RESULT:      -8.3      2.539      7.985
REMARK  4 active torsions:
REMARK  status: ('A' for Active; 'I' for Inactive)
REMARK    1  A    between atoms: C_2  and  C_3 
REMARK       I    between atoms: C_3  and  N_4 
REMARK    2  A    between atoms: N_4  and  N_5 
REMARK    3  A    between atoms: N_5  and  C_6 
REMARK    4  A    between atoms: N_7  and  C_8 
ROOT
HETATM    1  C   UNL     1     -41.732  59.475 -55.296  1.00  0.00     0.208 A 
HETATM    2  N   UNL     1     -42.330  58.223 -55.423  1.00  0.00    -0.251 N 
HETATM    3  C   UNL     1     -42.862  57.817 -56.647  1.00  0.00     0.264 A 
HETATM    4  O   UNL     1     -43.439  56.744 -56.818  1.00  0.00    -0.267 OA
HETATM    5  C   UNL     1     -42.647  58.726 -57.815  1.00  0.00     0.049 A 
HETATM    6  C   UNL     1     -41.964  59.859 -57.560  1.00  0.00     0.083 A 
HETATM    7  C   UNL     1     -41.612  60.761 -58.691  1.00  0.00    -0.000 A 
HETATM    8  C   UNL     1     -42.294  60.656 -59.912  1.00  0.00    -0.044 A 
HETATM    9  C   UNL     1     -41.983  61.515 -60.977  1.00  0.00     0.008 A 
HETATM   10  C   UNL     1     -40.973  62.465 -60.839  1.00  0.00     0.001 A 
HETATM   11  C   UNL     1     -40.281  62.571 -59.637  1.00  0.00     0.001 A 
HETATM   12  C   UNL     1     -40.600  61.726 -58.570  1.00  0.00     0.014 A 
HETATM   13  C   UNL     1     -43.401  59.650 -60.037  1.00  0.00     0.054 C 
HETATM   14  C   UNL     1     -43.116  58.350 -59.237  1.00  0.00    -0.002 C 
HETATM   15  C   UNL     1     -42.035  57.501 -59.954  1.00  0.00     0.015 C 
HETATM   16  C   UNL     1     -42.405  56.058 -59.656  1.00  0.00     0.001 C 
HETATM   17  C   UNL     1     -43.924  56.045 -59.699  1.00  0.00     0.001 C 
HETATM   18  C   UNL     1     -44.386  57.463 -59.348  1.00  0.00     0.015 C 
HETATM   19  N   UNL     1     -41.550  60.260 -56.322  1.00  0.00    -0.217 NA
ENDROOT
BRANCH   1  20
HETATM   20  N   UNL     1     -41.354  59.948 -54.046  1.00  0.00    -0.171 NA
HETATM   21  H   UNL     1     -40.844  59.292 -53.445  1.00  0.00     0.156 HD
BRANCH  20  22
HETATM   22  N   UNL     1     -42.355  60.643 -53.334  1.00  0.00    -0.284 N 
HETATM   23  C   UNL     1     -42.476  60.323 -51.993  1.00  0.00     0.231 C 
HETATM   24  O   UNL     1     -41.659  59.615 -51.408  1.00  0.00    -0.272 OA
HETATM   25  H   UNL     1     -43.169  60.889 -53.899  1.00  0.00     0.184 HD
BRANCH  23  26
HETATM   26  C   UNL     1     -43.713  60.913 -51.352  1.00  0.00     0.100 C 
HETATM   27  C   UNL     1     -44.785  59.865 -51.109  1.00  0.00     0.014 C 
ENDBRANCH  23  26
ENDBRANCH  20  22
ENDBRANCH   1  20
BRANCH   2  28
HETATM   28  C   UNL     1     -42.382  57.308 -54.311  1.00  0.00     0.045 A 
HETATM   29  C   UNL     1     -41.282  56.487 -54.005  1.00  0.00     0.030 A 
HETATM   30  C   UNL     1     -41.319  55.611 -52.917  1.00  0.00     0.002 A 
HETATM   31  C   UNL     1     -42.459  55.534 -52.123  1.00  0.00     0.000 A 
HETATM   32  C   UNL     1     -43.564  56.327 -52.421  1.00  0.00     0.002 A 
HETATM   33  C   UNL     1     -43.527  57.203 -53.510  1.00  0.00     0.030 A 
ENDBRANCH   2  28
TORSDOF 4
ENDMDL
MODEL 5
REMARK VINA RESULT:      -8.0      2.465      6.882
REMARK  4 active torsions:
REMARK  status: ('A' for Active; 'I' for Inactive)
REMARK    1  A    between atoms: C_2  and  C_3 
REMARK       I    between atoms: C_3  and  N_4 
REMARK    2  A    between atoms: N_4  and  N_5 
REMARK    3  A    between atoms: N_5  and  C_6 
REMARK    4  A    between atoms: N_7  and  C_8 
ROOT
HETATM    1  C   UNL     1     -41.710  56.788 -54.738  1.00  0.00     0.208 A 
HETATM    2  N   UNL     1     -41.643  58.136 -54.391  1.00  0.00    -0.251 N 
HETATM    3  C   UNL     1     -41.903  59.122 -55.343  1.00  0.00     0.264 A 
HETATM    4  O   UNL     1     -41.822  60.328 -55.115  1.00  0.00    -0.267 OA
HETATM    5  C   UNL     1     -42.368  58.662 -56.688  1.00  0.00     0.049 A 
HETATM    6  C   UNL     1     -42.479  57.328 -56.846  1.00  0.00     0.083 A 
HETATM    7  C   UNL     1     -43.044  56.796 -58.116  1.00  0.00    -0.000 A 
HETATM    8  C   UNL     1     -43.089  57.607 -59.260  1.00  0.00    -0.044 A 
HETATM    9  C   UNL     1     -43.600  57.108 -60.467  1.00  0.00     0.008 A 
HETATM   10  C   UNL     1     -44.092  55.806 -60.535  1.00  0.00     0.001 A 
HETATM   11  C   UNL     1     -44.064  54.995 -59.405  1.00  0.00     0.001 A 
HETATM   12  C   UNL     1     -43.541  55.486 -58.205  1.00  0.00     0.014 A 
HETATM   13  C   UNL     1     -42.526  58.998 -59.182  1.00  0.00     0.054 C 
HETATM   14  C   UNL     1     -42.766  59.658 -57.797  1.00  0.00    -0.002 C 
HETATM   15  C   UNL     1     -44.252  60.070 -57.645  1.00  0.00     0.015 C 
HETATM   16  C   UNL     1     -44.229  61.325 -56.789  1.00  0.00     0.001 C 
HETATM   17  C   UNL     1     -42.994  62.075 -57.260  1.00  0.00     0.001 C 
HETATM   18  C   UNL     1     -42.026  61.024 -57.815  1.00  0.00     0.015 C 
HETATM   19  N   UNL     1     -42.117  56.398 -55.914  1.00  0.00    -0.217 NA
ENDROOT
BRANCH   1  20
HETATM   20  N   UNL     1     -41.290  55.812 -53.843  1.00  0.00    -0.171 NA
HETATM   21  H   UNL     1     -40.536  55.195 -54.162  1.00  0.00     0.156 HD
BRANCH  20  22
HETATM   22  N   UNL     1     -42.322  55.094 -53.202  1.00  0.00    -0.284 N 
HETATM   23  C   UNL     1     -42.186  54.931 -51.836  1.00  0.00     0.231 C 
HETATM   24  O   UNL     1     -41.324  55.517 -51.184  1.00  0.00    -0.272 OA
HETATM   25  H   UNL     1     -42.747  54.372 -53.786  1.00  0.00     0.184 HD
BRANCH  23  26
HETATM   26  C   UNL     1     -43.183  53.954 -51.252  1.00  0.00     0.100 C 
HETATM   27  C   UNL     1     -44.172  54.635 -50.321  1.00  0.00     0.014 C 
ENDBRANCH  23  26
ENDBRANCH  20  22
ENDBRANCH   1  20
BRANCH   2  28
HETATM   28  C   UNL     1     -41.341  58.542 -53.042  1.00  0.00     0.045 A 
HETATM   29  C   UNL     1     -42.369  58.724 -52.100  1.00  0.00     0.030 A 
HETATM   30  C   UNL     1     -42.081  59.098 -50.786  1.00  0.00     0.002 A 
HETATM   31  C   UNL     1     -40.763  59.308 -50.393  1.00  0.00     0.000 A 
HETATM   32  C   UNL     1     -39.733  59.150 -51.317  1.00  0.00     0.002 A 
HETATM   33  C   UNL     1     -40.021  58.775 -52.632  1.00  0.00     0.030 A 
ENDBRANCH   2  28
TORSDOF 4
ENDMDL
MODEL 6
REMARK VINA RESULT:      -8.0     15.778     18.458
REMARK  4 active torsions:
REMARK  status: ('A' for Active; 'I' for Inactive)
REMARK    1  A    between atoms: C_2  and  C_3 
REMARK       I    between atoms: C_3  and  N_4 
REMARK    2  A    between atoms: N_4  and  N_5 
REMARK    3  A    between atoms: N_5  and  C_6 
REMARK    4  A    between atoms: N_7  and  C_8 
ROOT
HETATM    1  C   UNL     1     -37.011  40.885 -52.762  1.00  0.00     0.208 A 
HETATM    2  N   UNL     1     -36.110  40.704 -53.809  1.00  0.00    -0.251 N 
HETATM    3  C   UNL     1     -34.860  40.132 -53.571  1.00  0.00     0.264 A 
HETATM    4  O   UNL     1     -34.003  39.981 -54.441  1.00  0.00    -0.267 OA
HETATM    5  C   UNL     1     -34.598  39.623 -52.191  1.00  0.00     0.049 A 
HETATM    6  C   UNL     1     -35.603  39.779 -51.306  1.00  0.00     0.083 A 
HETATM    7  C   UNL     1     -35.463  39.198 -49.943  1.00  0.00    -0.000 A 
HETATM    8  C   UNL     1     -34.196  38.848 -49.454  1.00  0.00    -0.044 A 
HETATM    9  C   UNL     1     -34.051  38.318 -48.163  1.00  0.00     0.008 A 
HETATM   10  C   UNL     1     -35.173  38.110 -47.362  1.00  0.00     0.001 A 
HETATM   11  C   UNL     1     -36.437  38.440 -47.840  1.00  0.00     0.001 A 
HETATM   12  C   UNL     1     -36.580  38.983 -49.120  1.00  0.00     0.014 A 
HETATM   13  C   UNL     1     -32.993  39.108 -50.315  1.00  0.00     0.054 C 
HETATM   14  C   UNL     1     -33.286  38.897 -51.825  1.00  0.00    -0.002 C 
HETATM   15  C   UNL     1     -33.399  37.384 -52.146  1.00  0.00     0.015 C 
HETATM   16  C   UNL     1     -32.863  37.239 -53.560  1.00  0.00     0.001 C 
HETATM   17  C   UNL     1     -31.707  38.224 -53.624  1.00  0.00     0.001 C 
HETATM   18  C   UNL     1     -32.007  39.322 -52.597  1.00  0.00     0.015 C 
HETATM   19  N   UNL     1     -36.772  40.437 -51.561  1.00  0.00    -0.217 NA
ENDROOT
BRANCH   1  20
HETATM   20  N   UNL     1     -38.183  41.604 -52.962  1.00  0.00    -0.171 NA
HETATM   21  H   UNL     1     -38.103  42.625 -52.930  1.00  0.00     0.156 HD
BRANCH  20  22
HETATM   22  N   UNL     1     -39.307  41.141 -52.244  1.00  0.00    -0.284 N 
HETATM   23  C   UNL     1     -40.518  41.206 -52.910  1.00  0.00     0.231 C 
HETATM   24  O   UNL     1     -40.599  41.480 -54.106  1.00  0.00    -0.272 OA
HETATM   25  H   UNL     1     -39.244  41.290 -51.237  1.00  0.00     0.184 HD
BRANCH  23  26
HETATM   26  C   UNL     1     -41.704  40.931 -52.012  1.00  0.00     0.100 C 
HETATM   27  C   UNL     1     -41.790  39.468 -51.612  1.00  0.00     0.014 C 
ENDBRANCH  23  26
ENDBRANCH  20  22
ENDBRANCH   1  20
BRANCH   2  28
HETATM   28  C   UNL     1     -36.457  41.067 -55.159  1.00  0.00     0.045 A 
HETATM   29  C   UNL     1     -35.902  42.210 -55.761  1.00  0.00     0.030 A 
HETATM   30  C   UNL     1     -36.221  42.557 -57.076  1.00  0.00     0.002 A 
HETATM   31  C   UNL     1     -37.107  41.774 -57.809  1.00  0.00     0.000 A 
HETATM   32  C   UNL     1     -37.681  40.648 -57.223  1.00  0.00     0.002 A 
HETATM   33  C   UNL     1     -37.362  40.301 -55.908  1.00  0.00     0.030 A 
ENDBRANCH   2  28
TORSDOF 4
ENDMDL
MODEL 7
REMARK VINA RESULT:      -8.0      1.727      5.818
REMARK  4 active torsions:
REMARK  status: ('A' for Active; 'I' for Inactive)
REMARK    1  A    between atoms: C_2  and  C_3 
REMARK       I    between atoms: C_3  and  N_4 
REMARK    2  A    between atoms: N_4  and  N_5 
REMARK    3  A    between atoms: N_5  and  C_6 
REMARK    4  A    between atoms: N_7  and  C_8 
ROOT
HETATM    1  C   UNL     1     -43.189  56.501 -56.655  1.00  0.00     0.208 A 
HETATM    2  N   UNL     1     -42.646  56.327 -55.383  1.00  0.00    -0.251 N 
HETATM    3  C   UNL     1     -42.845  57.292 -54.396  1.00  0.00     0.264 A 
HETATM    4  O   UNL     1     -42.361  57.221 -53.267  1.00  0.00    -0.267 OA
HETATM    5  C   UNL     1     -43.752  58.432 -54.732  1.00  0.00     0.049 A 
HETATM    6  C   UNL     1     -44.283  58.414 -55.971  1.00  0.00     0.083 A 
HETATM    7  C   UNL     1     -45.284  59.451 -56.343  1.00  0.00    -0.000 A 
HETATM    8  C   UNL     1     -45.384  60.633 -55.594  1.00  0.00    -0.044 A 
HETATM    9  C   UNL     1     -46.310  61.625 -55.948  1.00  0.00     0.008 A 
HETATM   10  C   UNL     1     -47.159  61.434 -57.037  1.00  0.00     0.001 A 
HETATM   11  C   UNL     1     -47.078  60.261 -57.781  1.00  0.00     0.001 A 
HETATM   12  C   UNL     1     -46.145  59.278 -57.438  1.00  0.00     0.014 A 
HETATM   13  C   UNL     1     -44.442  60.840 -54.442  1.00  0.00     0.054 C 
HETATM   14  C   UNL     1     -44.115  59.517 -53.697  1.00  0.00    -0.002 C 
HETATM   15  C   UNL     1     -45.327  59.066 -52.843  1.00  0.00     0.015 C 
HETATM   16  C   UNL     1     -44.722  58.380 -51.629  1.00  0.00     0.001 C 
HETATM   17  C   UNL     1     -43.486  59.206 -51.312  1.00  0.00     0.001 C 
HETATM   18  C   UNL     1     -43.042  59.857 -52.626  1.00  0.00     0.015 C 
HETATM   19  N   UNL     1     -43.979  57.499 -56.937  1.00  0.00    -0.217 NA
ENDROOT
BRANCH   1  20
HETATM   20  N   UNL     1     -42.855  55.630 -57.684  1.00  0.00    -0.171 NA
HETATM   21  H   UNL     1     -42.012  55.860 -58.222  1.00  0.00     0.156 HD
BRANCH  20  22
HETATM   22  N   UNL     1     -43.923  55.244 -58.522  1.00  0.00    -0.284 N 
HETATM   23  C   UNL     1     -43.794  55.577 -59.858  1.00  0.00     0.231 C 
HETATM   24  O   UNL     1     -42.749  56.020 -60.330  1.00  0.00    -0.272 OA
HETATM   25  H   UNL     1     -44.832  55.243 -58.057  1.00  0.00     0.184 HD
BRANCH  23  26
HETATM   26  C   UNL     1     -45.066  55.360 -60.649  1.00  0.00     0.100 C 
HETATM   27  C   UNL     1     -46.214  56.207 -60.127  1.00  0.00     0.014 C 
ENDBRANCH  23  26
ENDBRANCH  20  22
ENDBRANCH   1  20
BRANCH   2  28
HETATM   28  C   UNL     1     -41.904  55.139 -55.048  1.00  0.00     0.045 A 
HETATM   29  C   UNL     1     -40.501  55.120 -55.135  1.00  0.00     0.030 A 
HETATM   30  C   UNL     1     -39.774  53.977 -54.794  1.00  0.00     0.002 A 
HETATM   31  C   UNL     1     -40.438  52.830 -54.370  1.00  0.00     0.000 A 
HETATM   32  C   UNL     1     -41.829  52.824 -54.294  1.00  0.00     0.002 A 
HETATM   33  C   UNL     1     -42.555  53.968 -54.635  1.00  0.00     0.030 A 
ENDBRANCH   2  28
TORSDOF 4
ENDMDL
MODEL 8
REMARK VINA RESULT:      -7.7     15.803     19.254
REMARK  4 active torsions:
REMARK  status: ('A' for Active; 'I' for Inactive)
REMARK    1  A    between atoms: C_2  and  C_3 
REMARK       I    between atoms: C_3  and  N_4 
REMARK    2  A    between atoms: N_4  and  N_5 
REMARK    3  A    between atoms: N_5  and  C_6 
REMARK    4  A    between atoms: N_7  and  C_8 
ROOT
HETATM    1  C   UNL     1     -35.863  40.912 -53.796  1.00  0.00     0.208 A 
HETATM    2  N   UNL     1     -34.945  39.912 -53.485  1.00  0.00    -0.251 N 
HETATM    3  C   UNL     1     -34.557  38.986 -54.454  1.00  0.00     0.264 A 
HETATM    4  O   UNL     1     -33.783  38.055 -54.236  1.00  0.00    -0.267 OA
HETATM    5  C   UNL     1     -35.072  39.199 -55.841  1.00  0.00     0.049 A 
HETATM    6  C   UNL     1     -35.875  40.268 -56.012  1.00  0.00     0.083 A 
HETATM    7  C   UNL     1     -36.337  40.613 -57.384  1.00  0.00    -0.000 A 
HETATM    8  C   UNL     1     -36.280  39.654 -58.407  1.00  0.00    -0.044 A 
HETATM    9  C   UNL     1     -36.732  39.963 -59.698  1.00  0.00     0.008 A 
HETATM   10  C   UNL     1     -37.221  41.237 -59.984  1.00  0.00     0.001 A 
HETATM   11  C   UNL     1     -37.271  42.200 -58.981  1.00  0.00     0.001 A 
HETATM   12  C   UNL     1     -36.835  41.889 -57.690  1.00  0.00     0.014 A 
HETATM   13  C   UNL     1     -35.782  38.276 -58.078  1.00  0.00     0.054 C 
HETATM   14  C   UNL     1     -34.650  38.291 -57.015  1.00  0.00    -0.002 C 
HETATM   15  C   UNL     1     -33.328  38.802 -57.644  1.00  0.00     0.015 C 
HETATM   16  C   UNL     1     -32.227  38.050 -56.914  1.00  0.00     0.001 C 
HETATM   17  C   UNL     1     -32.801  36.658 -56.708  1.00  0.00     0.001 C 
HETATM   18  C   UNL     1     -34.326  36.810 -56.680  1.00  0.00     0.015 C 
HETATM   19  N   UNL     1     -36.307  41.088 -55.009  1.00  0.00    -0.217 NA
ENDROOT
BRANCH   1  20
HETATM   20  N   UNL     1     -36.376  41.728 -52.795  1.00  0.00    -0.171 NA
HETATM   21  H   UNL     1     -36.096  41.503 -51.835  1.00  0.00     0.156 HD
BRANCH  20  22
HETATM   22  N   UNL     1     -37.758  42.004 -52.889  1.00  0.00    -0.284 N 
HETATM   23  C   UNL     1     -38.604  41.032 -52.386  1.00  0.00     0.231 C 
HETATM   24  O   UNL     1     -38.193  40.071 -51.740  1.00  0.00    -0.272 OA
HETATM   25  H   UNL     1     -38.012  42.564 -53.703  1.00  0.00     0.184 HD
BRANCH  23  26
HETATM   26  C   UNL     1     -40.056  41.272 -52.735  1.00  0.00     0.100 C 
HETATM   27  C   UNL     1     -40.262  41.456 -54.229  1.00  0.00     0.014 C 
ENDBRANCH  23  26
ENDBRANCH  20  22
ENDBRANCH   1  20
BRANCH   2  28
HETATM   28  C   UNL     1     -34.349  39.831 -52.175  1.00  0.00     0.045 A 
HETATM   29  C   UNL     1     -33.143  40.494 -51.893  1.00  0.00     0.030 A 
HETATM   30  C   UNL     1     -32.570  40.435 -50.620  1.00  0.00     0.002 A 
HETATM   31  C   UNL     1     -33.188  39.703 -49.611  1.00  0.00     0.000 A 
HETATM   32  C   UNL     1     -34.375  39.024 -49.877  1.00  0.00     0.002 A 
HETATM   33  C   UNL     1     -34.948  39.084 -51.151  1.00  0.00     0.030 A 
ENDBRANCH   2  28
TORSDOF 4
ENDMDL
MODEL 9
REMARK VINA RESULT:      -7.7      1.682      2.028
REMARK  4 active torsions:
REMARK  status: ('A' for Active; 'I' for Inactive)
REMARK    1  A    between atoms: C_2  and  C_3 
REMARK       I    between atoms: C_3  and  N_4 
REMARK    2  A    between atoms: N_4  and  N_5 
REMARK    3  A    between atoms: N_5  and  C_6 
REMARK    4  A    between atoms: N_7  and  C_8 
ROOT
HETATM    1  C   UNL     1     -42.786  56.984 -56.586  1.00  0.00     0.208 A 
HETATM    2  N   UNL     1     -43.069  58.161 -55.895  1.00  0.00    -0.251 N 
HETATM    3  C   UNL     1     -42.950  58.207 -54.506  1.00  0.00     0.264 A 
HETATM    4  O   UNL     1     -43.223  59.200 -53.831  1.00  0.00    -0.267 OA
HETATM    5  C   UNL     1     -42.394  56.995 -53.830  1.00  0.00     0.049 A 
HETATM    6  C   UNL     1     -42.072  55.967 -54.641  1.00  0.00     0.083 A 
HETATM    7  C   UNL     1     -41.409  54.768 -54.059  1.00  0.00    -0.000 A 
HETATM    8  C   UNL     1     -41.470  54.532 -52.678  1.00  0.00    -0.044 A 
HETATM    9  C   UNL     1     -40.865  53.395 -52.122  1.00  0.00     0.008 A 
HETATM   10  C   UNL     1     -40.175  52.500 -52.937  1.00  0.00     0.001 A 
HETATM   11  C   UNL     1     -40.096  52.729 -54.307  1.00  0.00     0.001 A 
HETATM   12  C   UNL     1     -40.711  53.854 -54.864  1.00  0.00     0.014 A 
HETATM   13  C   UNL     1     -42.245  55.487 -51.815  1.00  0.00     0.054 C 
HETATM   14  C   UNL     1     -42.137  56.955 -52.310  1.00  0.00    -0.002 C 
HETATM   15  C   UNL     1     -40.737  57.532 -51.983  1.00  0.00     0.015 C 
HETATM   16  C   UNL     1     -40.971  59.009 -51.713  1.00  0.00     0.001 C 
HETATM   17  C   UNL     1     -42.300  59.047 -50.976  1.00  0.00     0.001 C 
HETATM   18  C   UNL     1     -43.081  57.803 -51.413  1.00  0.00     0.015 C 
HETATM   19  N   UNL     1     -42.301  55.932 -55.986  1.00  0.00    -0.217 NA
ENDROOT
BRANCH   1  20
HETATM   20  N   UNL     1     -43.064  56.884 -57.943  1.00  0.00    -0.171 NA
HETATM   21  H   UNL     1     -43.274  55.945 -58.298  1.00  0.00     0.156 HD
BRANCH  20  22
HETATM   22  N   UNL     1     -42.181  57.583 -58.795  1.00  0.00    -0.284 N 
HETATM   23  C   UNL     1     -42.762  58.213 -59.881  1.00  0.00     0.231 C 
HETATM   24  O   UNL     1     -43.980  58.315 -60.010  1.00  0.00    -0.272 OA
HETATM   25  H   UNL     1     -41.250  57.170 -58.853  1.00  0.00     0.184 HD
BRANCH  23  26
HETATM   26  C   UNL     1     -41.749  58.730 -60.879  1.00  0.00     0.100 C 
HETATM   27  C   UNL     1     -41.940  60.208 -61.173  1.00  0.00     0.014 C 
ENDBRANCH  23  26
ENDBRANCH  20  22
ENDBRANCH   1  20
BRANCH   2  28
HETATM   28  C   UNL     1     -43.455  59.359 -56.595  1.00  0.00     0.045 A 
HETATM   29  C   UNL     1     -42.498  60.329 -56.940  1.00  0.00     0.030 A 
HETATM   30  C   UNL     1     -42.862  61.484 -57.636  1.00  0.00     0.002 A 
HETATM   31  C   UNL     1     -44.191  61.694 -57.990  1.00  0.00     0.000 A 
HETATM   32  C   UNL     1     -45.157  60.753 -57.641  1.00  0.00     0.002 A 
HETATM   33  C   UNL     1     -44.792  59.597 -56.945  1.00  0.00     0.030 A 
ENDBRANCH   2  28
TORSDOF 4
ENDMDL
MODEL 10
REMARK VINA RESULT:      -7.6      2.204      7.748
REMARK  4 active torsions:
REMARK  status: ('A' for Active; 'I' for Inactive)
REMARK    1  A    between atoms: C_2  and  C_3 
REMARK       I    between atoms: C_3  and  N_4 
REMARK    2  A    between atoms: N_4  and  N_5 
REMARK    3  A    between atoms: N_5  and  C_6 
REMARK    4  A    between atoms: N_7  and  C_8 
ROOT
HETATM    1  C   UNL     1     -43.645  56.892 -54.310  1.00  0.00     0.208 A 
HETATM    2  N   UNL     1     -43.079  56.143 -55.340  1.00  0.00    -0.251 N 
HETATM    3  C   UNL     1     -43.384  56.433 -56.670  1.00  0.00     0.264 A 
HETATM    4  O   UNL     1     -42.952  55.788 -57.625  1.00  0.00    -0.267 OA
HETATM    5  C   UNL     1     -44.228  57.640 -56.927  1.00  0.00     0.049 A 
HETATM    6  C   UNL     1     -44.622  58.324 -55.834  1.00  0.00     0.083 A 
HETATM    7  C   UNL     1     -45.370  59.599 -56.010  1.00  0.00    -0.000 A 
HETATM    8  C   UNL     1     -45.993  59.885 -57.233  1.00  0.00    -0.044 A 
HETATM    9  C   UNL     1     -46.717  61.075 -57.403  1.00  0.00     0.008 A 
HETATM   10  C   UNL     1     -46.803  61.997 -56.361  1.00  0.00     0.001 A 
HETATM   11  C   UNL     1     -46.179  61.730 -55.147  1.00  0.00     0.001 A 
HETATM   12  C   UNL     1     -45.470  60.539 -54.972  1.00  0.00     0.014 A 
HETATM   13  C   UNL     1     -45.920  58.869 -58.337  1.00  0.00     0.054 C 
HETATM   14  C   UNL     1     -44.564  58.111 -58.357  1.00  0.00    -0.002 C 
HETATM   15  C   UNL     1     -43.441  59.030 -58.901  1.00  0.00     0.015 C 
HETATM   16  C   UNL     1     -42.490  58.099 -59.634  1.00  0.00     0.001 C 
HETATM   17  C   UNL     1     -43.402  57.081 -60.299  1.00  0.00     0.001 C 
HETATM   18  C   UNL     1     -44.677  57.014 -59.451  1.00  0.00     0.015 C 
HETATM   19  N   UNL     1     -44.381  57.942 -54.545  1.00  0.00    -0.217 NA
ENDROOT
BRANCH   1  20
HETATM   20  N   UNL     1     -43.478  56.502 -52.987  1.00  0.00    -0.171 NA
HETATM   21  H   UNL     1     -44.335  56.306 -52.458  1.00  0.00     0.156 HD
BRANCH  20  22
HETATM   22  N   UNL     1     -42.563  57.273 -52.240  1.00  0.00    -0.284 N 
HETATM   23  C   UNL     1     -41.627  56.561 -51.511  1.00  0.00     0.231 C 
HETATM   24  O   UNL     1     -41.478  55.347 -51.636  1.00  0.00    -0.272 OA
HETATM   25  H   UNL     1     -42.948  58.154 -51.897  1.00  0.00     0.184 HD
BRANCH  23  26
HETATM   26  C   UNL     1     -40.841  57.425 -50.549  1.00  0.00     0.100 C 
HETATM   27  C   UNL     1     -40.346  58.704 -51.204  1.00  0.00     0.014 C 
ENDBRANCH  23  26
ENDBRANCH  20  22
ENDBRANCH   1  20
BRANCH   2  28
HETATM   28  C   UNL     1     -42.145  55.082 -55.061  1.00  0.00     0.045 A 
HETATM   29  C   UNL     1     -40.760  55.316 -55.105  1.00  0.00     0.030 A 
HETATM   30  C   UNL     1     -39.849  54.296 -54.817  1.00  0.00     0.002 A 
HETATM   31  C   UNL     1     -40.308  53.024 -54.491  1.00  0.00     0.000 A 
HETATM   32  C   UNL     1     -41.677  52.769 -54.460  1.00  0.00     0.002 A 
HETATM   33  C   UNL     1     -42.588  53.789 -54.748  1.00  0.00     0.030 A 
ENDBRANCH   2  28
TORSDOF 4
ENDMDL
