MODEL 1
REMARK VINA RESULT:      -8.1      0.000      0.000
REMARK  6 active torsions:
REMARK  status: ('A' for Active; 'I' for Inactive)
REMARK    1  A    between atoms: C_2  and  C_3 
REMARK    2  A    between atoms: C_13  and  C_14 
REMARK       I    between atoms: C_14  and  N_15 
REMARK    3  A    between atoms: N_15  and  C_16 
REMARK    4  A    between atoms: C_16  and  C_17 
REMARK    5  A    between atoms: C_17  and  C_18 
REMARK    6  A    between atoms: C_18  and  C_19 
ROOT
HETATM    1  C   UNL     1     -41.758  56.432 -55.350  1.00  0.00     0.251 C 
HETATM    2  N   UNL     1     -42.196  56.271 -56.648  1.00  0.00    -0.357 N 
HETATM    3  O   UNL     1     -41.824  57.492 -54.739  1.00  0.00    -0.268 OA
HETATM    4  H   UNL     1     -42.310  55.340 -57.022  1.00  0.00     0.162 HD
ENDROOT
BRANCH   1   5
HETATM    5  C   UNL     1     -41.210  55.224 -54.669  1.00  0.00     0.032 A 
HETATM    6  C   UNL     1     -40.623  54.165 -55.366  1.00  0.00     0.017 A 
HETATM    7  C   UNL     1     -40.120  53.058 -54.670  1.00  0.00     0.008 A 
HETATM    8  C   UNL     1     -40.187  52.994 -53.269  1.00  0.00    -0.052 A 
HETATM    9  C   UNL     1     -40.765  54.068 -52.578  1.00  0.00     0.008 A 
HETATM   10  C   UNL     1     -41.265  55.174 -53.271  1.00  0.00     0.017 A 
BRANCH   8  11
HETATM   11  C   UNL     1     -39.661  51.767 -52.548  1.00  0.00     0.044 C 
HETATM   12  C   UNL     1     -39.954  50.499 -53.364  1.00  0.00     0.241 C 
HETATM   13  N   UNL     1     -39.421  49.296 -52.645  1.00  0.00    -0.074 N 
HETATM   14  H   UNL     1     -38.393  49.346 -52.600  1.00  0.00     0.277 HD
HETATM   15  H   UNL     1     -39.630  48.456 -53.202  1.00  0.00     0.277 HD
HETATM   16  C   UNL     1     -39.973  49.118 -51.269  1.00  0.00     0.232 C 
HETATM   17  C   UNL     1     -39.670  50.357 -50.442  1.00  0.00     0.028 C 
HETATM   18  C   UNL     1     -40.198  51.627 -51.111  1.00  0.00     0.013 C 
ENDBRANCH   8  11
ENDBRANCH   1   5
BRANCH   2  19
HETATM   19  C   UNL     1     -42.829  57.355 -57.376  1.00  0.00     0.123 C 
BRANCH  19  20
HETATM   20  C   UNL     1     -41.949  57.961 -58.466  1.00  0.00     0.026 C 
BRANCH  20  21
HETATM   21  C   UNL     1     -42.086  57.229 -59.801  1.00  0.00     0.061 C 
BRANCH  21  22
HETATM   22  C   UNL     1     -43.405  56.538 -59.928  1.00  0.00     0.044 A 
HETATM   23  N   UNL     1     -43.478  55.189 -59.620  1.00  0.00    -0.229 NA
HETATM   24  C   UNL     1     -44.706  54.756 -59.763  1.00  0.00     0.164 A 
HETATM   25  N   UNL     1     -45.069  53.487 -59.525  1.00  0.00    -0.378 N 
HETATM   26  S   UNL     1     -45.839  55.925 -60.308  1.00  0.00    -0.062 SA
HETATM   27  H   UNL     1     -44.315  52.814 -59.471  1.00  0.00     0.158 HD
HETATM   28  H   UNL     1     -45.917  53.142 -59.959  1.00  0.00     0.158 HD
HETATM   29  C   UNL     1     -44.599  57.104 -60.330  1.00  0.00     0.080 A 
ENDBRANCH  21  22
ENDBRANCH  20  21
ENDBRANCH  19  20
ENDBRANCH   2  19
TORSDOF 6
ENDMDL
MODEL 2
REMARK VINA RESULT:      -8.1      0.819      1.218
REMARK  6 active torsions:
REMARK  status: ('A' for Active; 'I' for Inactive)
REMARK    1  A    between atoms: C_2  and  C_3 
REMARK    2  A    between atoms: C_13  and  C_14 
REMARK       I    between atoms: C_14  and  N_15 
REMARK    3  A    between atoms: N_15  and  C_16 
REMARK    4  A    between atoms: C_16  and  C_17 
REMARK    5  A    between atoms: C_17  and  C_18 
REMARK    6  A    between atoms: C_18  and  C_19 
ROOT
HETATM    1  C   UNL     1     -42.609  56.674 -55.458  1.00  0.00     0.251 C 
HETATM    2  N   UNL     1     -42.161  57.125 -56.682  1.00  0.00    -0.357 N 
HETATM    3  O   UNL     1     -43.541  57.183 -54.847  1.00  0.00    -0.268 OA
HETATM    4  H   UNL     1     -41.539  56.546 -57.228  1.00  0.00     0.162 HD
ENDROOT
BRANCH   1   5
HETATM    5  C   UNL     1     -41.922  55.479 -54.889  1.00  0.00     0.032 A 
HETATM    6  C   UNL     1     -42.349  54.850 -53.716  1.00  0.00     0.017 A 
HETATM    7  C   UNL     1     -41.666  53.726 -53.233  1.00  0.00     0.008 A 
HETATM    8  C   UNL     1     -40.555  53.206 -53.916  1.00  0.00    -0.052 A 
HETATM    9  C   UNL     1     -40.145  53.835 -55.100  1.00  0.00     0.008 A 
HETATM   10  C   UNL     1     -40.826  54.956 -55.584  1.00  0.00     0.017 A 
BRANCH   8  11
HETATM   11  C   UNL     1     -39.819  52.006 -53.349  1.00  0.00     0.044 C 
HETATM   12  C   UNL     1     -40.164  50.740 -54.148  1.00  0.00     0.241 C 
HETATM   13  N   UNL     1     -39.423  49.565 -53.585  1.00  0.00    -0.074 N 
HETATM   14  H   UNL     1     -38.411  49.694 -53.724  1.00  0.00     0.277 HD
HETATM   15  H   UNL     1     -39.669  48.725 -54.127  1.00  0.00     0.277 HD
HETATM   16  C   UNL     1     -39.701  49.310 -52.140  1.00  0.00     0.232 C 
HETATM   17  C   UNL     1     -39.342  50.548 -51.333  1.00  0.00     0.028 C 
HETATM   18  C   UNL     1     -40.074  51.789 -51.846  1.00  0.00     0.013 C 
ENDBRANCH   8  11
ENDBRANCH   1   5
BRANCH   2  19
HETATM   19  C   UNL     1     -42.813  58.223 -57.371  1.00  0.00     0.123 C 
BRANCH  19  20
HETATM   20  C   UNL     1     -42.278  58.471 -58.780  1.00  0.00     0.026 C 
BRANCH  20  21
HETATM   21  C   UNL     1     -42.051  57.173 -59.555  1.00  0.00     0.061 C 
BRANCH  21  22
HETATM   22  C   UNL     1     -43.333  56.462 -59.845  1.00  0.00     0.044 A 
HETATM   23  N   UNL     1     -43.463  55.141 -59.447  1.00  0.00    -0.229 NA
HETATM   24  C   UNL     1     -44.652  54.687 -59.758  1.00  0.00     0.164 A 
HETATM   25  N   UNL     1     -45.054  53.438 -59.484  1.00  0.00    -0.378 N 
HETATM   26  S   UNL     1     -45.673  55.798 -60.575  1.00  0.00    -0.062 SA
HETATM   27  H   UNL     1     -44.323  52.778 -59.251  1.00  0.00     0.158 HD
HETATM   28  H   UNL     1     -45.819  53.051 -60.023  1.00  0.00     0.158 HD
HETATM   29  C   UNL     1     -44.442  56.984 -60.483  1.00  0.00     0.080 A 
ENDBRANCH  21  22
ENDBRANCH  20  21
ENDBRANCH  19  20
ENDBRANCH   2  19
TORSDOF 6
ENDMDL
MODEL 3
REMARK VINA RESULT:      -7.9      1.432      2.358
REMARK  6 active torsions:
REMARK  status: ('A' for Active; 'I' for Inactive)
REMARK    1  A    between atoms: C_2  and  C_3 
REMARK    2  A    between atoms: C_13  and  C_14 
REMARK       I    between atoms: C_14  and  N_15 
REMARK    3  A    between atoms: N_15  and  C_16 
REMARK    4  A    between atoms: C_16  and  C_17 
REMARK    5  A    between atoms: C_17  and  C_18 
REMARK    6  A    between atoms: C_18  and  C_19 
ROOT
HETATM    1  C   UNL     1     -42.938  57.737 -56.696  1.00  0.00     0.251 C 
HETATM    2  N   UNL     1     -42.022  58.247 -57.593  1.00  0.00    -0.357 N 
HETATM    3  O   UNL     1     -44.081  58.163 -56.579  1.00  0.00    -0.268 OA
HETATM    4  H   UNL     1     -41.180  57.728 -57.792  1.00  0.00     0.162 HD
ENDROOT
BRANCH   1   5
HETATM    5  C   UNL     1     -42.494  56.583 -55.863  1.00  0.00     0.032 A 
HETATM    6  C   UNL     1     -41.733  56.739 -54.701  1.00  0.00     0.017 A 
HETATM    7  C   UNL     1     -41.351  55.616 -53.956  1.00  0.00     0.008 A 
HETATM    8  C   UNL     1     -41.729  54.323 -54.351  1.00  0.00    -0.052 A 
HETATM    9  C   UNL     1     -42.505  54.179 -55.510  1.00  0.00     0.008 A 
HETATM   10  C   UNL     1     -42.888  55.298 -56.254  1.00  0.00     0.017 A 
BRANCH   8  11
HETATM   11  C   UNL     1     -41.272  53.126 -53.538  1.00  0.00     0.044 C 
HETATM   12  C   UNL     1     -40.687  53.583 -52.193  1.00  0.00     0.241 C 
HETATM   13  N   UNL     1     -40.250  52.390 -51.396  1.00  0.00    -0.074 N 
HETATM   14  H   UNL     1     -41.070  51.822 -51.145  1.00  0.00     0.277 HD
HETATM   15  H   UNL     1     -39.856  52.714 -50.502  1.00  0.00     0.277 HD
HETATM   16  C   UNL     1     -39.242  51.535 -52.091  1.00  0.00     0.232 C 
HETATM   17  C   UNL     1     -39.816  51.056 -53.415  1.00  0.00     0.028 C 
HETATM   18  C   UNL     1     -40.274  52.224 -54.289  1.00  0.00     0.013 C 
ENDBRANCH   8  11
ENDBRANCH   1   5
BRANCH   2  19
HETATM   19  C   UNL     1     -42.375  59.309 -58.517  1.00  0.00     0.123 C 
BRANCH  19  20
HETATM   20  C   UNL     1     -42.307  58.896 -59.985  1.00  0.00     0.026 C 
BRANCH  20  21
HETATM   21  C   UNL     1     -42.128  57.389 -60.160  1.00  0.00     0.061 C 
BRANCH  21  22
HETATM   22  C   UNL     1     -43.435  56.663 -60.145  1.00  0.00     0.044 A 
HETATM   23  N   UNL     1     -43.444  55.322 -59.799  1.00  0.00    -0.229 NA
HETATM   24  C   UNL     1     -44.668  54.857 -59.816  1.00  0.00     0.164 A 
HETATM   25  N   UNL     1     -44.974  53.586 -59.515  1.00  0.00    -0.378 N 
HETATM   26  S   UNL     1     -45.877  55.983 -60.279  1.00  0.00    -0.062 SA
HETATM   27  H   UNL     1     -44.201  52.933 -59.516  1.00  0.00     0.158 HD
HETATM   28  H   UNL     1     -45.849  53.209 -59.858  1.00  0.00     0.158 HD
HETATM   29  C   UNL     1     -44.675  57.191 -60.445  1.00  0.00     0.080 A 
ENDBRANCH  21  22
ENDBRANCH  20  21
ENDBRANCH  19  20
ENDBRANCH   2  19
TORSDOF 6
ENDMDL
MODEL 4
REMARK VINA RESULT:      -7.5      3.742      5.217
REMARK  6 active torsions:
REMARK  status: ('A' for Active; 'I' for Inactive)
REMARK    1  A    between atoms: C_2  and  C_3 
REMARK    2  A    between atoms: C_13  and  C_14 
REMARK       I    between atoms: C_14  and  N_15 
REMARK    3  A    between atoms: N_15  and  C_16 
REMARK    4  A    between atoms: C_16  and  C_17 
REMARK    5  A    between atoms: C_17  and  C_18 
REMARK    6  A    between atoms: C_18  and  C_19 
ROOT
HETATM    1  C   UNL     1     -43.088  56.612 -55.179  1.00  0.00     0.251 C 
HETATM    2  N   UNL     1     -44.271  56.817 -54.498  1.00  0.00    -0.357 N 
HETATM    3  O   UNL     1     -42.692  57.336 -56.084  1.00  0.00    -0.268 OA
HETATM    4  H   UNL     1     -44.440  56.321 -53.635  1.00  0.00     0.162 HD
ENDROOT
BRANCH   1   5
HETATM    5  C   UNL     1     -42.253  55.456 -54.744  1.00  0.00     0.032 A 
HETATM    6  C   UNL     1     -41.113  55.044 -55.438  1.00  0.00     0.017 A 
HETATM    7  C   UNL     1     -40.364  53.953 -54.977  1.00  0.00     0.008 A 
HETATM    8  C   UNL     1     -40.734  53.264 -53.811  1.00  0.00    -0.052 A 
HETATM    9  C   UNL     1     -41.871  53.695 -53.112  1.00  0.00     0.008 A 
HETATM   10  C   UNL     1     -42.618  54.784 -53.571  1.00  0.00     0.017 A 
BRANCH   8  11
HETATM   11  C   UNL     1     -39.919  52.068 -53.355  1.00  0.00     0.044 C 
HETATM   12  C   UNL     1     -40.228  50.844 -54.229  1.00  0.00     0.241 C 
HETATM   13  N   UNL     1     -39.409  49.673 -53.775  1.00  0.00    -0.074 N 
HETATM   14  H   UNL     1     -38.410  49.865 -53.937  1.00  0.00     0.277 HD
HETATM   15  H   UNL     1     -39.632  48.862 -54.367  1.00  0.00     0.277 HD
HETATM   16  C   UNL     1     -39.622  49.305 -52.344  1.00  0.00     0.232 C 
HETATM   17  C   UNL     1     -39.297  50.501 -51.463  1.00  0.00     0.028 C 
HETATM   18  C   UNL     1     -40.108  51.735 -51.862  1.00  0.00     0.013 C 
ENDBRANCH   8  11
ENDBRANCH   1   5
BRANCH   2  19
HETATM   19  C   UNL     1     -45.117  57.962 -54.776  1.00  0.00     0.123 C 
BRANCH  19  20
HETATM   20  C   UNL     1     -45.111  59.016 -53.671  1.00  0.00     0.026 C 
BRANCH  20  21
HETATM   21  C   UNL     1     -43.812  59.821 -53.640  1.00  0.00     0.061 C 
BRANCH  21  22
HETATM   22  C   UNL     1     -42.891  59.356 -52.558  1.00  0.00     0.044 A 
HETATM   23  N   UNL     1     -43.118  58.117 -51.982  1.00  0.00    -0.229 NA
HETATM   24  C   UNL     1     -42.206  57.864 -51.075  1.00  0.00     0.164 A 
HETATM   25  N   UNL     1     -42.177  56.729 -50.362  1.00  0.00    -0.378 N 
HETATM   26  S   UNL     1     -41.045  59.104 -50.833  1.00  0.00    -0.062 SA
HETATM   27  H   UNL     1     -43.028  56.180 -50.369  1.00  0.00     0.158 HD
HETATM   28  H   UNL     1     -41.680  56.729 -49.480  1.00  0.00     0.158 HD
HETATM   29  C   UNL     1     -41.803  60.039 -52.050  1.00  0.00     0.080 A 
ENDBRANCH  21  22
ENDBRANCH  20  21
ENDBRANCH  19  20
ENDBRANCH   2  19
TORSDOF 6
ENDMDL
MODEL 5
REMARK VINA RESULT:      -7.5      1.914      2.561
REMARK  6 active torsions:
REMARK  status: ('A' for Active; 'I' for Inactive)
REMARK    1  A    between atoms: C_2  and  C_3 
REMARK    2  A    between atoms: C_13  and  C_14 
REMARK       I    between atoms: C_14  and  N_15 
REMARK    3  A    between atoms: N_15  and  C_16 
REMARK    4  A    between atoms: C_16  and  C_17 
REMARK    5  A    between atoms: C_17  and  C_18 
REMARK    6  A    between atoms: C_18  and  C_19 
ROOT
HETATM    1  C   UNL     1     -41.156  57.797 -53.933  1.00  0.00     0.251 C 
HETATM    2  N   UNL     1     -41.826  58.220 -55.062  1.00  0.00    -0.357 N 
HETATM    3  O   UNL     1     -40.716  58.558 -53.079  1.00  0.00    -0.268 OA
HETATM    4  H   UNL     1     -42.343  57.551 -55.613  1.00  0.00     0.162 HD
ENDROOT
BRANCH   1   5
HETATM    5  C   UNL     1     -41.006  56.325 -53.752  1.00  0.00     0.032 A 
HETATM    6  C   UNL     1     -40.506  55.488 -54.753  1.00  0.00     0.017 A 
HETATM    7  C   UNL     1     -40.381  54.112 -54.522  1.00  0.00     0.008 A 
HETATM    8  C   UNL     1     -40.744  53.550 -53.287  1.00  0.00    -0.052 A 
HETATM    9  C   UNL     1     -41.231  54.401 -52.284  1.00  0.00     0.008 A 
HETATM   10  C   UNL     1     -41.354  55.774 -52.513  1.00  0.00     0.017 A 
BRANCH   8  11
HETATM   11  C   UNL     1     -40.626  52.052 -53.080  1.00  0.00     0.044 C 
HETATM   12  C   UNL     1     -39.628  51.744 -51.954  1.00  0.00     0.241 C 
HETATM   13  N   UNL     1     -39.530  50.261 -51.752  1.00  0.00    -0.074 N 
HETATM   14  H   UNL     1     -40.430  49.897 -51.410  1.00  0.00     0.277 HD
HETATM   15  H   UNL     1     -38.854  50.072 -50.999  1.00  0.00     0.277 HD
HETATM   16  C   UNL     1     -39.118  49.510 -52.975  1.00  0.00     0.232 C 
HETATM   17  C   UNL     1     -40.111  49.787 -54.093  1.00  0.00     0.028 C 
HETATM   18  C   UNL     1     -40.254  51.286 -54.364  1.00  0.00     0.013 C 
ENDBRANCH   8  11
ENDBRANCH   1   5
BRANCH   2  19
HETATM   19  C   UNL     1     -42.109  59.625 -55.294  1.00  0.00     0.123 C 
BRANCH  19  20
HETATM   20  C   UNL     1     -43.179  59.870 -56.356  1.00  0.00     0.026 C 
BRANCH  20  21
HETATM   21  C   UNL     1     -44.053  58.640 -56.598  1.00  0.00     0.061 C 
BRANCH  21  22
HETATM   22  C   UNL     1     -43.780  58.011 -57.926  1.00  0.00     0.044 A 
HETATM   23  N   UNL     1     -42.468  57.926 -58.362  1.00  0.00    -0.229 NA
HETATM   24  C   UNL     1     -42.413  57.329 -59.527  1.00  0.00     0.164 A 
HETATM   25  N   UNL     1     -41.265  57.105 -60.183  1.00  0.00    -0.378 N 
HETATM   26  S   UNL     1     -43.928  56.865 -60.187  1.00  0.00    -0.062 SA
HETATM   27  H   UNL     1     -40.463  57.635 -59.865  1.00  0.00     0.158 HD
HETATM   28  H   UNL     1     -41.306  56.956 -61.183  1.00  0.00     0.158 HD
HETATM   29  C   UNL     1     -44.714  57.486 -58.799  1.00  0.00     0.080 A 
ENDBRANCH  21  22
ENDBRANCH  20  21
ENDBRANCH  19  20
ENDBRANCH   2  19
TORSDOF 6
ENDMDL
MODEL 6
REMARK VINA RESULT:      -7.5      6.657      8.419
REMARK  6 active torsions:
REMARK  status: ('A' for Active; 'I' for Inactive)
REMARK    1  A    between atoms: C_2  and  C_3 
REMARK    2  A    between atoms: C_13  and  C_14 
REMARK       I    between atoms: C_14  and  N_15 
REMARK    3  A    between atoms: N_15  and  C_16 
REMARK    4  A    between atoms: C_16  and  C_17 
REMARK    5  A    between atoms: C_17  and  C_18 
REMARK    6  A    between atoms: C_18  and  C_19 
ROOT
HETATM    1  C   UNL     1     -41.529  58.889 -51.685  1.00  0.00     0.251 C 
HETATM    2  N   UNL     1     -42.381  59.231 -50.654  1.00  0.00    -0.357 N 
HETATM    3  O   UNL     1     -40.899  59.708 -52.344  1.00  0.00    -0.268 OA
HETATM    4  H   UNL     1     -42.703  58.516 -50.018  1.00  0.00     0.162 HD
ENDROOT
BRANCH   1   5
HETATM    5  C   UNL     1     -41.361  57.434 -51.964  1.00  0.00     0.032 A 
HETATM    6  C   UNL     1     -41.251  56.922 -53.260  1.00  0.00     0.017 A 
HETATM    7  C   UNL     1     -41.088  55.545 -53.460  1.00  0.00     0.008 A 
HETATM    8  C   UNL     1     -41.023  54.659 -52.372  1.00  0.00    -0.052 A 
HETATM    9  C   UNL     1     -41.120  55.185 -51.076  1.00  0.00     0.008 A 
HETATM   10  C   UNL     1     -41.281  56.559 -50.875  1.00  0.00     0.017 A 
BRANCH   8  11
HETATM   11  C   UNL     1     -40.878  53.170 -52.624  1.00  0.00     0.044 C 
HETATM   12  C   UNL     1     -39.774  52.581 -51.732  1.00  0.00     0.241 C 
HETATM   13  N   UNL     1     -39.648  51.108 -51.983  1.00  0.00    -0.074 N 
HETATM   14  H   UNL     1     -40.509  50.630 -51.683  1.00  0.00     0.277 HD
HETATM   15  H   UNL     1     -38.902  50.731 -51.383  1.00  0.00     0.277 HD
HETATM   16  C   UNL     1     -39.352  50.760 -53.405  1.00  0.00     0.232 C 
HETATM   17  C   UNL     1     -40.450  51.317 -54.298  1.00  0.00     0.028 C 
HETATM   18  C   UNL     1     -40.627  52.823 -54.104  1.00  0.00     0.013 C 
ENDBRANCH   8  11
ENDBRANCH   1   5
BRANCH   2  19
HETATM   19  C   UNL     1     -42.550  60.610 -50.236  1.00  0.00     0.123 C 
BRANCH  19  20
HETATM   20  C   UNL     1     -43.997  61.094 -50.281  1.00  0.00     0.026 C 
BRANCH  20  21
HETATM   21  C   UNL     1     -44.236  62.304 -49.378  1.00  0.00     0.061 C 
BRANCH  21  22
HETATM   22  C   UNL     1     -45.061  61.957 -48.181  1.00  0.00     0.044 A 
HETATM   23  N   UNL     1     -44.516  61.120 -47.220  1.00  0.00    -0.229 NA
HETATM   24  C   UNL     1     -45.363  60.944 -46.237  1.00  0.00     0.164 A 
HETATM   25  N   UNL     1     -45.095  60.184 -45.166  1.00  0.00    -0.378 N 
HETATM   26  S   UNL     1     -46.874  61.737 -46.417  1.00  0.00    -0.062 SA
HETATM   27  H   UNL     1     -44.312  59.549 -45.258  1.00  0.00     0.158 HD
HETATM   28  H   UNL     1     -45.872  59.823 -44.627  1.00  0.00     0.158 HD
HETATM   29  C   UNL     1     -46.346  62.387 -47.910  1.00  0.00     0.080 A 
ENDBRANCH  21  22
ENDBRANCH  20  21
ENDBRANCH  19  20
ENDBRANCH   2  19
TORSDOF 6
ENDMDL
MODEL 7
REMARK VINA RESULT:      -7.4      1.827      2.472
REMARK  6 active torsions:
REMARK  status: ('A' for Active; 'I' for Inactive)
REMARK    1  A    between atoms: C_2  and  C_3 
REMARK    2  A    between atoms: C_13  and  C_14 
REMARK       I    between atoms: C_14  and  N_15 
REMARK    3  A    between atoms: N_15  and  C_16 
REMARK    4  A    between atoms: C_16  and  C_17 
REMARK    5  A    between atoms: C_17  and  C_18 
REMARK    6  A    between atoms: C_18  and  C_19 
ROOT
HETATM    1  C   UNL     1     -42.954  57.268 -53.847  1.00  0.00     0.251 C 
HETATM    2  N   UNL     1     -42.237  58.345 -54.325  1.00  0.00    -0.357 N 
HETATM    3  O   UNL     1     -44.153  57.307 -53.598  1.00  0.00    -0.268 OA
HETATM    4  H   UNL     1     -41.314  58.199 -54.707  1.00  0.00     0.162 HD
ENDROOT
BRANCH   1   5
HETATM    5  C   UNL     1     -42.207  55.989 -53.667  1.00  0.00     0.032 A 
HETATM    6  C   UNL     1     -42.531  55.059 -52.677  1.00  0.00     0.017 A 
HETATM    7  C   UNL     1     -41.797  53.871 -52.560  1.00  0.00     0.008 A 
HETATM    8  C   UNL     1     -40.735  53.590 -53.435  1.00  0.00    -0.052 A 
HETATM    9  C   UNL     1     -40.427  54.523 -54.435  1.00  0.00     0.008 A 
HETATM   10  C   UNL     1     -41.161  55.708 -54.553  1.00  0.00     0.017 A 
BRANCH   8  11
HETATM   11  C   UNL     1     -39.940  52.309 -53.263  1.00  0.00     0.044 C 
HETATM   12  C   UNL     1     -40.405  51.249 -54.272  1.00  0.00     0.241 C 
HETATM   13  N   UNL     1     -39.604  49.993 -54.098  1.00  0.00    -0.074 N 
HETATM   14  H   UNL     1     -38.620  50.172 -54.342  1.00  0.00     0.277 HD
HETATM   15  H   UNL     1     -39.932  49.293 -54.777  1.00  0.00     0.277 HD
HETATM   16  C   UNL     1     -39.681  49.412 -52.724  1.00  0.00     0.232 C 
HETATM   17  C   UNL     1     -39.200  50.444 -51.715  1.00  0.00     0.028 C 
HETATM   18  C   UNL     1     -39.984  51.752 -51.827  1.00  0.00     0.013 C 
ENDBRANCH   8  11
ENDBRANCH   1   5
BRANCH   2  19
HETATM   19  C   UNL     1     -42.880  59.612 -54.623  1.00  0.00     0.123 C 
BRANCH  19  20
HETATM   20  C   UNL     1     -43.236  59.789 -56.097  1.00  0.00     0.026 C 
BRANCH  20  21
HETATM   21  C   UNL     1     -42.063  59.470 -57.023  1.00  0.00     0.061 C 
BRANCH  21  22
HETATM   22  C   UNL     1     -42.350  58.302 -57.910  1.00  0.00     0.044 A 
HETATM   23  N   UNL     1     -43.051  57.228 -57.385  1.00  0.00    -0.229 NA
HETATM   24  C   UNL     1     -43.233  56.311 -58.302  1.00  0.00     0.164 A 
HETATM   25  N   UNL     1     -43.888  55.164 -58.073  1.00  0.00    -0.378 N 
HETATM   26  S   UNL     1     -42.548  56.660 -59.837  1.00  0.00    -0.062 SA
HETATM   27  H   UNL     1     -44.022  54.918 -57.100  1.00  0.00     0.158 HD
HETATM   28  H   UNL     1     -43.712  54.380 -58.688  1.00  0.00     0.158 HD
HETATM   29  C   UNL     1     -41.988  58.162 -59.236  1.00  0.00     0.080 A 
ENDBRANCH  21  22
ENDBRANCH  20  21
ENDBRANCH  19  20
ENDBRANCH   2  19
TORSDOF 6
ENDMDL
MODEL 8
REMARK VINA RESULT:      -7.3      3.836      5.100
REMARK  6 active torsions:
REMARK  status: ('A' for Active; 'I' for Inactive)
REMARK    1  A    between atoms: C_2  and  C_3 
REMARK    2  A    between atoms: C_13  and  C_14 
REMARK       I    between atoms: C_14  and  N_15 
REMARK    3  A    between atoms: N_15  and  C_16 
REMARK    4  A    between atoms: C_16  and  C_17 
REMARK    5  A    between atoms: C_17  and  C_18 
REMARK    6  A    between atoms: C_18  and  C_19 
ROOT
HETATM    1  C   UNL     1     -41.350  58.226 -51.038  1.00  0.00     0.251 C 
HETATM    2  N   UNL     1     -42.621  58.762 -51.070  1.00  0.00    -0.357 N 
HETATM    3  O   UNL     1     -40.362  58.846 -50.664  1.00  0.00    -0.268 OA
HETATM    4  H   UNL     1     -43.416  58.150 -51.183  1.00  0.00     0.162 HD
ENDROOT
BRANCH   1   5
HETATM    5  C   UNL     1     -41.210  56.801 -51.455  1.00  0.00     0.032 A 
HETATM    6  C   UNL     1     -41.312  56.390 -52.786  1.00  0.00     0.017 A 
HETATM    7  C   UNL     1     -41.164  55.037 -53.118  1.00  0.00     0.008 A 
HETATM    8  C   UNL     1     -40.903  54.075 -52.129  1.00  0.00    -0.052 A 
HETATM    9  C   UNL     1     -40.788  54.500 -50.797  1.00  0.00     0.008 A 
HETATM   10  C   UNL     1     -40.933  55.850 -50.466  1.00  0.00     0.017 A 
BRANCH   8  11
HETATM   11  C   UNL     1     -40.779  52.614 -52.517  1.00  0.00     0.044 C 
HETATM   12  C   UNL     1     -39.641  51.945 -51.733  1.00  0.00     0.241 C 
HETATM   13  N   UNL     1     -39.536  50.500 -52.118  1.00  0.00    -0.074 N 
HETATM   14  H   UNL     1     -40.386  50.000 -51.822  1.00  0.00     0.277 HD
HETATM   15  H   UNL     1     -38.766  50.069 -51.588  1.00  0.00     0.277 HD
HETATM   16  C   UNL     1     -39.307  50.277 -53.577  1.00  0.00     0.232 C 
HETATM   17  C   UNL     1     -40.441  50.914 -54.366  1.00  0.00     0.028 C 
HETATM   18  C   UNL     1     -40.598  52.398 -54.032  1.00  0.00     0.013 C 
ENDBRANCH   8  11
ENDBRANCH   1   5
BRANCH   2  19
HETATM   19  C   UNL     1     -42.889  60.109 -50.601  1.00  0.00     0.123 C 
BRANCH  19  20
HETATM   20  C   UNL     1     -43.809  60.910 -51.520  1.00  0.00     0.026 C 
BRANCH  20  21
HETATM   21  C   UNL     1     -45.127  60.189 -51.798  1.00  0.00     0.061 C 
BRANCH  21  22
HETATM   22  C   UNL     1     -45.073  59.388 -53.059  1.00  0.00     0.044 A 
HETATM   23  N   UNL     1     -44.854  58.022 -52.967  1.00  0.00    -0.229 NA
HETATM   24  C   UNL     1     -44.861  57.480 -54.159  1.00  0.00     0.164 A 
HETATM   25  N   UNL     1     -44.680  56.168 -54.369  1.00  0.00    -0.378 N 
HETATM   26  S   UNL     1     -45.094  58.571 -55.463  1.00  0.00    -0.062 SA
HETATM   27  H   UNL     1     -44.289  55.646 -53.595  1.00  0.00     0.158 HD
HETATM   28  H   UNL     1     -44.368  55.867 -55.284  1.00  0.00     0.158 HD
HETATM   29  C   UNL     1     -45.221  59.863 -54.347  1.00  0.00     0.080 A 
ENDBRANCH  21  22
ENDBRANCH  20  21
ENDBRANCH  19  20
ENDBRANCH   2  19
TORSDOF 6
ENDMDL
MODEL 9
REMARK VINA RESULT:      -7.3      1.977      3.051
REMARK  6 active torsions:
REMARK  status: ('A' for Active; 'I' for Inactive)
REMARK    1  A    between atoms: C_2  and  C_3 
REMARK    2  A    between atoms: C_13  and  C_14 
REMARK       I    between atoms: C_14  and  N_15 
REMARK    3  A    between atoms: N_15  and  C_16 
REMARK    4  A    between atoms: C_16  and  C_17 
REMARK    5  A    between atoms: C_17  and  C_18 
REMARK    6  A    between atoms: C_18  and  C_19 
ROOT
HETATM    1  C   UNL     1     -43.759  57.658 -56.018  1.00  0.00     0.251 C 
HETATM    2  N   UNL     1     -45.124  57.612 -56.215  1.00  0.00    -0.357 N 
HETATM    3  O   UNL     1     -43.054  58.597 -56.369  1.00  0.00    -0.268 OA
HETATM    4  H   UNL     1     -45.674  56.923 -55.724  1.00  0.00     0.162 HD
ENDROOT
BRANCH   1   5
HETATM    5  C   UNL     1     -43.143  56.502 -55.306  1.00  0.00     0.032 A 
HETATM    6  C   UNL     1     -42.573  56.614 -54.035  1.00  0.00     0.017 A 
HETATM    7  C   UNL     1     -42.015  55.490 -53.413  1.00  0.00     0.008 A 
HETATM    8  C   UNL     1     -42.024  54.236 -54.044  1.00  0.00    -0.052 A 
HETATM    9  C   UNL     1     -42.612  54.130 -55.312  1.00  0.00     0.008 A 
HETATM   10  C   UNL     1     -43.171  55.251 -55.933  1.00  0.00     0.017 A 
BRANCH   8  11
HETATM   11  C   UNL     1     -41.383  53.045 -53.356  1.00  0.00     0.044 C 
HETATM   12  C   UNL     1     -40.806  53.459 -51.994  1.00  0.00     0.241 C 
HETATM   13  N   UNL     1     -40.186  52.271 -51.321  1.00  0.00    -0.074 N 
HETATM   14  H   UNL     1     -40.915  51.579 -51.097  1.00  0.00     0.277 HD
HETATM   15  H   UNL     1     -39.800  52.566 -50.414  1.00  0.00     0.277 HD
HETATM   16  C   UNL     1     -39.106  51.618 -52.120  1.00  0.00     0.232 C 
HETATM   17  C   UNL     1     -39.669  51.182 -53.464  1.00  0.00     0.028 C 
HETATM   18  C   UNL     1     -40.310  52.350 -54.215  1.00  0.00     0.013 C 
ENDBRANCH   8  11
ENDBRANCH   1   5
BRANCH   2  19
HETATM   19  C   UNL     1     -45.841  58.722 -56.816  1.00  0.00     0.123 C 
BRANCH  19  20
HETATM   20  C   UNL     1     -46.961  58.292 -57.761  1.00  0.00     0.026 C 
BRANCH  20  21
HETATM   21  C   UNL     1     -46.527  58.311 -59.226  1.00  0.00     0.061 C 
BRANCH  21  22
HETATM   22  C   UNL     1     -45.673  57.135 -59.574  1.00  0.00     0.044 A 
HETATM   23  N   UNL     1     -44.307  57.222 -59.362  1.00  0.00    -0.229 NA
HETATM   24  C   UNL     1     -43.722  56.098 -59.697  1.00  0.00     0.164 A 
HETATM   25  N   UNL     1     -42.401  55.899 -59.590  1.00  0.00    -0.378 N 
HETATM   26  S   UNL     1     -44.764  54.883 -60.317  1.00  0.00    -0.062 SA
HETATM   27  H   UNL     1     -41.835  56.731 -59.476  1.00  0.00     0.158 HD
HETATM   28  H   UNL     1     -41.978  55.173 -60.155  1.00  0.00     0.158 HD
HETATM   29  C   UNL     1     -46.101  55.930 -60.097  1.00  0.00     0.080 A 
ENDBRANCH  21  22
ENDBRANCH  20  21
ENDBRANCH  19  20
ENDBRANCH   2  19
TORSDOF 6
ENDMDL
MODEL 10
REMARK VINA RESULT:      -7.2     14.509     16.961
REMARK  6 active torsions:
REMARK  status: ('A' for Active; 'I' for Inactive)
REMARK    1  A    between atoms: C_2  and  C_3 
REMARK    2  A    between atoms: C_13  and  C_14 
REMARK       I    between atoms: C_14  and  N_15 
REMARK    3  A    between atoms: N_15  and  C_16 
REMARK    4  A    between atoms: C_16  and  C_17 
REMARK    5  A    between atoms: C_17  and  C_18 
REMARK    6  A    between atoms: C_18  and  C_19 
ROOT
HETATM    1  C   UNL     1     -35.322  41.881 -52.513  1.00  0.00     0.251 C 
HETATM    2  N   UNL     1     -35.068  40.738 -51.783  1.00  0.00    -0.357 N 
HETATM    3  O   UNL     1     -35.040  43.009 -52.127  1.00  0.00    -0.268 OA
HETATM    4  H   UNL     1     -35.127  39.837 -52.234  1.00  0.00     0.162 HD
ENDROOT
BRANCH   1   5
HETATM    5  C   UNL     1     -35.945  41.697 -53.855  1.00  0.00     0.032 A 
HETATM    6  C   UNL     1     -37.153  41.020 -54.041  1.00  0.00     0.017 A 
HETATM    7  C   UNL     1     -37.693  40.885 -55.326  1.00  0.00     0.008 A 
HETATM    8  C   UNL     1     -37.043  41.431 -56.444  1.00  0.00    -0.052 A 
HETATM    9  C   UNL     1     -35.839  42.122 -56.245  1.00  0.00     0.008 A 
HETATM   10  C   UNL     1     -35.300  42.258 -54.963  1.00  0.00     0.017 A 
BRANCH   8  11
HETATM   11  C   UNL     1     -37.638  41.240 -57.827  1.00  0.00     0.044 C 
HETATM   12  C   UNL     1     -37.678  39.749 -58.192  1.00  0.00     0.241 C 
HETATM   13  N   UNL     1     -38.278  39.574 -59.555  1.00  0.00    -0.074 N 
HETATM   14  H   UNL     1     -39.265  39.865 -59.540  1.00  0.00     0.277 HD
HETATM   15  H   UNL     1     -38.292  38.571 -59.786  1.00  0.00     0.277 HD
HETATM   16  C   UNL     1     -37.555  40.312 -60.634  1.00  0.00     0.232 C 
HETATM   17  C   UNL     1     -37.528  41.795 -60.297  1.00  0.00     0.028 C 
HETATM   18  C   UNL     1     -36.915  42.050 -58.919  1.00  0.00     0.013 C 
ENDBRANCH   8  11
ENDBRANCH   1   5
BRANCH   2  19
HETATM   19  C   UNL     1     -34.383  40.791 -50.505  1.00  0.00     0.123 C 
BRANCH  19  20
HETATM   20  C   UNL     1     -33.160  39.880 -50.422  1.00  0.00     0.026 C 
BRANCH  20  21
HETATM   21  C   UNL     1     -31.999  40.382 -51.280  1.00  0.00     0.061 C 
BRANCH  21  22
HETATM   22  C   UNL     1     -31.978  39.737 -52.628  1.00  0.00     0.044 A 
HETATM   23  N   UNL     1     -32.217  40.523 -53.743  1.00  0.00    -0.229 NA
HETATM   24  C   UNL     1     -32.136  39.802 -54.834  1.00  0.00     0.164 A 
HETATM   25  N   UNL     1     -32.317  40.308 -56.062  1.00  0.00    -0.378 N 
HETATM   26  S   UNL     1     -31.803  38.136 -54.591  1.00  0.00    -0.062 SA
HETATM   27  H   UNL     1     -32.765  41.215 -56.106  1.00  0.00     0.158 HD
HETATM   28  H   UNL     1     -32.569  39.674 -56.810  1.00  0.00     0.158 HD
HETATM   29  C   UNL     1     -31.738  38.404 -52.902  1.00  0.00     0.080 A 
ENDBRANCH  21  22
ENDBRANCH  20  21
ENDBRANCH  19  20
ENDBRANCH   2  19
TORSDOF 6
ENDMDL
