MODEL 1
REMARK VINA RESULT:      -7.4      0.000      0.000
REMARK  11 active torsions:
REMARK  status: ('A' for Active; 'I' for Inactive)
REMARK    1  A    between atoms: C_2  and  O_3 
REMARK    2  A    between atoms: O_3  and  C_4 
REMARK    3  A    between atoms: C_7  and  C_8 
REMARK       I    between atoms: C_8  and  N_9 
REMARK    4  A    between atoms: N_9  and  C_10 
REMARK    5  A    between atoms: C_10  and  N_11 
REMARK    6  A    between atoms: N_11  and  C_12 
REMARK    7  A    between atoms: C_13  and  C_14 
REMARK       I    between atoms: C_14  and  N_15 
REMARK    8  A    between atoms: N_15  and  C_16 
REMARK    9  A    between atoms: C_16  and  C_17 
REMARK   10  A    between atoms: C_17  and  C_18 
REMARK   11  A    between atoms: C_18  and  O_19 
ROOT
HETATM    1  N   UNL     1     -42.230  56.161 -51.798  1.00  0.00    -0.332 N 
HETATM    2  H   UNL     1     -43.028  55.766 -52.291  1.00  0.00     0.168 HD
ENDROOT
BRANCH   1   3
HETATM    3  C   UNL     1     -41.726  57.321 -52.388  1.00  0.00     0.179 C 
HETATM    4  S   UNL     1     -41.276  58.699 -51.553  1.00  0.00    -0.040 SA
BRANCH   3   5
HETATM    5  N   UNL     1     -41.602  57.115 -53.768  1.00  0.00    -0.299 N 
HETATM    6  C   UNL     1     -42.044  57.936 -54.803  1.00  0.00     0.257 C 
HETATM    7  O   UNL     1     -42.111  59.159 -54.761  1.00  0.00    -0.267 OA
HETATM    8  H   UNL     1     -41.522  56.133 -53.987  1.00  0.00     0.171 HD
BRANCH   6   9
HETATM    9  C   UNL     1     -42.377  57.255 -56.082  1.00  0.00     0.032 A 
HETATM   10  C   UNL     1     -42.661  55.884 -56.035  1.00  0.00     0.020 A 
HETATM   11  C   UNL     1     -42.989  55.185 -57.201  1.00  0.00     0.038 A 
HETATM   12  C   UNL     1     -43.050  55.855 -58.422  1.00  0.00     0.068 A 
HETATM   13  C   UNL     1     -42.767  57.223 -58.468  1.00  0.00     0.038 A 
HETATM   14  C   UNL     1     -42.438  57.929 -57.306  1.00  0.00     0.020 A 
BRANCH  12  15
HETATM   15  O   UNL     1     -43.372  55.295 -59.628  1.00  0.00    -0.352 OA
BRANCH  15  16
HETATM   16  C   UNL     1     -44.710  54.823 -59.783  1.00  0.00     0.171 C 
HETATM   17  C   UNL     1     -45.166  55.155 -61.192  1.00  0.00     0.034 C 
ENDBRANCH  15  16
ENDBRANCH  12  15
ENDBRANCH   6   9
ENDBRANCH   3   5
ENDBRANCH   1   3
BRANCH   1  18
HETATM   18  C   UNL     1     -41.576  55.276 -50.902  1.00  0.00     0.050 A 
HETATM   19  C   UNL     1     -41.231  53.973 -51.307  1.00  0.00     0.058 A 
HETATM   20  C   UNL     1     -40.712  53.053 -50.383  1.00  0.00     0.019 A 
HETATM   21  C   UNL     1     -40.513  53.430 -49.056  1.00  0.00     0.001 A 
HETATM   22  C   UNL     1     -40.840  54.720 -48.649  1.00  0.00     0.002 A 
HETATM   23  C   UNL     1     -41.377  55.634 -49.561  1.00  0.00     0.030 A 
BRANCH  19  24
HETATM   24  C   UNL     1     -41.339  53.511 -52.715  1.00  0.00     0.253 C 
HETATM   25  N   UNL     1     -40.333  52.665 -53.139  1.00  0.00    -0.357 N 
HETATM   26  H   UNL     1     -39.708  52.279 -52.437  1.00  0.00     0.162 HD
HETATM   27  O   UNL     1     -42.287  53.851 -53.409  1.00  0.00    -0.268 OA
BRANCH  25  28
HETATM   28  C   UNL     1     -40.421  51.974 -54.413  1.00  0.00     0.125 C 
BRANCH  28  29
HETATM   29  C   UNL     1     -39.999  50.514 -54.285  1.00  0.00     0.046 C 
BRANCH  29  30
HETATM   30  C   UNL     1     -39.534  50.191 -52.873  1.00  0.00     0.165 C 
BRANCH  30  31
HETATM   31  O   UNL     1     -39.362  48.788 -52.724  1.00  0.00    -0.401 OA
HETATM   32  H   UNL     1     -39.547  48.371 -53.583  1.00  0.00     0.209 HD
ENDBRANCH  30  31
ENDBRANCH  29  30
ENDBRANCH  28  29
ENDBRANCH  25  28
ENDBRANCH  19  24
ENDBRANCH   1  18
TORSDOF 11
ENDMDL
MODEL 2
REMARK VINA RESULT:      -7.3      2.268      5.115
REMARK  11 active torsions:
REMARK  status: ('A' for Active; 'I' for Inactive)
REMARK    1  A    between atoms: C_2  and  O_3 
REMARK    2  A    between atoms: O_3  and  C_4 
REMARK    3  A    between atoms: C_7  and  C_8 
REMARK       I    between atoms: C_8  and  N_9 
REMARK    4  A    between atoms: N_9  and  C_10 
REMARK    5  A    between atoms: C_10  and  N_11 
REMARK    6  A    between atoms: N_11  and  C_12 
REMARK    7  A    between atoms: C_13  and  C_14 
REMARK       I    between atoms: C_14  and  N_15 
REMARK    8  A    between atoms: N_15  and  C_16 
REMARK    9  A    between atoms: C_16  and  C_17 
REMARK   10  A    between atoms: C_17  and  C_18 
REMARK   11  A    between atoms: C_18  and  O_19 
ROOT
HETATM    1  N   UNL     1     -41.714  53.788 -50.967  1.00  0.00    -0.332 N 
HETATM    2  H   UNL     1     -42.709  53.819 -51.176  1.00  0.00     0.168 HD
ENDROOT
BRANCH   1   3
HETATM    3  C   UNL     1     -41.305  54.749 -50.042  1.00  0.00     0.179 C 
HETATM    4  S   UNL     1     -40.668  54.412 -48.533  1.00  0.00    -0.040 SA
BRANCH   3   5
HETATM    5  N   UNL     1     -41.457  56.022 -50.608  1.00  0.00    -0.299 N 
HETATM    6  C   UNL     1     -42.614  56.601 -51.124  1.00  0.00     0.257 C 
HETATM    7  O   UNL     1     -43.753  56.395 -50.720  1.00  0.00    -0.267 OA
HETATM    8  H   UNL     1     -40.586  56.359 -50.991  1.00  0.00     0.171 HD
BRANCH   6   9
HETATM    9  C   UNL     1     -42.417  57.613 -52.196  1.00  0.00     0.032 A 
HETATM   10  C   UNL     1     -41.103  57.919 -52.569  1.00  0.00     0.020 A 
HETATM   11  C   UNL     1     -40.849  58.855 -53.576  1.00  0.00     0.038 A 
HETATM   12  C   UNL     1     -41.908  59.483 -54.228  1.00  0.00     0.068 A 
HETATM   13  C   UNL     1     -43.221  59.177 -53.856  1.00  0.00     0.038 A 
HETATM   14  C   UNL     1     -43.482  58.241 -52.849  1.00  0.00     0.020 A 
BRANCH  12  15
HETATM   15  O   UNL     1     -41.799  60.403 -55.235  1.00  0.00    -0.352 OA
BRANCH  15  16
HETATM   16  C   UNL     1     -42.644  60.217 -56.371  1.00  0.00     0.171 C 
HETATM   17  C   UNL     1     -41.761  59.926 -57.572  1.00  0.00     0.034 C 
ENDBRANCH  15  16
ENDBRANCH  12  15
ENDBRANCH   6   9
ENDBRANCH   3   5
ENDBRANCH   1   3
BRANCH   1  18
HETATM   18  C   UNL     1     -40.921  53.086 -51.913  1.00  0.00     0.050 A 
HETATM   19  C   UNL     1     -41.158  53.230 -53.293  1.00  0.00     0.058 A 
HETATM   20  C   UNL     1     -40.470  52.433 -54.221  1.00  0.00     0.019 A 
HETATM   21  C   UNL     1     -39.527  51.505 -53.784  1.00  0.00     0.001 A 
HETATM   22  C   UNL     1     -39.277  51.364 -52.422  1.00  0.00     0.002 A 
HETATM   23  C   UNL     1     -39.975  52.140 -51.492  1.00  0.00     0.030 A 
BRANCH  19  24
HETATM   24  C   UNL     1     -42.088  54.246 -53.850  1.00  0.00     0.253 C 
HETATM   25  N   UNL     1     -41.537  55.108 -54.778  1.00  0.00    -0.357 N 
HETATM   26  H   UNL     1     -40.615  54.886 -55.144  1.00  0.00     0.162 HD
HETATM   27  O   UNL     1     -43.264  54.263 -53.511  1.00  0.00    -0.268 OA
BRANCH  25  28
HETATM   28  C   UNL     1     -42.370  56.008 -55.554  1.00  0.00     0.125 C 
BRANCH  28  29
HETATM   29  C   UNL     1     -42.829  55.359 -56.855  1.00  0.00     0.046 C 
BRANCH  29  30
HETATM   30  C   UNL     1     -42.936  56.380 -57.978  1.00  0.00     0.165 C 
BRANCH  30  31
HETATM   31  O   UNL     1     -42.415  55.837 -59.184  1.00  0.00    -0.401 OA
HETATM   32  H   UNL     1     -42.977  55.086 -59.441  1.00  0.00     0.209 HD
ENDBRANCH  30  31
ENDBRANCH  29  30
ENDBRANCH  28  29
ENDBRANCH  25  28
ENDBRANCH  19  24
ENDBRANCH   1  18
TORSDOF 11
ENDMDL
MODEL 3
REMARK VINA RESULT:      -7.3      2.793      8.471
REMARK  11 active torsions:
REMARK  status: ('A' for Active; 'I' for Inactive)
REMARK    1  A    between atoms: C_2  and  O_3 
REMARK    2  A    between atoms: O_3  and  C_4 
REMARK    3  A    between atoms: C_7  and  C_8 
REMARK       I    between atoms: C_8  and  N_9 
REMARK    4  A    between atoms: N_9  and  C_10 
REMARK    5  A    between atoms: C_10  and  N_11 
REMARK    6  A    between atoms: N_11  and  C_12 
REMARK    7  A    between atoms: C_13  and  C_14 
REMARK       I    between atoms: C_14  and  N_15 
REMARK    8  A    between atoms: N_15  and  C_16 
REMARK    9  A    between atoms: C_16  and  C_17 
REMARK   10  A    between atoms: C_17  and  C_18 
REMARK   11  A    between atoms: C_18  and  O_19 
ROOT
HETATM    1  N   UNL     1     -42.253  57.765 -57.211  1.00  0.00    -0.332 N 
HETATM    2  H   UNL     1     -41.590  56.998 -57.293  1.00  0.00     0.168 HD
ENDROOT
BRANCH   1   3
HETATM    3  C   UNL     1     -43.316  57.497 -56.348  1.00  0.00     0.179 C 
HETATM    4  S   UNL     1     -44.843  58.167 -56.477  1.00  0.00    -0.040 SA
BRANCH   3   5
HETATM    5  N   UNL     1     -42.912  56.539 -55.409  1.00  0.00    -0.299 N 
HETATM    6  C   UNL     1     -41.771  56.545 -54.611  1.00  0.00     0.257 C 
HETATM    7  O   UNL     1     -41.221  57.546 -54.165  1.00  0.00    -0.267 OA
HETATM    8  H   UNL     1     -43.296  55.630 -55.624  1.00  0.00     0.171 HD
BRANCH   6   9
HETATM    9  C   UNL     1     -41.244  55.213 -54.211  1.00  0.00     0.032 A 
HETATM   10  C   UNL     1     -41.325  54.861 -52.858  1.00  0.00     0.020 A 
HETATM   11  C   UNL     1     -40.856  53.620 -52.416  1.00  0.00     0.038 A 
HETATM   12  C   UNL     1     -40.316  52.714 -53.328  1.00  0.00     0.068 A 
HETATM   13  C   UNL     1     -40.236  53.065 -54.679  1.00  0.00     0.038 A 
HETATM   14  C   UNL     1     -40.704  54.306 -55.127  1.00  0.00     0.020 A 
BRANCH  12  15
HETATM   15  O   UNL     1     -39.837  51.467 -53.031  1.00  0.00    -0.352 OA
BRANCH  15  16
HETATM   16  C   UNL     1     -39.224  51.299 -51.753  1.00  0.00     0.171 C 
HETATM   17  C   UNL     1     -39.721  49.992 -51.161  1.00  0.00     0.034 C 
ENDBRANCH  15  16
ENDBRANCH  12  15
ENDBRANCH   6   9
ENDBRANCH   3   5
ENDBRANCH   1   3
BRANCH   1  18
HETATM   18  C   UNL     1     -42.186  58.734 -58.247  1.00  0.00     0.050 A 
HETATM   19  C   UNL     1     -42.399  58.363 -59.588  1.00  0.00     0.058 A 
HETATM   20  C   UNL     1     -42.196  59.288 -60.624  1.00  0.00     0.019 A 
HETATM   21  C   UNL     1     -41.801  60.592 -60.331  1.00  0.00     0.001 A 
HETATM   22  C   UNL     1     -41.598  60.971 -59.008  1.00  0.00     0.002 A 
HETATM   23  C   UNL     1     -41.779  60.047 -57.973  1.00  0.00     0.030 A 
BRANCH  19  24
HETATM   24  C   UNL     1     -42.894  57.020 -59.984  1.00  0.00     0.253 C 
HETATM   25  N   UNL     1     -44.252  56.935 -60.221  1.00  0.00    -0.357 N 
HETATM   26  H   UNL     1     -44.779  57.802 -60.287  1.00  0.00     0.162 HD
HETATM   27  O   UNL     1     -42.116  56.085 -60.116  1.00  0.00    -0.268 OA
BRANCH  25  28
HETATM   28  C   UNL     1     -44.838  55.747 -60.814  1.00  0.00     0.125 C 
BRANCH  28  29
HETATM   29  C   UNL     1     -46.348  55.890 -60.975  1.00  0.00     0.046 C 
BRANCH  29  30
HETATM   30  C   UNL     1     -46.882  57.070 -60.177  1.00  0.00     0.165 C 
BRANCH  30  31
HETATM   31  O   UNL     1     -47.058  56.700 -58.816  1.00  0.00    -0.401 OA
HETATM   32  H   UNL     1     -47.240  57.509 -58.307  1.00  0.00     0.209 HD
ENDBRANCH  30  31
ENDBRANCH  29  30
ENDBRANCH  28  29
ENDBRANCH  25  28
ENDBRANCH  19  24
ENDBRANCH   1  18
TORSDOF 11
ENDMDL
MODEL 4
REMARK VINA RESULT:      -7.2      5.044      8.800
REMARK  11 active torsions:
REMARK  status: ('A' for Active; 'I' for Inactive)
REMARK    1  A    between atoms: C_2  and  O_3 
REMARK    2  A    between atoms: O_3  and  C_4 
REMARK    3  A    between atoms: C_7  and  C_8 
REMARK       I    between atoms: C_8  and  N_9 
REMARK    4  A    between atoms: N_9  and  C_10 
REMARK    5  A    between atoms: C_10  and  N_11 
REMARK    6  A    between atoms: N_11  and  C_12 
REMARK    7  A    between atoms: C_13  and  C_14 
REMARK       I    between atoms: C_14  and  N_15 
REMARK    8  A    between atoms: N_15  and  C_16 
REMARK    9  A    between atoms: C_16  and  C_17 
REMARK   10  A    between atoms: C_17  and  C_18 
REMARK   11  A    between atoms: C_18  and  O_19 
ROOT
HETATM    1  N   UNL     1     -43.460  59.354 -50.435  1.00  0.00    -0.332 N 
HETATM    2  H   UNL     1     -42.742  59.104 -49.760  1.00  0.00     0.168 HD
ENDROOT
BRANCH   1   3
HETATM    3  C   UNL     1     -43.774  58.325 -51.325  1.00  0.00     0.179 C 
HETATM    4  S   UNL     1     -44.790  58.481 -52.645  1.00  0.00    -0.040 SA
BRANCH   3   5
HETATM    5  N   UNL     1     -43.056  57.177 -50.968  1.00  0.00    -0.299 N 
HETATM    6  C   UNL     1     -41.675  57.022 -50.871  1.00  0.00     0.257 C 
HETATM    7  O   UNL     1     -40.883  57.897 -50.541  1.00  0.00    -0.267 OA
HETATM    8  H   UNL     1     -43.581  56.338 -51.168  1.00  0.00     0.171 HD
BRANCH   6   9
HETATM    9  C   UNL     1     -41.152  55.650 -51.112  1.00  0.00     0.032 A 
HETATM   10  C   UNL     1     -41.302  55.113 -52.396  1.00  0.00     0.020 A 
HETATM   11  C   UNL     1     -40.824  53.832 -52.692  1.00  0.00     0.038 A 
HETATM   12  C   UNL     1     -40.180  53.084 -51.708  1.00  0.00     0.068 A 
HETATM   13  C   UNL     1     -40.030  53.622 -50.426  1.00  0.00     0.038 A 
HETATM   14  C   UNL     1     -40.505  54.903 -50.124  1.00  0.00     0.020 A 
BRANCH  12  15
HETATM   15  O   UNL     1     -39.655  51.831 -51.868  1.00  0.00    -0.352 OA
BRANCH  15  16
HETATM   16  C   UNL     1     -39.525  51.353 -53.207  1.00  0.00     0.171 C 
HETATM   17  C   UNL     1     -39.662  49.841 -53.182  1.00  0.00     0.034 C 
ENDBRANCH  15  16
ENDBRANCH  12  15
ENDBRANCH   6   9
ENDBRANCH   3   5
ENDBRANCH   1   3
BRANCH   1  18
HETATM   18  C   UNL     1     -43.687  60.747 -50.588  1.00  0.00     0.050 A 
HETATM   19  C   UNL     1     -44.734  61.382 -49.895  1.00  0.00     0.058 A 
HETATM   20  C   UNL     1     -45.046  62.726 -50.151  1.00  0.00     0.019 A 
HETATM   21  C   UNL     1     -44.305  63.452 -51.081  1.00  0.00     0.001 A 
HETATM   22  C   UNL     1     -43.260  62.836 -51.763  1.00  0.00     0.002 A 
HETATM   23  C   UNL     1     -42.958  61.491 -51.527  1.00  0.00     0.030 A 
BRANCH  19  24
HETATM   24  C   UNL     1     -45.525  60.707 -48.834  1.00  0.00     0.253 C 
HETATM   25  N   UNL     1     -45.645  61.407 -47.649  1.00  0.00    -0.357 N 
HETATM   26  H   UNL     1     -45.353  62.380 -47.640  1.00  0.00     0.162 HD
HETATM   27  O   UNL     1     -46.048  59.621 -49.045  1.00  0.00    -0.268 OA
BRANCH  25  28
HETATM   28  C   UNL     1     -46.556  60.968 -46.608  1.00  0.00     0.125 C 
BRANCH  28  29
HETATM   29  C   UNL     1     -45.865  60.036 -45.618  1.00  0.00     0.046 C 
BRANCH  29  30
HETATM   30  C   UNL     1     -46.723  58.818 -45.310  1.00  0.00     0.165 C 
BRANCH  30  31
HETATM   31  O   UNL     1     -46.247  58.169 -44.139  1.00  0.00    -0.401 OA
HETATM   32  H   UNL     1     -45.297  58.359 -44.056  1.00  0.00     0.209 HD
ENDBRANCH  30  31
ENDBRANCH  29  30
ENDBRANCH  28  29
ENDBRANCH  25  28
ENDBRANCH  19  24
ENDBRANCH   1  18
TORSDOF 11
ENDMDL
MODEL 5
REMARK VINA RESULT:      -7.2      2.406      7.468
REMARK  11 active torsions:
REMARK  status: ('A' for Active; 'I' for Inactive)
REMARK    1  A    between atoms: C_2  and  O_3 
REMARK    2  A    between atoms: O_3  and  C_4 
REMARK    3  A    between atoms: C_7  and  C_8 
REMARK       I    between atoms: C_8  and  N_9 
REMARK    4  A    between atoms: N_9  and  C_10 
REMARK    5  A    between atoms: C_10  and  N_11 
REMARK    6  A    between atoms: N_11  and  C_12 
REMARK    7  A    between atoms: C_13  and  C_14 
REMARK       I    between atoms: C_14  and  N_15 
REMARK    8  A    between atoms: N_15  and  C_16 
REMARK    9  A    between atoms: C_16  and  C_17 
REMARK   10  A    between atoms: C_17  and  C_18 
REMARK   11  A    between atoms: C_18  and  O_19 
ROOT
HETATM    1  N   UNL     1     -44.812  57.371 -54.044  1.00  0.00    -0.332 N 
HETATM    2  H   UNL     1     -45.668  56.827 -54.117  1.00  0.00     0.168 HD
ENDROOT
BRANCH   1   3
HETATM    3  C   UNL     1     -44.077  57.107 -52.886  1.00  0.00     0.179 C 
HETATM    4  S   UNL     1     -44.438  57.710 -51.369  1.00  0.00    -0.040 SA
BRANCH   3   5
HETATM    5  N   UNL     1     -43.042  56.215 -53.195  1.00  0.00    -0.299 N 
HETATM    6  C   UNL     1     -43.141  54.946 -53.760  1.00  0.00     0.257 C 
HETATM    7  O   UNL     1     -43.995  54.591 -54.565  1.00  0.00    -0.267 OA
HETATM    8  H   UNL     1     -42.232  56.378 -52.615  1.00  0.00     0.171 HD
BRANCH   6   9
HETATM    9  C   UNL     1     -42.062  53.986 -53.407  1.00  0.00     0.032 A 
HETATM   10  C   UNL     1     -41.624  53.959 -52.077  1.00  0.00     0.020 A 
HETATM   11  C   UNL     1     -40.618  53.074 -51.677  1.00  0.00     0.038 A 
HETATM   12  C   UNL     1     -40.051  52.198 -52.601  1.00  0.00     0.068 A 
HETATM   13  C   UNL     1     -40.490  52.224 -53.929  1.00  0.00     0.038 A 
HETATM   14  C   UNL     1     -41.496  53.107 -54.336  1.00  0.00     0.020 A 
BRANCH  12  15
HETATM   15  O   UNL     1     -39.075  51.276 -52.339  1.00  0.00    -0.352 OA
BRANCH  15  16
HETATM   16  C   UNL     1     -39.500  49.929 -52.133  1.00  0.00     0.171 C 
HETATM   17  C   UNL     1     -39.765  49.742 -50.649  1.00  0.00     0.034 C 
ENDBRANCH  15  16
ENDBRANCH  12  15
ENDBRANCH   6   9
ENDBRANCH   3   5
ENDBRANCH   1   3
BRANCH   1  18
HETATM   18  C   UNL     1     -44.751  58.517 -54.880  1.00  0.00     0.050 A 
HETATM   19  C   UNL     1     -43.943  58.520 -56.032  1.00  0.00     0.058 A 
HETATM   20  C   UNL     1     -43.774  59.695 -56.781  1.00  0.00     0.019 A 
HETATM   21  C   UNL     1     -44.424  60.867 -56.401  1.00  0.00     0.001 A 
HETATM   22  C   UNL     1     -45.234  60.871 -55.269  1.00  0.00     0.002 A 
HETATM   23  C   UNL     1     -45.389  59.708 -54.507  1.00  0.00     0.030 A 
BRANCH  19  24
HETATM   24  C   UNL     1     -43.277  57.298 -56.553  1.00  0.00     0.253 C 
HETATM   25  N   UNL     1     -44.021  56.552 -57.445  1.00  0.00    -0.357 N 
HETATM   26  H   UNL     1     -44.872  56.965 -57.818  1.00  0.00     0.162 HD
HETATM   27  O   UNL     1     -42.132  57.025 -56.218  1.00  0.00    -0.268 OA
BRANCH  25  28
HETATM   28  C   UNL     1     -43.424  55.458 -58.189  1.00  0.00     0.125 C 
BRANCH  28  29
HETATM   29  C   UNL     1     -43.259  55.810 -59.664  1.00  0.00     0.046 C 
BRANCH  29  30
HETATM   30  C   UNL     1     -44.605  55.908 -60.366  1.00  0.00     0.165 C 
BRANCH  30  31
HETATM   31  O   UNL     1     -45.579  55.148 -59.662  1.00  0.00    -0.401 OA
HETATM   32  H   UNL     1     -45.649  54.279 -60.094  1.00  0.00     0.209 HD
ENDBRANCH  30  31
ENDBRANCH  29  30
ENDBRANCH  28  29
ENDBRANCH  25  28
ENDBRANCH  19  24
ENDBRANCH   1  18
TORSDOF 11
ENDMDL
MODEL 6
REMARK VINA RESULT:      -7.1      2.785      6.690
REMARK  11 active torsions:
REMARK  status: ('A' for Active; 'I' for Inactive)
REMARK    1  A    between atoms: C_2  and  O_3 
REMARK    2  A    between atoms: O_3  and  C_4 
REMARK    3  A    between atoms: C_7  and  C_8 
REMARK       I    between atoms: C_8  and  N_9 
REMARK    4  A    between atoms: N_9  and  C_10 
REMARK    5  A    between atoms: C_10  and  N_11 
REMARK    6  A    between atoms: N_11  and  C_12 
REMARK    7  A    between atoms: C_13  and  C_14 
REMARK       I    between atoms: C_14  and  N_15 
REMARK    8  A    between atoms: N_15  and  C_16 
REMARK    9  A    between atoms: C_16  and  C_17 
REMARK   10  A    between atoms: C_17  and  C_18 
REMARK   11  A    between atoms: C_18  and  O_19 
ROOT
HETATM    1  N   UNL     1     -43.697  57.022 -54.459  1.00  0.00    -0.332 N 
HETATM    2  H   UNL     1     -43.945  56.128 -54.043  1.00  0.00     0.168 HD
ENDROOT
BRANCH   1   3
HETATM    3  C   UNL     1     -42.733  56.924 -55.464  1.00  0.00     0.179 C 
HETATM    4  S   UNL     1     -42.536  58.023 -56.709  1.00  0.00    -0.040 SA
BRANCH   3   5
HETATM    5  N   UNL     1     -41.930  55.802 -55.219  1.00  0.00    -0.299 N 
HETATM    6  C   UNL     1     -42.330  54.479 -55.055  1.00  0.00     0.257 C 
HETATM    7  O   UNL     1     -43.293  53.954 -55.603  1.00  0.00    -0.267 OA
HETATM    8  H   UNL     1     -41.065  56.062 -54.767  1.00  0.00     0.171 HD
BRANCH   6   9
HETATM    9  C   UNL     1     -41.452  53.630 -54.206  1.00  0.00     0.032 A 
HETATM   10  C   UNL     1     -41.218  52.314 -54.624  1.00  0.00     0.020 A 
HETATM   11  C   UNL     1     -40.395  51.465 -53.877  1.00  0.00     0.038 A 
HETATM   12  C   UNL     1     -39.788  51.931 -52.712  1.00  0.00     0.068 A 
HETATM   13  C   UNL     1     -40.021  53.245 -52.295  1.00  0.00     0.038 A 
HETATM   14  C   UNL     1     -40.843  54.100 -53.039  1.00  0.00     0.020 A 
BRANCH  12  15
HETATM   15  O   UNL     1     -38.952  51.213 -51.900  1.00  0.00    -0.352 OA
BRANCH  15  16
HETATM   16  C   UNL     1     -39.490  50.031 -51.307  1.00  0.00     0.171 C 
HETATM   17  C   UNL     1     -40.275  50.439 -50.073  1.00  0.00     0.034 C 
ENDBRANCH  15  16
ENDBRANCH  12  15
ENDBRANCH   6   9
ENDBRANCH   3   5
ENDBRANCH   1   3
BRANCH   1  18
HETATM   18  C   UNL     1     -44.057  58.164 -53.696  1.00  0.00     0.050 A 
HETATM   19  C   UNL     1     -43.511  58.370 -52.415  1.00  0.00     0.058 A 
HETATM   20  C   UNL     1     -43.970  59.421 -51.606  1.00  0.00     0.019 A 
HETATM   21  C   UNL     1     -44.958  60.285 -52.073  1.00  0.00     0.001 A 
HETATM   22  C   UNL     1     -45.496  60.096 -53.343  1.00  0.00     0.002 A 
HETATM   23  C   UNL     1     -45.057  59.038 -54.146  1.00  0.00     0.030 A 
BRANCH  19  24
HETATM   24  C   UNL     1     -42.403  57.546 -51.869  1.00  0.00     0.253 C 
HETATM   25  N   UNL     1     -42.657  56.943 -50.653  1.00  0.00    -0.357 N 
HETATM   26  H   UNL     1     -43.613  56.950 -50.308  1.00  0.00     0.162 HD
HETATM   27  O   UNL     1     -41.364  57.405 -52.500  1.00  0.00    -0.268 OA
BRANCH  25  28
HETATM   28  C   UNL     1     -41.753  55.948 -50.105  1.00  0.00     0.125 C 
BRANCH  28  29
HETATM   29  C   UNL     1     -42.457  54.612 -49.892  1.00  0.00     0.046 C 
BRANCH  29  30
HETATM   30  C   UNL     1     -43.627  54.442 -50.849  1.00  0.00     0.165 C 
BRANCH  30  31
HETATM   31  O   UNL     1     -44.788  55.068 -50.318  1.00  0.00    -0.401 OA
HETATM   32  H   UNL     1     -44.711  55.068 -49.348  1.00  0.00     0.209 HD
ENDBRANCH  30  31
ENDBRANCH  29  30
ENDBRANCH  28  29
ENDBRANCH  25  28
ENDBRANCH  19  24
ENDBRANCH   1  18
TORSDOF 11
ENDMDL
MODEL 7
REMARK VINA RESULT:      -7.1      2.755      4.860
REMARK  11 active torsions:
REMARK  status: ('A' for Active; 'I' for Inactive)
REMARK    1  A    between atoms: C_2  and  O_3 
REMARK    2  A    between atoms: O_3  and  C_4 
REMARK    3  A    between atoms: C_7  and  C_8 
REMARK       I    between atoms: C_8  and  N_9 
REMARK    4  A    between atoms: N_9  and  C_10 
REMARK    5  A    between atoms: C_10  and  N_11 
REMARK    6  A    between atoms: N_11  and  C_12 
REMARK    7  A    between atoms: C_13  and  C_14 
REMARK       I    between atoms: C_14  and  N_15 
REMARK    8  A    between atoms: N_15  and  C_16 
REMARK    9  A    between atoms: C_16  and  C_17 
REMARK   10  A    between atoms: C_17  and  C_18 
REMARK   11  A    between atoms: C_18  and  O_19 
ROOT
HETATM    1  N   UNL     1     -40.649  57.313 -53.744  1.00  0.00    -0.332 N 
HETATM    2  H   UNL     1     -39.790  57.518 -53.239  1.00  0.00     0.168 HD
ENDROOT
BRANCH   1   3
HETATM    3  C   UNL     1     -41.482  58.422 -53.905  1.00  0.00     0.179 C 
HETATM    4  S   UNL     1     -41.660  59.653 -52.788  1.00  0.00    -0.040 SA
BRANCH   3   5
HETATM    5  N   UNL     1     -42.085  58.360 -55.169  1.00  0.00    -0.299 N 
HETATM    6  C   UNL     1     -43.337  57.846 -55.500  1.00  0.00     0.257 C 
HETATM    7  O   UNL     1     -44.326  57.863 -54.776  1.00  0.00    -0.267 OA
HETATM    8  H   UNL     1     -41.395  58.350 -55.905  1.00  0.00     0.171 HD
BRANCH   6   9
HETATM    9  C   UNL     1     -43.481  57.315 -56.881  1.00  0.00     0.032 A 
HETATM   10  C   UNL     1     -43.946  58.192 -57.870  1.00  0.00     0.020 A 
HETATM   11  C   UNL     1     -44.097  57.758 -59.191  1.00  0.00     0.038 A 
HETATM   12  C   UNL     1     -43.770  56.448 -59.537  1.00  0.00     0.068 A 
HETATM   13  C   UNL     1     -43.306  55.574 -58.550  1.00  0.00     0.038 A 
HETATM   14  C   UNL     1     -43.152  56.001 -57.226  1.00  0.00     0.020 A 
BRANCH  12  15
HETATM   15  O   UNL     1     -43.857  55.904 -60.789  1.00  0.00    -0.352 OA
BRANCH  15  16
HETATM   16  C   UNL     1     -44.939  55.003 -61.027  1.00  0.00     0.171 C 
HETATM   17  C   UNL     1     -46.234  55.791 -60.942  1.00  0.00     0.034 C 
ENDBRANCH  15  16
ENDBRANCH  12  15
ENDBRANCH   6   9
ENDBRANCH   3   5
ENDBRANCH   1   3
BRANCH   1  18
HETATM   18  C   UNL     1     -40.993  55.938 -53.817  1.00  0.00     0.050 A 
HETATM   19  C   UNL     1     -41.804  55.350 -52.827  1.00  0.00     0.058 A 
HETATM   20  C   UNL     1     -42.030  53.965 -52.821  1.00  0.00     0.019 A 
HETATM   21  C   UNL     1     -41.469  53.160 -53.811  1.00  0.00     0.001 A 
HETATM   22  C   UNL     1     -40.676  53.734 -54.799  1.00  0.00     0.002 A 
HETATM   23  C   UNL     1     -40.430  55.111 -54.798  1.00  0.00     0.030 A 
BRANCH  19  24
HETATM   24  C   UNL     1     -42.502  56.142 -51.782  1.00  0.00     0.253 C 
HETATM   25  N   UNL     1     -43.838  56.394 -52.024  1.00  0.00    -0.357 N 
HETATM   26  H   UNL     1     -44.289  55.887 -52.781  1.00  0.00     0.162 HD
HETATM   27  O   UNL     1     -41.909  56.498 -50.772  1.00  0.00    -0.268 OA
BRANCH  25  28
HETATM   28  C   UNL     1     -44.691  56.970 -51.000  1.00  0.00     0.125 C 
BRANCH  28  29
HETATM   29  C   UNL     1     -45.305  58.287 -51.460  1.00  0.00     0.046 C 
BRANCH  29  30
HETATM   30  C   UNL     1     -45.151  59.371 -50.404  1.00  0.00     0.165 C 
BRANCH  30  31
HETATM   31  O   UNL     1     -45.871  59.016 -49.231  1.00  0.00    -0.401 OA
HETATM   32  H   UNL     1     -46.673  59.564 -49.194  1.00  0.00     0.209 HD
ENDBRANCH  30  31
ENDBRANCH  29  30
ENDBRANCH  28  29
ENDBRANCH  25  28
ENDBRANCH  19  24
ENDBRANCH   1  18
TORSDOF 11
ENDMDL
MODEL 8
REMARK VINA RESULT:      -7.1      3.210      6.656
REMARK  11 active torsions:
REMARK  status: ('A' for Active; 'I' for Inactive)
REMARK    1  A    between atoms: C_2  and  O_3 
REMARK    2  A    between atoms: O_3  and  C_4 
REMARK    3  A    between atoms: C_7  and  C_8 
REMARK       I    between atoms: C_8  and  N_9 
REMARK    4  A    between atoms: N_9  and  C_10 
REMARK    5  A    between atoms: C_10  and  N_11 
REMARK    6  A    between atoms: N_11  and  C_12 
REMARK    7  A    between atoms: C_13  and  C_14 
REMARK       I    between atoms: C_14  and  N_15 
REMARK    8  A    between atoms: N_15  and  C_16 
REMARK    9  A    between atoms: C_16  and  C_17 
REMARK   10  A    between atoms: C_17  and  C_18 
REMARK   11  A    between atoms: C_18  and  O_19 
ROOT
HETATM    1  N   UNL     1     -40.514  54.438 -51.901  1.00  0.00    -0.332 N 
HETATM    2  H   UNL     1     -39.771  55.127 -52.000  1.00  0.00     0.168 HD
ENDROOT
BRANCH   1   3
HETATM    3  C   UNL     1     -41.299  54.621 -50.762  1.00  0.00     0.179 C 
HETATM    4  S   UNL     1     -40.992  53.933 -49.269  1.00  0.00    -0.040 SA
BRANCH   3   5
HETATM    5  N   UNL     1     -42.335  55.517 -51.060  1.00  0.00    -0.299 N 
HETATM    6  C   UNL     1     -42.249  56.745 -51.711  1.00  0.00     0.257 C 
HETATM    7  O   UNL     1     -41.443  57.029 -52.590  1.00  0.00    -0.267 OA
HETATM    8  H   UNL     1     -43.109  55.409 -50.421  1.00  0.00     0.171 HD
BRANCH   6   9
HETATM    9  C   UNL     1     -43.284  57.750 -51.351  1.00  0.00     0.032 A 
HETATM   10  C   UNL     1     -42.880  59.085 -51.228  1.00  0.00     0.020 A 
HETATM   11  C   UNL     1     -43.805  60.082 -50.900  1.00  0.00     0.038 A 
HETATM   12  C   UNL     1     -45.145  59.753 -50.708  1.00  0.00     0.068 A 
HETATM   13  C   UNL     1     -45.549  58.420 -50.832  1.00  0.00     0.038 A 
HETATM   14  C   UNL     1     -44.628  57.418 -51.159  1.00  0.00     0.020 A 
BRANCH  12  15
HETATM   15  O   UNL     1     -46.150  60.628 -50.400  1.00  0.00    -0.352 OA
BRANCH  15  16
HETATM   16  C   UNL     1     -45.800  61.754 -49.594  1.00  0.00     0.171 C 
HETATM   17  C   UNL     1     -45.708  61.289 -48.152  1.00  0.00     0.034 C 
ENDBRANCH  15  16
ENDBRANCH  12  15
ENDBRANCH   6   9
ENDBRANCH   3   5
ENDBRANCH   1   3
BRANCH   1  18
HETATM   18  C   UNL     1     -40.351  53.259 -52.675  1.00  0.00     0.050 A 
HETATM   19  C   UNL     1     -41.223  52.980 -53.745  1.00  0.00     0.058 A 
HETATM   20  C   UNL     1     -41.151  51.752 -54.421  1.00  0.00     0.019 A 
HETATM   21  C   UNL     1     -40.198  50.805 -54.052  1.00  0.00     0.001 A 
HETATM   22  C   UNL     1     -39.324  51.076 -53.003  1.00  0.00     0.002 A 
HETATM   23  C   UNL     1     -39.406  52.290 -52.312  1.00  0.00     0.030 A 
BRANCH  19  24
HETATM   24  C   UNL     1     -42.215  53.961 -54.254  1.00  0.00     0.253 C 
HETATM   25  N   UNL     1     -41.893  54.560 -55.456  1.00  0.00    -0.357 N 
HETATM   26  H   UNL     1     -41.118  54.173 -55.988  1.00  0.00     0.162 HD
HETATM   27  O   UNL     1     -43.252  54.171 -53.639  1.00  0.00    -0.268 OA
BRANCH  25  28
HETATM   28  C   UNL     1     -42.859  55.375 -56.171  1.00  0.00     0.125 C 
BRANCH  28  29
HETATM   29  C   UNL     1     -42.762  56.841 -55.764  1.00  0.00     0.046 C 
BRANCH  29  30
HETATM   30  C   UNL     1     -44.026  57.306 -55.056  1.00  0.00     0.165 C 
BRANCH  30  31
HETATM   31  O   UNL     1     -44.783  56.184 -54.621  1.00  0.00    -0.401 OA
HETATM   32  H   UNL     1     -45.683  56.492 -54.415  1.00  0.00     0.209 HD
ENDBRANCH  30  31
ENDBRANCH  29  30
ENDBRANCH  28  29
ENDBRANCH  25  28
ENDBRANCH  19  24
ENDBRANCH   1  18
TORSDOF 11
ENDMDL
MODEL 9
REMARK VINA RESULT:      -7.1      3.318      6.112
REMARK  11 active torsions:
REMARK  status: ('A' for Active; 'I' for Inactive)
REMARK    1  A    between atoms: C_2  and  O_3 
REMARK    2  A    between atoms: O_3  and  C_4 
REMARK    3  A    between atoms: C_7  and  C_8 
REMARK       I    between atoms: C_8  and  N_9 
REMARK    4  A    between atoms: N_9  and  C_10 
REMARK    5  A    between atoms: C_10  and  N_11 
REMARK    6  A    between atoms: N_11  and  C_12 
REMARK    7  A    between atoms: C_13  and  C_14 
REMARK       I    between atoms: C_14  and  N_15 
REMARK    8  A    between atoms: N_15  and  C_16 
REMARK    9  A    between atoms: C_16  and  C_17 
REMARK   10  A    between atoms: C_17  and  C_18 
REMARK   11  A    between atoms: C_18  and  O_19 
ROOT
HETATM    1  N   UNL     1     -41.508  59.554 -54.078  1.00  0.00    -0.332 N 
HETATM    2  H   UNL     1     -40.519  59.714 -54.252  1.00  0.00     0.168 HD
ENDROOT
BRANCH   1   3
HETATM    3  C   UNL     1     -42.185  58.998 -55.165  1.00  0.00     0.179 C 
HETATM    4  S   UNL     1     -42.923  59.876 -56.381  1.00  0.00    -0.040 SA
BRANCH   3   5
HETATM    5  N   UNL     1     -42.088  57.601 -55.098  1.00  0.00    -0.299 N 
HETATM    6  C   UNL     1     -42.418  56.767 -54.033  1.00  0.00     0.257 C 
HETATM    7  O   UNL     1     -43.313  56.971 -53.221  1.00  0.00    -0.267 OA
HETATM    8  H   UNL     1     -41.383  57.252 -55.731  1.00  0.00     0.171 HD
BRANCH   6   9
HETATM    9  C   UNL     1     -41.664  55.487 -53.946  1.00  0.00     0.032 A 
HETATM   10  C   UNL     1     -40.846  55.139 -55.028  1.00  0.00     0.020 A 
HETATM   11  C   UNL     1     -40.104  53.954 -55.006  1.00  0.00     0.038 A 
HETATM   12  C   UNL     1     -40.164  53.114 -53.895  1.00  0.00     0.068 A 
HETATM   13  C   UNL     1     -40.979  53.463 -52.815  1.00  0.00     0.038 A 
HETATM   14  C   UNL     1     -41.724  54.648 -52.830  1.00  0.00     0.020 A 
BRANCH  12  15
HETATM   15  O   UNL     1     -39.480  51.939 -53.740  1.00  0.00    -0.352 OA
BRANCH  15  16
HETATM   16  C   UNL     1     -40.257  50.741 -53.708  1.00  0.00     0.171 C 
HETATM   17  C   UNL     1     -39.747  49.821 -54.803  1.00  0.00     0.034 C 
ENDBRANCH  15  16
ENDBRANCH  12  15
ENDBRANCH   6   9
ENDBRANCH   3   5
ENDBRANCH   1   3
BRANCH   1  18
HETATM   18  C   UNL     1     -42.051  60.267 -52.977  1.00  0.00     0.050 A 
HETATM   19  C   UNL     1     -41.846  59.815 -51.660  1.00  0.00     0.058 A 
HETATM   20  C   UNL     1     -42.496  60.439 -50.584  1.00  0.00     0.019 A 
HETATM   21  C   UNL     1     -43.335  61.528 -50.809  1.00  0.00     0.001 A 
HETATM   22  C   UNL     1     -43.535  61.989 -52.106  1.00  0.00     0.002 A 
HETATM   23  C   UNL     1     -42.906  61.359 -53.185  1.00  0.00     0.030 A 
BRANCH  19  24
HETATM   24  C   UNL     1     -40.911  58.712 -51.323  1.00  0.00     0.253 C 
HETATM   25  N   UNL     1     -41.413  57.749 -50.470  1.00  0.00    -0.357 N 
HETATM   26  H   UNL     1     -42.412  57.756 -50.280  1.00  0.00     0.162 HD
HETATM   27  O   UNL     1     -39.791  58.675 -51.815  1.00  0.00    -0.268 OA
BRANCH  25  28
HETATM   28  C   UNL     1     -40.691  56.515 -50.222  1.00  0.00     0.125 C 
BRANCH  28  29
HETATM   29  C   UNL     1     -41.527  55.532 -49.411  1.00  0.00     0.046 C 
BRANCH  29  30
HETATM   30  C   UNL     1     -40.677  54.393 -48.869  1.00  0.00     0.165 C 
BRANCH  30  31
HETATM   31  O   UNL     1     -40.655  54.432 -47.448  1.00  0.00    -0.401 OA
HETATM   32  H   UNL     1     -40.717  53.517 -47.122  1.00  0.00     0.209 HD
ENDBRANCH  30  31
ENDBRANCH  29  30
ENDBRANCH  28  29
ENDBRANCH  25  28
ENDBRANCH  19  24
ENDBRANCH   1  18
TORSDOF 11
ENDMDL
MODEL 10
REMARK VINA RESULT:      -7.1      3.560      7.351
REMARK  11 active torsions:
REMARK  status: ('A' for Active; 'I' for Inactive)
REMARK    1  A    between atoms: C_2  and  O_3 
REMARK    2  A    between atoms: O_3  and  C_4 
REMARK    3  A    between atoms: C_7  and  C_8 
REMARK       I    between atoms: C_8  and  N_9 
REMARK    4  A    between atoms: N_9  and  C_10 
REMARK    5  A    between atoms: C_10  and  N_11 
REMARK    6  A    between atoms: N_11  and  C_12 
REMARK    7  A    between atoms: C_13  and  C_14 
REMARK       I    between atoms: C_14  and  N_15 
REMARK    8  A    between atoms: N_15  and  C_16 
REMARK    9  A    between atoms: C_16  and  C_17 
REMARK   10  A    between atoms: C_17  and  C_18 
REMARK   11  A    between atoms: C_18  and  O_19 
ROOT
HETATM    1  N   UNL     1     -42.689  58.823 -53.445  1.00  0.00    -0.332 N 
HETATM    2  H   UNL     1     -43.638  58.633 -53.130  1.00  0.00     0.168 HD
ENDROOT
BRANCH   1   3
HETATM    3  C   UNL     1     -42.457  58.463 -54.773  1.00  0.00     0.179 C 
HETATM    4  S   UNL     1     -42.455  59.525 -56.065  1.00  0.00    -0.040 SA
BRANCH   3   5
HETATM    5  N   UNL     1     -42.167  57.093 -54.831  1.00  0.00    -0.299 N 
HETATM    6  C   UNL     1     -42.612  56.084 -53.981  1.00  0.00     0.257 C 
HETATM    7  O   UNL     1     -43.696  56.062 -53.410  1.00  0.00    -0.267 OA
HETATM    8  H   UNL     1     -41.286  56.924 -55.294  1.00  0.00     0.171 HD
BRANCH   6   9
HETATM    9  C   UNL     1     -41.715  54.905 -53.838  1.00  0.00     0.032 A 
HETATM   10  C   UNL     1     -40.962  54.521 -54.954  1.00  0.00     0.020 A 
HETATM   11  C   UNL     1     -40.093  53.428 -54.885  1.00  0.00     0.038 A 
HETATM   12  C   UNL     1     -39.961  52.718 -53.693  1.00  0.00     0.068 A 
HETATM   13  C   UNL     1     -40.712  53.102 -52.578  1.00  0.00     0.038 A 
HETATM   14  C   UNL     1     -41.583  54.195 -52.641  1.00  0.00     0.020 A 
BRANCH  12  15
HETATM   15  O   UNL     1     -39.139  51.643 -53.486  1.00  0.00    -0.352 OA
BRANCH  15  16
HETATM   16  C   UNL     1     -39.771  50.395 -53.201  1.00  0.00     0.171 C 
HETATM   17  C   UNL     1     -40.184  49.765 -54.520  1.00  0.00     0.034 C 
ENDBRANCH  15  16
ENDBRANCH  12  15
ENDBRANCH   6   9
ENDBRANCH   3   5
ENDBRANCH   1   3
BRANCH   1  18
HETATM   18  C   UNL     1     -41.738  59.021 -52.410  1.00  0.00     0.050 A 
HETATM   19  C   UNL     1     -42.130  59.568 -51.173  1.00  0.00     0.058 A 
HETATM   20  C   UNL     1     -41.170  59.893 -50.202  1.00  0.00     0.019 A 
HETATM   21  C   UNL     1     -39.819  59.657 -50.446  1.00  0.00     0.001 A 
HETATM   22  C   UNL     1     -39.423  59.106 -51.661  1.00  0.00     0.002 A 
HETATM   23  C   UNL     1     -40.373  58.799 -52.641  1.00  0.00     0.030 A 
BRANCH  19  24
HETATM   24  C   UNL     1     -43.552  59.781 -50.800  1.00  0.00     0.253 C 
HETATM   25  N   UNL     1     -43.813  60.942 -50.099  1.00  0.00    -0.357 N 
HETATM   26  H   UNL     1     -43.077  61.640 -50.044  1.00  0.00     0.162 HD
HETATM   27  O   UNL     1     -44.410  58.977 -51.140  1.00  0.00    -0.268 OA
BRANCH  25  28
HETATM   28  C   UNL     1     -45.175  61.380 -49.854  1.00  0.00     0.125 C 
BRANCH  28  29
HETATM   29  C   UNL     1     -45.393  61.726 -48.385  1.00  0.00     0.046 C 
BRANCH  29  30
HETATM   30  C   UNL     1     -45.779  60.497 -47.576  1.00  0.00     0.165 C 
BRANCH  30  31
HETATM   31  O   UNL     1     -45.995  59.390 -48.442  1.00  0.00    -0.401 OA
HETATM   32  H   UNL     1     -45.167  58.884 -48.493  1.00  0.00     0.209 HD
ENDBRANCH  30  31
ENDBRANCH  29  30
ENDBRANCH  28  29
ENDBRANCH  25  28
ENDBRANCH  19  24
ENDBRANCH   1  18
TORSDOF 11
ENDMDL
