MODEL 1
REMARK VINA RESULT:      -8.4      0.000      0.000
REMARK  3 active torsions:
REMARK  status: ('A' for Active; 'I' for Inactive)
REMARK    1  A    between atoms: C_2  and  N_3 
REMARK    2  A    between atoms: C_2  and  C_10 
REMARK    3  A    between atoms: C_13  and  C_14 
ROOT
HETATM    1  C   UNL     1     -42.637  56.073 -56.050  1.00  0.00    -0.028 A 
HETATM    2  C   UNL     1     -41.483  56.444 -55.341  1.00  0.00     0.010 A 
HETATM    3  C   UNL     1     -40.904  55.575 -54.409  1.00  0.00     0.014 A 
HETATM    4  C   UNL     1     -41.451  54.310 -54.143  1.00  0.00    -0.006 A 
HETATM    5  C   UNL     1     -42.627  53.964 -54.826  1.00  0.00     0.014 A 
HETATM    6  C   UNL     1     -43.207  54.824 -55.767  1.00  0.00     0.010 A 
ENDROOT
BRANCH   4   7
HETATM    7  C   UNL     1     -40.812  53.412 -53.175  1.00  0.00     0.082 A 
HETATM    8  N   UNL     1     -40.564  53.907 -51.933  1.00  0.00    -0.240 NA
HETATM    9  C   UNL     1     -39.977  53.098 -51.028  1.00  0.00     0.236 A 
HETATM   10  N   UNL     1     -39.584  51.826 -51.193  1.00  0.00    -0.224 NA
HETATM   11  C   UNL     1     -39.828  51.388 -52.435  1.00  0.00     0.141 A 
HETATM   12  C   UNL     1     -40.420  52.095 -53.472  1.00  0.00     0.041 A 
HETATM   13  N   UNL     1     -39.516  50.136 -52.888  1.00  0.00    -0.350 N 
HETATM   14  C   UNL     1     -40.429  51.219 -54.598  1.00  0.00     0.034 A 
HETATM   15  C   UNL     1     -39.876  50.019 -54.205  1.00  0.00     0.091 A 
HETATM   16  H   UNL     1     -39.073  49.427 -52.320  1.00  0.00     0.166 HD
ENDBRANCH   4   7
BRANCH   1  17
HETATM   17  C   UNL     1     -43.227  57.035 -57.065  1.00  0.00     0.217 C 
HETATM   18  C   UNL     1     -42.208  57.970 -57.727  1.00  0.00     0.045 C 
BRANCH  17  19
HETATM   19  N   UNL     1     -44.091  56.315 -58.103  1.00  0.00    -0.063 N 
HETATM   20  H   UNL     1     -44.664  55.671 -57.540  1.00  0.00     0.280 HD
HETATM   21  C   UNL     1     -45.057  57.241 -58.807  1.00  0.00     0.235 C 
HETATM   22  C   UNL     1     -46.046  56.426 -59.630  1.00  0.00     0.028 C 
HETATM   23  C   UNL     1     -45.332  55.509 -60.615  1.00  0.00     0.003 C 
HETATM   24  C   UNL     1     -44.322  54.620 -59.900  1.00  0.00     0.028 C 
HETATM   25  C   UNL     1     -43.335  55.438 -59.076  1.00  0.00     0.235 C 
ENDBRANCH  17  19
ENDBRANCH   1  17
TORSDOF 3
ENDMDL
MODEL 2
REMARK VINA RESULT:      -8.4      3.453      5.475
REMARK  3 active torsions:
REMARK  status: ('A' for Active; 'I' for Inactive)
REMARK    1  A    between atoms: C_2  and  N_3 
REMARK    2  A    between atoms: C_2  and  C_10 
REMARK    3  A    between atoms: C_13  and  C_14 
ROOT
HETATM    1  C   UNL     1     -41.239  55.979 -53.881  1.00  0.00    -0.028 A 
HETATM    2  C   UNL     1     -41.556  55.240 -52.730  1.00  0.00     0.010 A 
HETATM    3  C   UNL     1     -41.195  53.892 -52.622  1.00  0.00     0.014 A 
HETATM    4  C   UNL     1     -40.511  53.228 -53.653  1.00  0.00    -0.006 A 
HETATM    5  C   UNL     1     -40.236  53.963 -54.816  1.00  0.00     0.014 A 
HETATM    6  C   UNL     1     -40.586  55.314 -54.928  1.00  0.00     0.010 A 
ENDROOT
BRANCH   4   7
HETATM    7  C   UNL     1     -40.128  51.820 -53.505  1.00  0.00     0.082 A 
HETATM    8  N   UNL     1     -39.920  51.105 -54.644  1.00  0.00    -0.240 NA
HETATM    9  C   UNL     1     -39.567  49.809 -54.529  1.00  0.00     0.236 A 
HETATM   10  N   UNL     1     -39.393  49.098 -53.404  1.00  0.00    -0.224 NA
HETATM   11  C   UNL     1     -39.630  49.835 -52.311  1.00  0.00     0.141 A 
HETATM   12  C   UNL     1     -39.999  51.173 -52.264  1.00  0.00     0.041 A 
HETATM   13  N   UNL     1     -39.545  49.365 -51.029  1.00  0.00    -0.350 N 
HETATM   14  C   UNL     1     -40.166  51.493 -50.884  1.00  0.00     0.034 A 
HETATM   15  C   UNL     1     -39.870  50.364 -50.148  1.00  0.00     0.091 A 
HETATM   16  H   UNL     1     -39.292  48.415 -50.795  1.00  0.00     0.166 HD
ENDBRANCH   4   7
BRANCH   1  17
HETATM   17  C   UNL     1     -41.633  57.444 -53.955  1.00  0.00     0.217 C 
HETATM   18  C   UNL     1     -42.962  57.713 -54.670  1.00  0.00     0.045 C 
BRANCH  17  19
HETATM   19  N   UNL     1     -41.581  58.121 -52.584  1.00  0.00    -0.063 N 
HETATM   20  H   UNL     1     -41.699  57.341 -51.921  1.00  0.00     0.280 HD
HETATM   21  C   UNL     1     -40.233  58.736 -52.284  1.00  0.00     0.235 C 
HETATM   22  C   UNL     1     -40.175  59.163 -50.823  1.00  0.00     0.028 C 
HETATM   23  C   UNL     1     -41.313  60.112 -50.472  1.00  0.00     0.003 C 
HETATM   24  C   UNL     1     -42.663  59.502 -50.830  1.00  0.00     0.028 C 
HETATM   25  C   UNL     1     -42.718  59.074 -52.291  1.00  0.00     0.235 C 
ENDBRANCH  17  19
ENDBRANCH   1  17
TORSDOF 3
ENDMDL
MODEL 3
REMARK VINA RESULT:      -8.4      1.426      1.886
REMARK  3 active torsions:
REMARK  status: ('A' for Active; 'I' for Inactive)
REMARK    1  A    between atoms: C_2  and  N_3 
REMARK    2  A    between atoms: C_2  and  C_10 
REMARK    3  A    between atoms: C_13  and  C_14 
ROOT
HETATM    1  C   UNL     1     -42.306  56.115 -54.991  1.00  0.00    -0.028 A 
HETATM    2  C   UNL     1     -40.949  55.760 -55.056  1.00  0.00     0.010 A 
HETATM    3  C   UNL     1     -40.447  54.705 -54.284  1.00  0.00     0.014 A 
HETATM    4  C   UNL     1     -41.272  53.967 -53.420  1.00  0.00    -0.006 A 
HETATM    5  C   UNL     1     -42.618  54.355 -53.331  1.00  0.00     0.014 A 
HETATM    6  C   UNL     1     -43.129  55.404 -54.106  1.00  0.00     0.010 A 
ENDROOT
BRANCH   4   7
HETATM    7  C   UNL     1     -40.723  52.854 -52.638  1.00  0.00     0.082 A 
HETATM    8  N   UNL     1     -40.620  53.026 -51.293  1.00  0.00    -0.240 NA
HETATM    9  C   UNL     1     -40.118  52.015 -50.557  1.00  0.00     0.236 A 
HETATM   10  N   UNL     1     -39.683  50.819 -50.985  1.00  0.00    -0.224 NA
HETATM   11  C   UNL     1     -39.784  50.704 -52.315  1.00  0.00     0.141 A 
HETATM   12  C   UNL     1     -40.275  51.648 -53.205  1.00  0.00     0.041 A 
HETATM   13  N   UNL     1     -39.399  49.599 -53.026  1.00  0.00    -0.350 N 
HETATM   14  C   UNL     1     -40.146  51.077 -54.506  1.00  0.00     0.034 A 
HETATM   15  C   UNL     1     -39.613  49.813 -54.363  1.00  0.00     0.091 A 
HETATM   16  H   UNL     1     -39.006  48.769 -52.604  1.00  0.00     0.166 HD
ENDBRANCH   4   7
BRANCH   1  17
HETATM   17  C   UNL     1     -42.818  57.254 -55.855  1.00  0.00     0.217 C 
HETATM   18  C   UNL     1     -42.447  58.654 -55.351  1.00  0.00     0.045 C 
BRANCH  17  19
HETATM   19  N   UNL     1     -42.448  57.067 -57.328  1.00  0.00    -0.063 N 
HETATM   20  H   UNL     1     -41.528  56.606 -57.293  1.00  0.00     0.280 HD
HETATM   21  C   UNL     1     -43.375  56.114 -58.049  1.00  0.00     0.235 C 
HETATM   22  C   UNL     1     -42.807  55.782 -59.422  1.00  0.00     0.028 C 
HETATM   23  C   UNL     1     -42.551  57.041 -60.241  1.00  0.00     0.003 C 
HETATM   24  C   UNL     1     -41.661  58.016 -59.481  1.00  0.00     0.028 C 
HETATM   25  C   UNL     1     -42.231  58.345 -58.106  1.00  0.00     0.235 C 
ENDBRANCH  17  19
ENDBRANCH   1  17
TORSDOF 3
ENDMDL
MODEL 4
REMARK VINA RESULT:      -8.4      0.902      2.021
REMARK  3 active torsions:
REMARK  status: ('A' for Active; 'I' for Inactive)
REMARK    1  A    between atoms: C_2  and  N_3 
REMARK    2  A    between atoms: C_2  and  C_10 
REMARK    3  A    between atoms: C_13  and  C_14 
ROOT
HETATM    1  C   UNL     1     -42.693  56.018 -56.226  1.00  0.00    -0.028 A 
HETATM    2  C   UNL     1     -41.550  56.388 -55.499  1.00  0.00     0.010 A 
HETATM    3  C   UNL     1     -40.935  55.486 -54.623  1.00  0.00     0.014 A 
HETATM    4  C   UNL     1     -41.433  54.187 -54.434  1.00  0.00    -0.006 A 
HETATM    5  C   UNL     1     -42.599  53.840 -55.134  1.00  0.00     0.014 A 
HETATM    6  C   UNL     1     -43.216  54.734 -56.018  1.00  0.00     0.010 A 
ENDROOT
BRANCH   4   7
HETATM    7  C   UNL     1     -40.757  53.256 -53.525  1.00  0.00     0.082 A 
HETATM    8  N   UNL     1     -40.087  52.212 -54.084  1.00  0.00    -0.240 NA
HETATM    9  C   UNL     1     -39.459  51.345 -53.265  1.00  0.00     0.236 A 
HETATM   10  N   UNL     1     -39.406  51.367 -51.924  1.00  0.00    -0.224 NA
HETATM   11  C   UNL     1     -40.096  52.398 -51.418  1.00  0.00     0.141 A 
HETATM   12  C   UNL     1     -40.791  53.369 -52.124  1.00  0.00     0.041 A 
HETATM   13  N   UNL     1     -40.227  52.657 -50.082  1.00  0.00    -0.350 N 
HETATM   14  C   UNL     1     -41.384  54.225 -51.148  1.00  0.00     0.034 A 
HETATM   15  C   UNL     1     -41.011  53.767 -49.902  1.00  0.00     0.091 A 
HETATM   16  H   UNL     1     -39.810  52.091 -49.355  1.00  0.00     0.166 HD
ENDBRANCH   4   7
BRANCH   1  17
HETATM   17  C   UNL     1     -43.324  57.019 -57.179  1.00  0.00     0.217 C 
HETATM   18  C   UNL     1     -42.339  58.013 -57.805  1.00  0.00     0.045 C 
BRANCH  17  19
HETATM   19  N   UNL     1     -44.187  56.333 -58.241  1.00  0.00    -0.063 N 
HETATM   20  H   UNL     1     -44.713  55.625 -57.709  1.00  0.00     0.280 HD
HETATM   21  C   UNL     1     -45.216  57.260 -58.848  1.00  0.00     0.235 C 
HETATM   22  C   UNL     1     -46.192  56.459 -59.700  1.00  0.00     0.028 C 
HETATM   23  C   UNL     1     -45.469  55.648 -60.767  1.00  0.00     0.003 C 
HETATM   24  C   UNL     1     -44.398  54.759 -60.147  1.00  0.00     0.028 C 
HETATM   25  C   UNL     1     -43.423  55.563 -59.294  1.00  0.00     0.235 C 
ENDBRANCH  17  19
ENDBRANCH   1  17
TORSDOF 3
ENDMDL
MODEL 5
REMARK VINA RESULT:      -8.1      2.248      3.507
REMARK  3 active torsions:
REMARK  status: ('A' for Active; 'I' for Inactive)
REMARK    1  A    between atoms: C_2  and  N_3 
REMARK    2  A    between atoms: C_2  and  C_10 
REMARK    3  A    between atoms: C_13  and  C_14 
ROOT
HETATM    1  C   UNL     1     -41.376  55.944 -53.921  1.00  0.00    -0.028 A 
HETATM    2  C   UNL     1     -41.955  55.102 -52.957  1.00  0.00     0.010 A 
HETATM    3  C   UNL     1     -41.561  53.764 -52.846  1.00  0.00     0.014 A 
HETATM    4  C   UNL     1     -40.581  53.212 -53.687  1.00  0.00    -0.006 A 
HETATM    5  C   UNL     1     -40.038  54.049 -54.673  1.00  0.00     0.014 A 
HETATM    6  C   UNL     1     -40.421  55.391 -54.786  1.00  0.00     0.010 A 
ENDROOT
BRANCH   4   7
HETATM    7  C   UNL     1     -40.174  51.811 -53.535  1.00  0.00     0.082 A 
HETATM    8  N   UNL     1     -39.954  51.097 -54.671  1.00  0.00    -0.240 NA
HETATM    9  C   UNL     1     -39.578  49.807 -54.552  1.00  0.00     0.236 A 
HETATM   10  N   UNL     1     -39.391  49.103 -53.425  1.00  0.00    -0.224 NA
HETATM   11  C   UNL     1     -39.639  49.840 -52.334  1.00  0.00     0.141 A 
HETATM   12  C   UNL     1     -40.032  51.171 -52.291  1.00  0.00     0.041 A 
HETATM   13  N   UNL     1     -39.545  49.376 -51.051  1.00  0.00    -0.350 N 
HETATM   14  C   UNL     1     -40.203  51.492 -50.912  1.00  0.00     0.034 A 
HETATM   15  C   UNL     1     -39.886  50.371 -50.173  1.00  0.00     0.091 A 
HETATM   16  H   UNL     1     -39.275  48.431 -50.813  1.00  0.00     0.166 HD
ENDBRANCH   4   7
BRANCH   1  17
HETATM   17  C   UNL     1     -41.818  57.394 -54.002  1.00  0.00     0.217 C 
HETATM   18  C   UNL     1     -40.816  58.400 -53.423  1.00  0.00     0.045 C 
BRANCH  17  19
HETATM   19  N   UNL     1     -42.256  57.782 -55.416  1.00  0.00    -0.063 N 
HETATM   20  H   UNL     1     -41.561  57.323 -56.022  1.00  0.00     0.280 HD
HETATM   21  C   UNL     1     -43.600  57.202 -55.793  1.00  0.00     0.235 C 
HETATM   22  C   UNL     1     -43.854  57.413 -57.280  1.00  0.00     0.028 C 
HETATM   23  C   UNL     1     -43.752  58.884 -57.662  1.00  0.00     0.003 C 
HETATM   24  C   UNL     1     -42.415  59.470 -57.227  1.00  0.00     0.028 C 
HETATM   25  C   UNL     1     -42.163  59.256 -55.739  1.00  0.00     0.235 C 
ENDBRANCH  17  19
ENDBRANCH   1  17
TORSDOF 3
ENDMDL
MODEL 6
REMARK VINA RESULT:      -8.0      1.400      7.610
REMARK  3 active torsions:
REMARK  status: ('A' for Active; 'I' for Inactive)
REMARK    1  A    between atoms: C_2  and  N_3 
REMARK    2  A    between atoms: C_2  and  C_10 
REMARK    3  A    between atoms: C_13  and  C_14 
ROOT
HETATM    1  C   UNL     1     -41.184  54.368 -53.257  1.00  0.00    -0.028 A 
HETATM    2  C   UNL     1     -40.621  55.356 -54.081  1.00  0.00     0.010 A 
HETATM    3  C   UNL     1     -41.421  56.100 -54.957  1.00  0.00     0.014 A 
HETATM    4  C   UNL     1     -42.806  55.887 -55.050  1.00  0.00    -0.006 A 
HETATM    5  C   UNL     1     -43.353  54.870 -54.253  1.00  0.00     0.014 A 
HETATM    6  C   UNL     1     -42.560  54.127 -53.368  1.00  0.00     0.010 A 
ENDROOT
BRANCH   4   7
HETATM    7  C   UNL     1     -43.622  56.694 -55.962  1.00  0.00     0.082 A 
HETATM    8  N   UNL     1     -44.488  57.583 -55.405  1.00  0.00    -0.240 NA
HETATM    9  C   UNL     1     -45.248  58.334 -56.227  1.00  0.00     0.236 A 
HETATM   10  N   UNL     1     -45.273  58.322 -57.569  1.00  0.00    -0.224 NA
HETATM   11  C   UNL     1     -44.421  57.418 -58.072  1.00  0.00     0.141 A 
HETATM   12  C   UNL     1     -43.578  56.575 -57.362  1.00  0.00     0.041 A 
HETATM   13  N   UNL     1     -44.250  57.178 -59.407  1.00  0.00    -0.350 N 
HETATM   14  C   UNL     1     -42.898  55.780 -58.333  1.00  0.00     0.034 A 
HETATM   15  C   UNL     1     -43.326  56.181 -59.582  1.00  0.00     0.091 A 
HETATM   16  H   UNL     1     -44.753  57.666 -60.136  1.00  0.00     0.166 HD
ENDBRANCH   4   7
BRANCH   1  17
HETATM   17  C   UNL     1     -40.287  53.593 -52.308  1.00  0.00     0.217 C 
HETATM   18  C   UNL     1     -40.556  53.852 -50.821  1.00  0.00     0.045 C 
BRANCH  17  19
HETATM   19  N   UNL     1     -40.272  52.096 -52.628  1.00  0.00    -0.063 N 
HETATM   20  H   UNL     1     -41.249  51.805 -52.484  1.00  0.00     0.280 HD
HETATM   21  C   UNL     1     -39.951  51.809 -54.077  1.00  0.00     0.235 C 
HETATM   22  C   UNL     1     -40.199  50.338 -54.379  1.00  0.00     0.028 C 
HETATM   23  C   UNL     1     -39.410  49.433 -53.441  1.00  0.00     0.003 C 
HETATM   24  C   UNL     1     -39.701  49.769 -51.984  1.00  0.00     0.028 C 
HETATM   25  C   UNL     1     -39.453  51.243 -51.685  1.00  0.00     0.235 C 
ENDBRANCH  17  19
ENDBRANCH   1  17
TORSDOF 3
ENDMDL
MODEL 7
REMARK VINA RESULT:      -7.9      1.502      8.009
REMARK  3 active torsions:
REMARK  status: ('A' for Active; 'I' for Inactive)
REMARK    1  A    between atoms: C_2  and  N_3 
REMARK    2  A    between atoms: C_2  and  C_10 
REMARK    3  A    between atoms: C_13  and  C_14 
ROOT
HETATM    1  C   UNL     1     -41.700  54.140 -54.275  1.00  0.00    -0.028 A 
HETATM    2  C   UNL     1     -42.767  53.768 -55.109  1.00  0.00     0.010 A 
HETATM    3  C   UNL     1     -43.216  54.624 -56.122  1.00  0.00     0.014 A 
HETATM    4  C   UNL     1     -42.627  55.879 -56.341  1.00  0.00    -0.006 A 
HETATM    5  C   UNL     1     -41.589  56.259 -55.477  1.00  0.00     0.014 A 
HETATM    6  C   UNL     1     -41.128  55.405 -54.467  1.00  0.00     0.010 A 
ENDROOT
BRANCH   4   7
HETATM    7  C   UNL     1     -43.106  56.747 -57.422  1.00  0.00     0.082 A 
HETATM    8  N   UNL     1     -43.050  58.091 -57.216  1.00  0.00    -0.240 NA
HETATM    9  C   UNL     1     -43.486  58.905 -58.198  1.00  0.00     0.236 A 
HETATM   10  N   UNL     1     -43.991  58.561 -59.393  1.00  0.00    -0.224 NA
HETATM   11  C   UNL     1     -44.047  57.231 -59.542  1.00  0.00     0.141 A 
HETATM   12  C   UNL     1     -43.641  56.266 -58.630  1.00  0.00     0.041 A 
HETATM   13  N   UNL     1     -44.533  56.598 -60.653  1.00  0.00    -0.350 N 
HETATM   14  C   UNL     1     -43.931  55.004 -59.228  1.00  0.00     0.034 A 
HETATM   15  C   UNL     1     -44.470  55.240 -60.476  1.00  0.00     0.091 A 
HETATM   16  H   UNL     1     -44.893  57.083 -61.464  1.00  0.00     0.166 HD
ENDBRANCH   4   7
BRANCH   1  17
HETATM   17  C   UNL     1     -41.229  53.179 -53.198  1.00  0.00     0.217 C 
HETATM   18  C   UNL     1     -40.033  52.308 -53.598  1.00  0.00     0.045 C 
BRANCH  17  19
HETATM   19  N   UNL     1     -40.992  53.887 -51.862  1.00  0.00    -0.063 N 
HETATM   20  H   UNL     1     -40.625  54.810 -52.136  1.00  0.00     0.280 HD
HETATM   21  C   UNL     1     -42.272  54.146 -51.100  1.00  0.00     0.235 C 
HETATM   22  C   UNL     1     -41.992  55.066 -49.919  1.00  0.00     0.028 C 
HETATM   23  C   UNL     1     -40.906  54.498 -49.013  1.00  0.00     0.003 C 
HETATM   24  C   UNL     1     -39.641  54.191 -49.804  1.00  0.00     0.028 C 
HETATM   25  C   UNL     1     -39.924  53.271 -50.986  1.00  0.00     0.235 C 
ENDBRANCH  17  19
ENDBRANCH   1  17
TORSDOF 3
ENDMDL
MODEL 8
REMARK VINA RESULT:      -7.8      1.582      7.926
REMARK  3 active torsions:
REMARK  status: ('A' for Active; 'I' for Inactive)
REMARK    1  A    between atoms: C_2  and  N_3 
REMARK    2  A    between atoms: C_2  and  C_10 
REMARK    3  A    between atoms: C_13  and  C_14 
ROOT
HETATM    1  C   UNL     1     -41.192  54.215 -53.426  1.00  0.00    -0.028 A 
HETATM    2  C   UNL     1     -40.563  55.189 -54.219  1.00  0.00     0.010 A 
HETATM    3  C   UNL     1     -41.279  55.886 -55.200  1.00  0.00     0.014 A 
HETATM    4  C   UNL     1     -42.642  55.641 -55.431  1.00  0.00    -0.006 A 
HETATM    5  C   UNL     1     -43.252  54.638 -54.661  1.00  0.00     0.014 A 
HETATM    6  C   UNL     1     -42.544  53.942 -53.673  1.00  0.00     0.010 A 
ENDROOT
BRANCH   4   7
HETATM    7  C   UNL     1     -43.371  56.401 -56.451  1.00  0.00     0.082 A 
HETATM    8  N   UNL     1     -43.296  55.956 -57.734  1.00  0.00    -0.240 NA
HETATM    9  C   UNL     1     -43.960  56.642 -58.687  1.00  0.00     0.236 A 
HETATM   10  N   UNL     1     -44.707  57.746 -58.539  1.00  0.00    -0.224 NA
HETATM   11  C   UNL     1     -44.735  58.159 -57.265  1.00  0.00     0.141 A 
HETATM   12  C   UNL     1     -44.108  57.567 -56.178  1.00  0.00     0.041 A 
HETATM   13  N   UNL     1     -45.405  59.268 -56.827  1.00  0.00    -0.350 N 
HETATM   14  C   UNL     1     -44.405  58.388 -55.050  1.00  0.00     0.034 A 
HETATM   15  C   UNL     1     -45.212  59.421 -55.479  1.00  0.00     0.091 A 
HETATM   16  H   UNL     1     -45.943  59.874 -57.431  1.00  0.00     0.166 HD
ENDBRANCH   4   7
BRANCH   1  17
HETATM   17  C   UNL     1     -40.387  53.490 -52.362  1.00  0.00     0.217 C 
HETATM   18  C   UNL     1     -40.819  53.787 -50.922  1.00  0.00     0.045 C 
BRANCH  17  19
HETATM   19  N   UNL     1     -40.307  51.985 -52.630  1.00  0.00    -0.063 N 
HETATM   20  H   UNL     1     -41.275  51.661 -52.498  1.00  0.00     0.280 HD
HETATM   21  C   UNL     1     -39.941  51.663 -54.062  1.00  0.00     0.235 C 
HETATM   22  C   UNL     1     -40.126  50.174 -54.318  1.00  0.00     0.028 C 
HETATM   23  C   UNL     1     -39.324  49.333 -53.334  1.00  0.00     0.003 C 
HETATM   24  C   UNL     1     -39.662  49.706 -51.895  1.00  0.00     0.028 C 
HETATM   25  C   UNL     1     -39.478  51.197 -51.642  1.00  0.00     0.235 C 
ENDBRANCH  17  19
ENDBRANCH   1  17
TORSDOF 3
ENDMDL
MODEL 9
REMARK VINA RESULT:      -7.7      3.984      5.049
REMARK  3 active torsions:
REMARK  status: ('A' for Active; 'I' for Inactive)
REMARK    1  A    between atoms: C_2  and  N_3 
REMARK    2  A    between atoms: C_2  and  C_10 
REMARK    3  A    between atoms: C_13  and  C_14 
ROOT
HETATM    1  C   UNL     1     -41.288  56.208 -51.805  1.00  0.00    -0.028 A 
HETATM    2  C   UNL     1     -40.995  55.217 -50.854  1.00  0.00     0.010 A 
HETATM    3  C   UNL     1     -40.663  53.917 -51.253  1.00  0.00     0.014 A 
HETATM    4  C   UNL     1     -40.615  53.552 -52.608  1.00  0.00    -0.006 A 
HETATM    5  C   UNL     1     -40.950  54.537 -53.550  1.00  0.00     0.014 A 
HETATM    6  C   UNL     1     -41.274  55.843 -53.158  1.00  0.00     0.010 A 
ENDROOT
BRANCH   4   7
HETATM    7  C   UNL     1     -40.246  52.187 -52.998  1.00  0.00     0.082 A 
HETATM    8  N   UNL     1     -40.199  51.908 -54.328  1.00  0.00    -0.240 NA
HETATM    9  C   UNL     1     -39.862  50.659 -54.707  1.00  0.00     0.236 A 
HETATM   10  N   UNL     1     -39.560  49.612 -53.923  1.00  0.00    -0.224 NA
HETATM   11  C   UNL     1     -39.640  49.927 -52.624  1.00  0.00     0.141 A 
HETATM   12  C   UNL     1     -39.972  51.160 -52.078  1.00  0.00     0.041 A 
HETATM   13  N   UNL     1     -39.402  49.051 -51.600  1.00  0.00    -0.350 N 
HETATM   14  C   UNL     1     -39.954  50.987 -50.662  1.00  0.00     0.034 A 
HETATM   15  C   UNL     1     -39.591  49.683 -50.399  1.00  0.00     0.091 A 
HETATM   16  H   UNL     1     -39.141  48.084 -51.737  1.00  0.00     0.166 HD
ENDBRANCH   4   7
BRANCH   1  17
HETATM   17  C   UNL     1     -41.628  57.611 -51.336  1.00  0.00     0.217 C 
HETATM   18  C   UNL     1     -40.459  58.372 -50.699  1.00  0.00     0.045 C 
BRANCH  17  19
HETATM   19  N   UNL     1     -42.307  58.434 -52.433  1.00  0.00    -0.063 N 
HETATM   20  H   UNL     1     -42.121  57.897 -53.292  1.00  0.00     0.280 HD
HETATM   21  C   UNL     1     -43.811  58.487 -52.281  1.00  0.00     0.235 C 
HETATM   22  C   UNL     1     -44.434  59.098 -53.529  1.00  0.00     0.028 C 
HETATM   23  C   UNL     1     -43.853  60.475 -53.827  1.00  0.00     0.003 C 
HETATM   24  C   UNL     1     -42.333  60.417 -53.924  1.00  0.00     0.028 C 
HETATM   25  C   UNL     1     -41.712  59.803 -52.675  1.00  0.00     0.235 C 
ENDBRANCH  17  19
ENDBRANCH   1  17
TORSDOF 3
ENDMDL
MODEL 10
REMARK VINA RESULT:      -7.5      2.798      8.037
REMARK  3 active torsions:
REMARK  status: ('A' for Active; 'I' for Inactive)
REMARK    1  A    between atoms: C_2  and  N_3 
REMARK    2  A    between atoms: C_2  and  C_10 
REMARK    3  A    between atoms: C_13  and  C_14 
ROOT
HETATM    1  C   UNL     1     -41.116  54.318 -52.222  1.00  0.00    -0.028 A 
HETATM    2  C   UNL     1     -42.478  54.039 -52.419  1.00  0.00     0.010 A 
HETATM    3  C   UNL     1     -43.310  54.956 -53.071  1.00  0.00     0.014 A 
HETATM    4  C   UNL     1     -42.823  56.184 -53.547  1.00  0.00    -0.006 A 
HETATM    5  C   UNL     1     -41.470  56.472 -53.309  1.00  0.00     0.014 A 
HETATM    6  C   UNL     1     -40.629  55.555 -52.665  1.00  0.00     0.010 A 
ENDROOT
BRANCH   4   7
HETATM    7  C   UNL     1     -43.714  57.118 -54.244  1.00  0.00     0.082 A 
HETATM    8  N   UNL     1     -43.861  56.956 -55.586  1.00  0.00    -0.240 NA
HETATM    9  C   UNL     1     -44.675  57.805 -56.245  1.00  0.00     0.236 A 
HETATM   10  N   UNL     1     -45.382  58.828 -55.742  1.00  0.00    -0.224 NA
HETATM   11  C   UNL     1     -45.190  58.962 -54.423  1.00  0.00     0.141 A 
HETATM   12  C   UNL     1     -44.388  58.174 -53.608  1.00  0.00     0.041 A 
HETATM   13  N   UNL     1     -45.771  59.931 -53.652  1.00  0.00    -0.350 N 
HETATM   14  C   UNL     1     -44.484  58.730 -52.298  1.00  0.00     0.034 A 
HETATM   15  C   UNL     1     -45.349  59.802 -52.354  1.00  0.00     0.091 A 
HETATM   16  H   UNL     1     -46.402  60.633 -54.013  1.00  0.00     0.166 HD
ENDBRANCH   4   7
BRANCH   1  17
HETATM   17  C   UNL     1     -40.240  53.292 -51.525  1.00  0.00     0.217 C 
HETATM   18  C   UNL     1     -40.527  53.118 -50.029  1.00  0.00     0.045 C 
BRANCH  17  19
HETATM   19  N   UNL     1     -40.236  51.949 -52.259  1.00  0.00    -0.063 N 
HETATM   20  H   UNL     1     -41.214  51.633 -52.197  1.00  0.00     0.280 HD
HETATM   21  C   UNL     1     -39.926  52.088 -53.733  1.00  0.00     0.235 C 
HETATM   22  C   UNL     1     -40.185  50.764 -54.441  1.00  0.00     0.028 C 
HETATM   23  C   UNL     1     -39.395  49.627 -53.807  1.00  0.00     0.003 C 
HETATM   24  C   UNL     1     -39.674  49.533 -52.313  1.00  0.00     0.028 C 
HETATM   25  C   UNL     1     -39.416  50.859 -51.607  1.00  0.00     0.235 C 
ENDBRANCH  17  19
ENDBRANCH   1  17
TORSDOF 3
ENDMDL
