MODEL 1
REMARK VINA RESULT:      -8.5      0.000      0.000
REMARK  7 active torsions:
REMARK  status: ('A' for Active; 'I' for Inactive)
REMARK    1  A    between atoms: C_2  and  C_3 
REMARK    2  A    between atoms: C_3  and  N_4 
REMARK    3  A    between atoms: N_4  and  C_7 
REMARK    4  A    between atoms: C_12  and  N_13 
REMARK       I    between atoms: N_13  and  C_14 
REMARK    5  A    between atoms: C_14  and  C_16 
REMARK    6  A    between atoms: C_20  and  C_22 
REMARK       I    between atoms: N_26  and  C_27 
REMARK       I    between atoms: C_27  and  N_29 
REMARK    7  A    between atoms: N_29  and  C_30 
ROOT
HETATM    1  C   UNL     1     -49.524  62.347 -53.447  1.00  0.00     0.037 A 
HETATM    2  C   UNL     1     -49.912  63.010 -52.284  1.00  0.00     0.029 A 
HETATM    3  C   UNL     1     -51.268  63.143 -51.967  1.00  0.00     0.004 A 
HETATM    4  C   UNL     1     -52.244  62.605 -52.808  1.00  0.00     0.023 A 
HETATM    5  C   UNL     1     -51.863  61.928 -53.967  1.00  0.00     0.046 A 
HETATM    6  C   UNL     1     -50.505  61.804 -54.285  1.00  0.00     0.052 A 
HETATM    7  C   UNL     1     -52.844  61.324 -54.819  1.00  0.00     0.099 C 
HETATM    8  N   UNL     1     -53.609  60.784 -55.505  1.00  0.00    -0.191 NA
ENDROOT
BRANCH   1   9
HETATM    9  N   UNL     1     -48.188  62.137 -53.820  1.00  0.00    -0.309 N 
HETATM   10  C   UNL     1     -47.570  62.441 -55.008  1.00  0.00     0.323 C 
HETATM   11  N   UNL     1     -46.187  62.256 -54.971  1.00  0.00    -0.325 N 
HETATM   12  O   UNL     1     -48.160  62.777 -56.030  1.00  0.00    -0.247 OA
HETATM   13  C   UNL     1     -45.316  62.649 -53.850  1.00  0.00     0.122 C 
HETATM   14  C   UNL     1     -45.443  62.337 -56.224  1.00  0.00     0.128 C 
HETATM   15  C   UNL     1     -43.901  62.463 -54.407  1.00  0.00     0.032 C 
HETATM   16  C   UNL     1     -44.070  62.887 -55.858  1.00  0.00     0.022 C 
HETATM   17  H   UNL     1     -47.676  61.471 -53.267  1.00  0.00     0.170 HD
BRANCH  13  18
HETATM   18  C   UNL     1     -45.532  61.926 -52.539  1.00  0.00    -0.034 A 
HETATM   19  C   UNL     1     -46.203  62.507 -51.452  1.00  0.00     0.009 A 
HETATM   20  C   UNL     1     -46.298  61.830 -50.230  1.00  0.00     0.002 A 
HETATM   21  C   UNL     1     -45.723  60.567 -50.072  1.00  0.00     0.017 A 
HETATM   22  C   UNL     1     -45.060  59.973 -51.147  1.00  0.00     0.033 A 
HETATM   23  C   UNL     1     -44.980  60.645 -52.374  1.00  0.00     0.026 A 
BRANCH  22  24
HETATM   24  C   UNL     1     -44.427  58.633 -51.058  1.00  0.00     0.257 C 
HETATM   25  N   UNL     1     -43.058  58.620 -51.211  1.00  0.00    -0.301 N 
HETATM   26  H   UNL     1     -42.538  59.462 -51.404  1.00  0.00     0.171 HD
HETATM   27  O   UNL     1     -45.167  57.667 -50.924  1.00  0.00    -0.267 OA
BRANCH  25  28
HETATM   28  C   UNL     1     -42.372  57.437 -51.274  1.00  0.00     0.174 A 
HETATM   29  N   UNL     1     -41.853  56.733 -50.300  1.00  0.00    -0.228 NA
HETATM   30  C   UNL     1     -41.291  55.591 -50.800  1.00  0.00     0.050 A 
HETATM   31  C   UNL     1     -40.663  54.593 -49.895  1.00  0.00     0.062 C 
HETATM   32  C   UNL     1     -41.402  55.430 -52.164  1.00  0.00     0.013 A 
HETATM   33  C   UNL     1     -39.831  53.573 -50.691  1.00  0.00     0.039 C 
HETATM   34  C   UNL     1     -40.583  53.093 -51.951  1.00  0.00     0.191 C 
HETATM   35  C   UNL     1     -40.880  54.267 -52.930  1.00  0.00     0.081 C 
HETATM   36  S   UNL     1     -42.200  56.775 -52.847  1.00  0.00    -0.055 SA
BRANCH  34  37
HETATM   37  N   UNL     1     -39.760  52.047 -52.672  1.00  0.00    -0.071 N 
HETATM   38  H   UNL     1     -39.791  51.161 -52.147  1.00  0.00     0.277 HD
HETATM   39  H   UNL     1     -38.772  52.339 -52.665  1.00  0.00     0.277 HD
BRANCH  37  40
HETATM   40  C   UNL     1     -40.147  51.791 -54.100  1.00  0.00     0.232 C 
BRANCH  40  41
HETATM   41  C   UNL     1     -39.981  50.308 -54.400  1.00  0.00     0.023 C 
HETATM   42  C   UNL     1     -39.634  49.531 -53.139  1.00  0.00     0.007 C 
ENDBRANCH  40  41
ENDBRANCH  37  40
ENDBRANCH  34  37
ENDBRANCH  25  28
ENDBRANCH  22  24
ENDBRANCH  13  18
ENDBRANCH   1   9
TORSDOF 7
ENDMDL
MODEL 2
REMARK VINA RESULT:      -8.4      4.652      7.231
REMARK  7 active torsions:
REMARK  status: ('A' for Active; 'I' for Inactive)
REMARK    1  A    between atoms: C_2  and  C_3 
REMARK    2  A    between atoms: C_3  and  N_4 
REMARK    3  A    between atoms: N_4  and  C_7 
REMARK    4  A    between atoms: C_12  and  N_13 
REMARK       I    between atoms: N_13  and  C_14 
REMARK    5  A    between atoms: C_14  and  C_16 
REMARK    6  A    between atoms: C_20  and  C_22 
REMARK       I    between atoms: N_26  and  C_27 
REMARK       I    between atoms: C_27  and  N_29 
REMARK    7  A    between atoms: N_29  and  C_30 
ROOT
HETATM    1  C   UNL     1     -43.256  61.214 -56.432  1.00  0.00     0.037 A 
HETATM    2  C   UNL     1     -44.287  61.763 -55.671  1.00  0.00     0.029 A 
HETATM    3  C   UNL     1     -44.335  61.548 -54.290  1.00  0.00     0.004 A 
HETATM    4  C   UNL     1     -43.345  60.789 -53.660  1.00  0.00     0.023 A 
HETATM    5  C   UNL     1     -42.304  60.248 -54.414  1.00  0.00     0.046 A 
HETATM    6  C   UNL     1     -42.264  60.459 -55.797  1.00  0.00     0.052 A 
HETATM    7  C   UNL     1     -41.250  59.509 -53.784  1.00  0.00     0.099 C 
HETATM    8  N   UNL     1     -40.358  58.946 -53.299  1.00  0.00    -0.191 NA
ENDROOT
BRANCH   1   9
HETATM    9  N   UNL     1     -43.113  61.412 -57.814  1.00  0.00    -0.309 N 
HETATM   10  C   UNL     1     -42.392  62.376 -58.474  1.00  0.00     0.323 C 
HETATM   11  N   UNL     1     -42.329  62.167 -59.852  1.00  0.00    -0.325 N 
HETATM   12  O   UNL     1     -41.904  63.365 -57.937  1.00  0.00    -0.247 OA
HETATM   13  C   UNL     1     -42.104  60.861 -60.495  1.00  0.00     0.122 C 
HETATM   14  C   UNL     1     -41.779  63.229 -60.690  1.00  0.00     0.128 C 
HETATM   15  C   UNL     1     -41.874  61.215 -61.968  1.00  0.00     0.032 C 
HETATM   16  C   UNL     1     -41.111  62.527 -61.866  1.00  0.00     0.022 C 
HETATM   17  H   UNL     1     -43.800  60.964 -58.396  1.00  0.00     0.170 HD
BRANCH  13  18
HETATM   18  C   UNL     1     -43.181  59.817 -60.303  1.00  0.00    -0.034 A 
HETATM   19  C   UNL     1     -44.442  59.904 -60.910  1.00  0.00     0.009 A 
HETATM   20  C   UNL     1     -45.435  58.958 -60.630  1.00  0.00     0.002 A 
HETATM   21  C   UNL     1     -45.188  57.913 -59.736  1.00  0.00     0.017 A 
HETATM   22  C   UNL     1     -43.935  57.809 -59.130  1.00  0.00     0.033 A 
HETATM   23  C   UNL     1     -42.937  58.747 -59.426  1.00  0.00     0.026 A 
BRANCH  22  24
HETATM   24  C   UNL     1     -43.595  56.726 -58.173  1.00  0.00     0.257 C 
HETATM   25  N   UNL     1     -43.194  57.151 -56.925  1.00  0.00    -0.301 N 
HETATM   26  H   UNL     1     -43.108  58.130 -56.701  1.00  0.00     0.171 HD
HETATM   27  O   UNL     1     -43.636  55.574 -58.585  1.00  0.00    -0.267 OA
BRANCH  25  28
HETATM   28  C   UNL     1     -42.734  56.258 -55.995  1.00  0.00     0.174 A 
HETATM   29  N   UNL     1     -41.755  55.394 -56.096  1.00  0.00    -0.228 NA
HETATM   30  C   UNL     1     -41.601  54.726 -54.913  1.00  0.00     0.050 A 
HETATM   31  C   UNL     1     -40.528  53.710 -54.748  1.00  0.00     0.062 C 
HETATM   32  C   UNL     1     -42.467  55.101 -53.909  1.00  0.00     0.013 A 
HETATM   33  C   UNL     1     -40.749  52.878 -53.474  1.00  0.00     0.039 C 
HETATM   34  C   UNL     1     -41.146  53.770 -52.278  1.00  0.00     0.191 C 
HETATM   35  C   UNL     1     -42.483  54.524 -52.538  1.00  0.00     0.081 C 
HETATM   36  S   UNL     1     -43.536  56.303 -54.480  1.00  0.00    -0.055 SA
BRANCH  34  37
HETATM   37  N   UNL     1     -41.293  52.922 -51.032  1.00  0.00    -0.071 N 
HETATM   38  H   UNL     1     -41.581  51.969 -51.295  1.00  0.00     0.277 HD
HETATM   39  H   UNL     1     -42.065  53.299 -50.465  1.00  0.00     0.277 HD
BRANCH  37  40
HETATM   40  C   UNL     1     -40.078  52.849 -50.153  1.00  0.00     0.232 C 
BRANCH  40  41
HETATM   41  C   UNL     1     -39.787  54.234 -49.592  1.00  0.00     0.023 C 
HETATM   42  C   UNL     1     -40.940  54.726 -48.730  1.00  0.00     0.007 C 
ENDBRANCH  40  41
ENDBRANCH  37  40
ENDBRANCH  34  37
ENDBRANCH  25  28
ENDBRANCH  22  24
ENDBRANCH  13  18
ENDBRANCH   1   9
TORSDOF 7
ENDMDL
MODEL 3
REMARK VINA RESULT:      -8.4      4.552      6.154
REMARK  7 active torsions:
REMARK  status: ('A' for Active; 'I' for Inactive)
REMARK    1  A    between atoms: C_2  and  C_3 
REMARK    2  A    between atoms: C_3  and  N_4 
REMARK    3  A    between atoms: N_4  and  C_7 
REMARK    4  A    between atoms: C_12  and  N_13 
REMARK       I    between atoms: N_13  and  C_14 
REMARK    5  A    between atoms: C_14  and  C_16 
REMARK    6  A    between atoms: C_20  and  C_22 
REMARK       I    between atoms: N_26  and  C_27 
REMARK       I    between atoms: C_27  and  N_29 
REMARK    7  A    between atoms: N_29  and  C_30 
ROOT
HETATM    1  C   UNL     1     -44.605  58.927 -59.666  1.00  0.00     0.037 A 
HETATM    2  C   UNL     1     -45.892  59.341 -60.006  1.00  0.00     0.029 A 
HETATM    3  C   UNL     1     -46.872  58.399 -60.333  1.00  0.00     0.004 A 
HETATM    4  C   UNL     1     -46.573  57.035 -60.314  1.00  0.00     0.023 A 
HETATM    5  C   UNL     1     -45.290  56.612 -59.963  1.00  0.00     0.046 A 
HETATM    6  C   UNL     1     -44.310  57.559 -59.644  1.00  0.00     0.052 A 
HETATM    7  C   UNL     1     -44.974  55.217 -59.888  1.00  0.00     0.099 C 
HETATM    8  N   UNL     1     -44.697  54.096 -59.772  1.00  0.00    -0.191 NA
ENDROOT
BRANCH   1   9
HETATM    9  N   UNL     1     -43.575  59.801 -59.289  1.00  0.00    -0.309 N 
HETATM   10  C   UNL     1     -42.612  60.385 -60.076  1.00  0.00     0.323 C 
HETATM   11  N   UNL     1     -41.854  61.341 -59.398  1.00  0.00    -0.325 N 
HETATM   12  O   UNL     1     -42.379  60.065 -61.237  1.00  0.00    -0.247 OA
HETATM   13  C   UNL     1     -42.403  62.344 -58.469  1.00  0.00     0.122 C 
HETATM   14  C   UNL     1     -40.666  61.877 -60.055  1.00  0.00     0.128 C 
HETATM   15  C   UNL     1     -41.220  63.282 -58.207  1.00  0.00     0.032 C 
HETATM   16  C   UNL     1     -40.529  63.312 -59.562  1.00  0.00     0.022 C 
HETATM   17  H   UNL     1     -43.349  59.819 -58.309  1.00  0.00     0.170 HD
BRANCH  13  18
HETATM   18  C   UNL     1     -43.029  61.818 -57.197  1.00  0.00    -0.034 A 
HETATM   19  C   UNL     1     -44.213  62.345 -56.658  1.00  0.00     0.009 A 
HETATM   20  C   UNL     1     -44.704  61.883 -55.431  1.00  0.00     0.002 A 
HETATM   21  C   UNL     1     -44.021  60.892 -54.721  1.00  0.00     0.017 A 
HETATM   22  C   UNL     1     -42.847  60.354 -55.249  1.00  0.00     0.033 A 
HETATM   23  C   UNL     1     -42.366  60.806 -56.485  1.00  0.00     0.026 A 
BRANCH  22  24
HETATM   24  C   UNL     1     -42.067  59.297 -54.555  1.00  0.00     0.257 C 
HETATM   25  N   UNL     1     -42.705  58.081 -54.433  1.00  0.00    -0.301 N 
HETATM   26  H   UNL     1     -43.647  57.942 -54.765  1.00  0.00     0.171 HD
HETATM   27  O   UNL     1     -40.973  59.608 -54.102  1.00  0.00    -0.267 OA
BRANCH  25  28
HETATM   28  C   UNL     1     -42.145  57.067 -53.706  1.00  0.00     0.174 A 
HETATM   29  N   UNL     1     -41.905  57.010 -52.420  1.00  0.00    -0.228 NA
HETATM   30  C   UNL     1     -41.375  55.791 -52.100  1.00  0.00     0.050 A 
HETATM   31  C   UNL     1     -41.044  55.453 -50.690  1.00  0.00     0.062 C 
HETATM   32  C   UNL     1     -41.229  54.918 -53.156  1.00  0.00     0.013 A 
HETATM   33  C   UNL     1     -40.180  54.182 -50.617  1.00  0.00     0.039 C 
HETATM   34  C   UNL     1     -40.712  53.083 -51.560  1.00  0.00     0.191 C 
HETATM   35  C   UNL     1     -40.686  53.537 -53.049  1.00  0.00     0.081 C 
HETATM   36  S   UNL     1     -41.733  55.665 -54.604  1.00  0.00    -0.055 SA
BRANCH  34  37
HETATM   37  N   UNL     1     -39.873  51.831 -51.413  1.00  0.00    -0.071 N 
HETATM   38  H   UNL     1     -40.459  51.062 -51.058  1.00  0.00     0.277 HD
HETATM   39  H   UNL     1     -39.159  51.993 -50.689  1.00  0.00     0.277 HD
BRANCH  37  40
HETATM   40  C   UNL     1     -39.163  51.379 -52.657  1.00  0.00     0.232 C 
BRANCH  40  41
HETATM   41  C   UNL     1     -39.658  49.989 -53.032  1.00  0.00     0.023 C 
HETATM   42  C   UNL     1     -40.321  49.996 -54.402  1.00  0.00     0.007 C 
ENDBRANCH  40  41
ENDBRANCH  37  40
ENDBRANCH  34  37
ENDBRANCH  25  28
ENDBRANCH  22  24
ENDBRANCH  13  18
ENDBRANCH   1   9
TORSDOF 7
ENDMDL
MODEL 4
REMARK VINA RESULT:      -8.2      3.860      6.186
REMARK  7 active torsions:
REMARK  status: ('A' for Active; 'I' for Inactive)
REMARK    1  A    between atoms: C_2  and  C_3 
REMARK    2  A    between atoms: C_3  and  N_4 
REMARK    3  A    between atoms: N_4  and  C_7 
REMARK    4  A    between atoms: C_12  and  N_13 
REMARK       I    between atoms: N_13  and  C_14 
REMARK    5  A    between atoms: C_14  and  C_16 
REMARK    6  A    between atoms: C_20  and  C_22 
REMARK       I    between atoms: N_26  and  C_27 
REMARK       I    between atoms: C_27  and  N_29 
REMARK    7  A    between atoms: N_29  and  C_30 
ROOT
HETATM    1  C   UNL     1     -43.924  58.720 -59.296  1.00  0.00     0.037 A 
HETATM    2  C   UNL     1     -42.641  58.942 -59.793  1.00  0.00     0.029 A 
HETATM    3  C   UNL     1     -41.848  57.864 -60.201  1.00  0.00     0.004 A 
HETATM    4  C   UNL     1     -42.338  56.559 -60.121  1.00  0.00     0.023 A 
HETATM    5  C   UNL     1     -43.626  56.331 -59.636  1.00  0.00     0.046 A 
HETATM    6  C   UNL     1     -44.414  57.411 -59.222  1.00  0.00     0.052 A 
HETATM    7  C   UNL     1     -44.169  55.006 -59.592  1.00  0.00     0.099 C 
HETATM    8  N   UNL     1     -44.655  53.952 -59.586  1.00  0.00    -0.191 NA
ENDROOT
BRANCH   1   9
HETATM    9  N   UNL     1     -44.798  59.745 -58.900  1.00  0.00    -0.309 N 
HETATM   10  C   UNL     1     -45.932  60.197 -59.529  1.00  0.00     0.323 C 
HETATM   11  N   UNL     1     -46.656  61.112 -58.763  1.00  0.00    -0.325 N 
HETATM   12  O   UNL     1     -46.259  59.894 -60.671  1.00  0.00    -0.247 OA
HETATM   13  C   UNL     1     -46.914  60.981 -57.318  1.00  0.00     0.122 C 
HETATM   14  C   UNL     1     -47.760  61.826 -59.398  1.00  0.00     0.128 C 
HETATM   15  C   UNL     1     -47.939  62.084 -57.031  1.00  0.00     0.032 C 
HETATM   16  C   UNL     1     -48.784  62.073 -58.296  1.00  0.00     0.022 C 
HETATM   17  H   UNL     1     -44.438  60.393 -58.220  1.00  0.00     0.170 HD
BRANCH  13  18
HETATM   18  C   UNL     1     -45.710  61.045 -56.407  1.00  0.00    -0.034 A 
HETATM   19  C   UNL     1     -44.890  62.180 -56.308  1.00  0.00     0.009 A 
HETATM   20  C   UNL     1     -43.735  62.157 -55.517  1.00  0.00     0.002 A 
HETATM   21  C   UNL     1     -43.379  61.003 -54.814  1.00  0.00     0.017 A 
HETATM   22  C   UNL     1     -44.190  59.871 -54.896  1.00  0.00     0.033 A 
HETATM   23  C   UNL     1     -45.353  59.901 -55.676  1.00  0.00     0.026 A 
BRANCH  22  24
HETATM   24  C   UNL     1     -43.879  58.609 -54.177  1.00  0.00     0.257 C 
HETATM   25  N   UNL     1     -42.678  58.600 -53.500  1.00  0.00    -0.301 N 
HETATM   26  H   UNL     1     -42.049  59.387 -53.527  1.00  0.00     0.171 HD
HETATM   27  O   UNL     1     -44.668  57.681 -54.298  1.00  0.00    -0.267 OA
BRANCH  25  28
HETATM   28  C   UNL     1     -42.219  57.457 -52.904  1.00  0.00     0.174 A 
HETATM   29  N   UNL     1     -42.332  57.076 -51.656  1.00  0.00    -0.228 NA
HETATM   30  C   UNL     1     -41.767  55.841 -51.494  1.00  0.00     0.050 A 
HETATM   31  C   UNL     1     -41.793  55.161 -50.172  1.00  0.00     0.062 C 
HETATM   32  C   UNL     1     -41.237  55.283 -52.637  1.00  0.00     0.013 A 
HETATM   33  C   UNL     1     -40.836  53.957 -50.154  1.00  0.00     0.039 C 
HETATM   34  C   UNL     1     -40.957  53.120 -51.445  1.00  0.00     0.191 C 
HETATM   35  C   UNL     1     -40.582  53.949 -52.708  1.00  0.00     0.081 C 
HETATM   36  S   UNL     1     -41.415  56.360 -53.949  1.00  0.00    -0.055 SA
BRANCH  34  37
HETATM   37  N   UNL     1     -40.046  51.913 -51.361  1.00  0.00    -0.071 N 
HETATM   38  H   UNL     1     -40.578  51.103 -51.012  1.00  0.00     0.277 HD
HETATM   39  H   UNL     1     -39.320  52.094 -50.653  1.00  0.00     0.277 HD
BRANCH  37  40
HETATM   40  C   UNL     1     -39.351  51.538 -52.638  1.00  0.00     0.232 C 
BRANCH  40  41
HETATM   41  C   UNL     1     -39.683  50.091 -52.976  1.00  0.00     0.023 C 
HETATM   42  C   UNL     1     -39.731  49.879 -54.482  1.00  0.00     0.007 C 
ENDBRANCH  40  41
ENDBRANCH  37  40
ENDBRANCH  34  37
ENDBRANCH  25  28
ENDBRANCH  22  24
ENDBRANCH  13  18
ENDBRANCH   1   9
TORSDOF 7
ENDMDL
MODEL 5
REMARK VINA RESULT:      -8.0      4.321      6.648
REMARK  7 active torsions:
REMARK  status: ('A' for Active; 'I' for Inactive)
REMARK    1  A    between atoms: C_2  and  C_3 
REMARK    2  A    between atoms: C_3  and  N_4 
REMARK    3  A    between atoms: N_4  and  C_7 
REMARK    4  A    between atoms: C_12  and  N_13 
REMARK       I    between atoms: N_13  and  C_14 
REMARK    5  A    between atoms: C_14  and  C_16 
REMARK    6  A    between atoms: C_20  and  C_22 
REMARK       I    between atoms: N_26  and  C_27 
REMARK       I    between atoms: C_27  and  N_29 
REMARK    7  A    between atoms: N_29  and  C_30 
ROOT
HETATM    1  C   UNL     1     -44.507  58.207 -59.400  1.00  0.00     0.037 A 
HETATM    2  C   UNL     1     -43.208  58.544 -59.776  1.00  0.00     0.029 A 
HETATM    3  C   UNL     1     -42.255  57.542 -59.992  1.00  0.00     0.004 A 
HETATM    4  C   UNL     1     -42.600  56.198 -59.842  1.00  0.00     0.023 A 
HETATM    5  C   UNL     1     -43.902  55.853 -59.478  1.00  0.00     0.046 A 
HETATM    6  C   UNL     1     -44.850  56.857 -59.255  1.00  0.00     0.052 A 
HETATM    7  C   UNL     1     -44.292  54.479 -59.368  1.00  0.00     0.099 C 
HETATM    8  N   UNL     1     -44.653  53.377 -59.314  1.00  0.00    -0.191 NA
ENDROOT
BRANCH   1   9
HETATM    9  N   UNL     1     -45.532  59.144 -59.200  1.00  0.00    -0.309 N 
HETATM   10  C   UNL     1     -46.749  59.234 -59.829  1.00  0.00     0.323 C 
HETATM   11  N   UNL     1     -47.595  60.185 -59.255  1.00  0.00    -0.325 N 
HETATM   12  O   UNL     1     -47.057  58.604 -60.835  1.00  0.00    -0.247 OA
HETATM   13  C   UNL     1     -47.776  60.384 -57.807  1.00  0.00     0.122 C 
HETATM   14  C   UNL     1     -48.828  60.529 -59.958  1.00  0.00     0.128 C 
HETATM   15  C   UNL     1     -48.967  61.345 -57.718  1.00  0.00     0.032 C 
HETATM   16  C   UNL     1     -49.840  60.879 -58.874  1.00  0.00     0.022 C 
HETATM   17  H   UNL     1     -45.267  59.992 -58.728  1.00  0.00     0.170 HD
BRANCH  13  18
HETATM   18  C   UNL     1     -46.570  60.870 -57.035  1.00  0.00    -0.034 A 
HETATM   19  C   UNL     1     -46.237  62.227 -56.918  1.00  0.00     0.009 A 
HETATM   20  C   UNL     1     -45.061  62.619 -56.267  1.00  0.00     0.002 A 
HETATM   21  C   UNL     1     -44.197  61.664 -55.726  1.00  0.00     0.017 A 
HETATM   22  C   UNL     1     -44.520  60.310 -55.827  1.00  0.00     0.033 A 
HETATM   23  C   UNL     1     -45.705  59.921 -56.465  1.00  0.00     0.026 A 
BRANCH  22  24
HETATM   24  C   UNL     1     -43.654  59.236 -55.275  1.00  0.00     0.257 C 
HETATM   25  N   UNL     1     -43.943  57.964 -55.720  1.00  0.00    -0.301 N 
HETATM   26  H   UNL     1     -44.710  57.783 -56.348  1.00  0.00     0.171 HD
HETATM   27  O   UNL     1     -42.819  59.558 -54.440  1.00  0.00    -0.267 OA
BRANCH  25  28
HETATM   28  C   UNL     1     -43.302  56.876 -55.192  1.00  0.00     0.174 A 
HETATM   29  N   UNL     1     -43.563  56.222 -54.088  1.00  0.00    -0.228 NA
HETATM   30  C   UNL     1     -42.702  55.168 -53.958  1.00  0.00     0.050 A 
HETATM   31  C   UNL     1     -42.808  54.237 -52.804  1.00  0.00     0.062 C 
HETATM   32  C   UNL     1     -41.793  55.022 -54.984  1.00  0.00     0.013 A 
HETATM   33  C   UNL     1     -41.560  53.343 -52.700  1.00  0.00     0.039 C 
HETATM   34  C   UNL     1     -41.140  52.799 -54.082  1.00  0.00     0.191 C 
HETATM   35  C   UNL     1     -40.768  53.947 -55.066  1.00  0.00     0.081 C 
HETATM   36  S   UNL     1     -41.998  56.271 -56.127  1.00  0.00    -0.055 SA
BRANCH  34  37
HETATM   37  N   UNL     1     -39.949  51.876 -53.930  1.00  0.00    -0.071 N 
HETATM   38  H   UNL     1     -39.500  52.040 -53.017  1.00  0.00     0.277 HD
HETATM   39  H   UNL     1     -39.242  52.127 -54.635  1.00  0.00     0.277 HD
BRANCH  37  40
HETATM   40  C   UNL     1     -40.242  50.412 -54.082  1.00  0.00     0.232 C 
BRANCH  40  41
HETATM   41  C   UNL     1     -39.496  49.642 -53.001  1.00  0.00     0.023 C 
HETATM   42  C   UNL     1     -39.612  50.340 -51.654  1.00  0.00     0.007 C 
ENDBRANCH  40  41
ENDBRANCH  37  40
ENDBRANCH  34  37
ENDBRANCH  25  28
ENDBRANCH  22  24
ENDBRANCH  13  18
ENDBRANCH   1   9
TORSDOF 7
ENDMDL
MODEL 6
REMARK VINA RESULT:      -7.8      3.616      5.938
REMARK  7 active torsions:
REMARK  status: ('A' for Active; 'I' for Inactive)
REMARK    1  A    between atoms: C_2  and  C_3 
REMARK    2  A    between atoms: C_3  and  N_4 
REMARK    3  A    between atoms: N_4  and  C_7 
REMARK    4  A    between atoms: C_12  and  N_13 
REMARK       I    between atoms: N_13  and  C_14 
REMARK    5  A    between atoms: C_14  and  C_16 
REMARK    6  A    between atoms: C_20  and  C_22 
REMARK       I    between atoms: N_26  and  C_27 
REMARK       I    between atoms: C_27  and  N_29 
REMARK    7  A    between atoms: N_29  and  C_30 
ROOT
HETATM    1  C   UNL     1     -50.853  61.895 -54.313  1.00  0.00     0.037 A 
HETATM    2  C   UNL     1     -49.582  62.374 -53.998  1.00  0.00     0.029 A 
HETATM    3  C   UNL     1     -49.367  63.066 -52.802  1.00  0.00     0.004 A 
HETATM    4  C   UNL     1     -50.420  63.275 -51.910  1.00  0.00     0.023 A 
HETATM    5  C   UNL     1     -51.692  62.788 -52.213  1.00  0.00     0.046 A 
HETATM    6  C   UNL     1     -51.906  62.103 -53.414  1.00  0.00     0.052 A 
HETATM    7  C   UNL     1     -52.776  62.946 -51.290  1.00  0.00     0.099 C 
HETATM    8  N   UNL     1     -53.665  63.017 -50.546  1.00  0.00    -0.191 NA
ENDROOT
BRANCH   1   9
HETATM    9  N   UNL     1     -51.148  61.161 -55.472  1.00  0.00    -0.309 N 
HETATM   10  C   UNL     1     -52.313  60.515 -55.807  1.00  0.00     0.323 C 
HETATM   11  N   UNL     1     -52.316  60.033 -57.117  1.00  0.00    -0.325 N 
HETATM   12  O   UNL     1     -53.240  60.311 -55.030  1.00  0.00    -0.247 OA
HETATM   13  C   UNL     1     -51.812  60.774 -58.286  1.00  0.00     0.122 C 
HETATM   14  C   UNL     1     -53.402  59.147 -57.526  1.00  0.00     0.128 C 
HETATM   15  C   UNL     1     -52.271  59.927 -59.478  1.00  0.00     0.032 C 
HETATM   16  C   UNL     1     -53.626  59.420 -59.008  1.00  0.00     0.022 C 
HETATM   17  H   UNL     1     -50.357  60.855 -56.013  1.00  0.00     0.170 HD
BRANCH  13  18
HETATM   18  C   UNL     1     -50.330  61.071 -58.312  1.00  0.00    -0.034 A 
HETATM   19  C   UNL     1     -49.806  62.284 -58.785  1.00  0.00     0.009 A 
HETATM   20  C   UNL     1     -48.422  62.476 -58.871  1.00  0.00     0.002 A 
HETATM   21  C   UNL     1     -47.539  61.461 -58.490  1.00  0.00     0.017 A 
HETATM   22  C   UNL     1     -48.046  60.253 -58.010  1.00  0.00     0.033 A 
HETATM   23  C   UNL     1     -49.432  60.070 -57.909  1.00  0.00     0.026 A 
BRANCH  22  24
HETATM   24  C   UNL     1     -47.173  59.130 -57.584  1.00  0.00     0.257 C 
HETATM   25  N   UNL     1     -46.291  59.426 -56.568  1.00  0.00    -0.301 N 
HETATM   26  H   UNL     1     -46.228  60.352 -56.173  1.00  0.00     0.171 HD
HETATM   27  O   UNL     1     -47.264  58.078 -58.203  1.00  0.00    -0.267 OA
BRANCH  25  28
HETATM   28  C   UNL     1     -45.349  58.516 -56.172  1.00  0.00     0.174 A 
HETATM   29  N   UNL     1     -45.316  57.783 -55.087  1.00  0.00    -0.228 NA
HETATM   30  C   UNL     1     -44.215  56.973 -55.107  1.00  0.00     0.050 A 
HETATM   31  C   UNL     1     -43.960  56.009 -54.003  1.00  0.00     0.062 C 
HETATM   32  C   UNL     1     -43.419  57.090 -56.226  1.00  0.00     0.013 A 
HETATM   33  C   UNL     1     -42.529  55.451 -54.079  1.00  0.00     0.039 C 
HETATM   34  C   UNL     1     -42.147  55.073 -55.526  1.00  0.00     0.191 C 
HETATM   35  C   UNL     1     -42.179  56.307 -56.474  1.00  0.00     0.081 C 
HETATM   36  S   UNL     1     -44.050  58.285 -57.268  1.00  0.00    -0.055 SA
BRANCH  34  37
HETATM   37  N   UNL     1     -40.757  54.471 -55.548  1.00  0.00    -0.071 N 
HETATM   38  H   UNL     1     -40.071  55.195 -55.808  1.00  0.00     0.277 HD
HETATM   39  H   UNL     1     -40.713  53.765 -56.297  1.00  0.00     0.277 HD
BRANCH  37  40
HETATM   40  C   UNL     1     -40.319  53.808 -54.274  1.00  0.00     0.232 C 
BRANCH  40  41
HETATM   41  C   UNL     1     -40.582  52.312 -54.378  1.00  0.00     0.023 C 
HETATM   42  C   UNL     1     -39.520  51.518 -53.633  1.00  0.00     0.007 C 
ENDBRANCH  40  41
ENDBRANCH  37  40
ENDBRANCH  34  37
ENDBRANCH  25  28
ENDBRANCH  22  24
ENDBRANCH  13  18
ENDBRANCH   1   9
TORSDOF 7
ENDMDL
MODEL 7
REMARK VINA RESULT:      -7.7      4.410      7.546
REMARK  7 active torsions:
REMARK  status: ('A' for Active; 'I' for Inactive)
REMARK    1  A    between atoms: C_2  and  C_3 
REMARK    2  A    between atoms: C_3  and  N_4 
REMARK    3  A    between atoms: N_4  and  C_7 
REMARK    4  A    between atoms: C_12  and  N_13 
REMARK       I    between atoms: N_13  and  C_14 
REMARK    5  A    between atoms: C_14  and  C_16 
REMARK    6  A    between atoms: C_20  and  C_22 
REMARK       I    between atoms: N_26  and  C_27 
REMARK       I    between atoms: C_27  and  N_29 
REMARK    7  A    between atoms: N_29  and  C_30 
ROOT
HETATM    1  C   UNL     1     -41.756  62.129 -59.164  1.00  0.00     0.037 A 
HETATM    2  C   UNL     1     -40.525  62.440 -58.589  1.00  0.00     0.029 A 
HETATM    3  C   UNL     1     -39.459  62.859 -59.392  1.00  0.00     0.004 A 
HETATM    4  C   UNL     1     -39.622  62.978 -60.773  1.00  0.00     0.023 A 
HETATM    5  C   UNL     1     -40.855  62.680 -61.354  1.00  0.00     0.046 A 
HETATM    6  C   UNL     1     -41.917  62.254 -60.548  1.00  0.00     0.052 A 
HETATM    7  C   UNL     1     -41.061  62.844 -62.762  1.00  0.00     0.099 C 
HETATM    8  N   UNL     1     -41.274  63.009 -63.891  1.00  0.00    -0.191 NA
ENDROOT
BRANCH   1   9
HETATM    9  N   UNL     1     -42.886  61.737 -58.429  1.00  0.00    -0.309 N 
HETATM   10  C   UNL     1     -43.644  62.480 -57.558  1.00  0.00     0.323 C 
HETATM   11  N   UNL     1     -44.802  61.822 -57.140  1.00  0.00    -0.325 N 
HETATM   12  O   UNL     1     -43.322  63.581 -57.124  1.00  0.00    -0.247 OA
HETATM   13  C   UNL     1     -45.689  61.041 -58.018  1.00  0.00     0.122 C 
HETATM   14  C   UNL     1     -45.579  62.411 -56.053  1.00  0.00     0.128 C 
HETATM   15  C   UNL     1     -46.912  60.755 -57.140  1.00  0.00     0.032 C 
HETATM   16  C   UNL     1     -47.030  62.037 -56.330  1.00  0.00     0.022 C 
HETATM   17  H   UNL     1     -43.022  60.746 -58.326  1.00  0.00     0.170 HD
BRANCH  13  18
HETATM   18  C   UNL     1     -45.102  59.791 -58.635  1.00  0.00    -0.034 A 
HETATM   19  C   UNL     1     -45.086  59.561 -60.019  1.00  0.00     0.009 A 
HETATM   20  C   UNL     1     -44.612  58.349 -60.534  1.00  0.00     0.002 A 
HETATM   21  C   UNL     1     -44.151  57.346 -59.678  1.00  0.00     0.017 A 
HETATM   22  C   UNL     1     -44.153  57.564 -58.299  1.00  0.00     0.033 A 
HETATM   23  C   UNL     1     -44.613  58.784 -57.787  1.00  0.00     0.026 A 
BRANCH  22  24
HETATM   24  C   UNL     1     -43.677  56.548 -57.326  1.00  0.00     0.257 C 
HETATM   25  N   UNL     1     -43.693  56.946 -56.007  1.00  0.00    -0.301 N 
HETATM   26  H   UNL     1     -43.978  57.875 -55.738  1.00  0.00     0.171 HD
HETATM   27  O   UNL     1     -43.257  55.489 -57.776  1.00  0.00    -0.267 OA
BRANCH  25  28
HETATM   28  C   UNL     1     -43.163  56.150 -55.029  1.00  0.00     0.174 A 
HETATM   29  N   UNL     1     -43.747  55.642 -53.973  1.00  0.00    -0.228 NA
HETATM   30  C   UNL     1     -42.861  54.866 -53.279  1.00  0.00     0.050 A 
HETATM   31  C   UNL     1     -43.283  54.140 -52.052  1.00  0.00     0.062 C 
HETATM   32  C   UNL     1     -41.599  54.780 -53.829  1.00  0.00     0.013 A 
HETATM   33  C   UNL     1     -42.065  53.607 -51.280  1.00  0.00     0.039 C 
HETATM   34  C   UNL     1     -41.032  52.964 -52.230  1.00  0.00     0.191 C 
HETATM   35  C   UNL     1     -40.475  53.989 -53.260  1.00  0.00     0.081 C 
HETATM   36  S   UNL     1     -41.511  55.737 -55.239  1.00  0.00    -0.055 SA
BRANCH  34  37
HETATM   37  N   UNL     1     -39.880  52.398 -51.427  1.00  0.00    -0.071 N 
HETATM   38  H   UNL     1     -40.236  51.991 -50.550  1.00  0.00     0.277 HD
HETATM   39  H   UNL     1     -39.262  53.171 -51.142  1.00  0.00     0.277 HD
BRANCH  37  40
HETATM   40  C   UNL     1     -39.035  51.380 -52.138  1.00  0.00     0.232 C 
BRANCH  40  41
HETATM   41  C   UNL     1     -39.946  50.370 -52.821  1.00  0.00     0.023 C 
HETATM   42  C   UNL     1     -39.460  50.060 -54.229  1.00  0.00     0.007 C 
ENDBRANCH  40  41
ENDBRANCH  37  40
ENDBRANCH  34  37
ENDBRANCH  25  28
ENDBRANCH  22  24
ENDBRANCH  13  18
ENDBRANCH   1   9
TORSDOF 7
ENDMDL
MODEL 8
REMARK VINA RESULT:      -7.7      4.028      6.345
REMARK  7 active torsions:
REMARK  status: ('A' for Active; 'I' for Inactive)
REMARK    1  A    between atoms: C_2  and  C_3 
REMARK    2  A    between atoms: C_3  and  N_4 
REMARK    3  A    between atoms: N_4  and  C_7 
REMARK    4  A    between atoms: C_12  and  N_13 
REMARK       I    between atoms: N_13  and  C_14 
REMARK    5  A    between atoms: C_14  and  C_16 
REMARK    6  A    between atoms: C_20  and  C_22 
REMARK       I    between atoms: N_26  and  C_27 
REMARK       I    between atoms: C_27  and  N_29 
REMARK    7  A    between atoms: N_29  and  C_30 
ROOT
HETATM    1  C   UNL     1     -44.065  60.567 -56.119  1.00  0.00     0.037 A 
HETATM    2  C   UNL     1     -42.876  59.959 -55.718  1.00  0.00     0.029 A 
HETATM    3  C   UNL     1     -42.691  59.588 -54.382  1.00  0.00     0.004 A 
HETATM    4  C   UNL     1     -43.696  59.816 -53.441  1.00  0.00     0.023 A 
HETATM    5  C   UNL     1     -44.894  60.413 -53.838  1.00  0.00     0.046 A 
HETATM    6  C   UNL     1     -45.073  60.790 -55.173  1.00  0.00     0.052 A 
HETATM    7  C   UNL     1     -45.959  60.611 -52.901  1.00  0.00     0.099 C 
HETATM    8  N   UNL     1     -46.858  60.744 -52.179  1.00  0.00    -0.191 NA
ENDROOT
BRANCH   1   9
HETATM    9  N   UNL     1     -44.348  60.937 -57.443  1.00  0.00    -0.309 N 
HETATM   10  C   UNL     1     -44.060  62.115 -58.086  1.00  0.00     0.323 C 
HETATM   11  N   UNL     1     -44.328  62.072 -59.455  1.00  0.00    -0.325 N 
HETATM   12  O   UNL     1     -43.670  63.133 -57.526  1.00  0.00    -0.247 OA
HETATM   13  C   UNL     1     -44.009  60.939 -60.340  1.00  0.00     0.122 C 
HETATM   14  C   UNL     1     -44.269  63.319 -60.212  1.00  0.00     0.128 C 
HETATM   15  C   UNL     1     -44.269  61.491 -61.746  1.00  0.00     0.032 C 
HETATM   16  C   UNL     1     -43.809  62.935 -61.613  1.00  0.00     0.022 C 
HETATM   17  H   UNL     1     -45.054  60.393 -57.910  1.00  0.00     0.170 HD
BRANCH  13  18
HETATM   18  C   UNL     1     -44.741  59.643 -60.072  1.00  0.00    -0.034 A 
HETATM   19  C   UNL     1     -46.068  59.424 -60.470  1.00  0.00     0.009 A 
HETATM   20  C   UNL     1     -46.730  58.241 -60.120  1.00  0.00     0.002 A 
HETATM   21  C   UNL     1     -46.081  57.261 -59.365  1.00  0.00     0.017 A 
HETATM   22  C   UNL     1     -44.757  57.462 -58.969  1.00  0.00     0.033 A 
HETATM   23  C   UNL     1     -44.092  58.639 -59.335  1.00  0.00     0.026 A 
BRANCH  22  24
HETATM   24  C   UNL     1     -44.000  56.467 -58.169  1.00  0.00     0.257 C 
HETATM   25  N   UNL     1     -43.959  56.713 -56.813  1.00  0.00    -0.301 N 
HETATM   26  H   UNL     1     -44.388  57.532 -56.410  1.00  0.00     0.171 HD
HETATM   27  O   UNL     1     -43.432  55.568 -58.776  1.00  0.00    -0.267 OA
BRANCH  25  28
HETATM   28  C   UNL     1     -43.190  55.942 -55.985  1.00  0.00     0.174 A 
HETATM   29  N   UNL     1     -42.088  55.288 -56.256  1.00  0.00    -0.228 NA
HETATM   30  C   UNL     1     -41.618  54.681 -55.124  1.00  0.00     0.050 A 
HETATM   31  C   UNL     1     -40.353  53.900 -55.150  1.00  0.00     0.062 C 
HETATM   32  C   UNL     1     -42.370  54.891 -53.989  1.00  0.00     0.013 A 
HETATM   33  C   UNL     1     -40.199  53.059 -53.872  1.00  0.00     0.039 C 
HETATM   34  C   UNL     1     -40.569  53.872 -52.613  1.00  0.00     0.191 C 
HETATM   35  C   UNL     1     -42.052  54.342 -52.643  1.00  0.00     0.081 C 
HETATM   36  S   UNL     1     -43.733  55.849 -54.361  1.00  0.00    -0.055 SA
BRANCH  34  37
HETATM   37  N   UNL     1     -40.345  53.030 -51.374  1.00  0.00    -0.071 N 
HETATM   38  H   UNL     1     -41.252  52.805 -50.940  1.00  0.00     0.277 HD
HETATM   39  H   UNL     1     -39.836  53.592 -50.678  1.00  0.00     0.277 HD
BRANCH  37  40
HETATM   40  C   UNL     1     -39.570  51.761 -51.587  1.00  0.00     0.232 C 
BRANCH  40  41
HETATM   41  C   UNL     1     -40.063  50.709 -50.603  1.00  0.00     0.023 C 
HETATM   42  C   UNL     1     -39.719  49.307 -51.084  1.00  0.00     0.007 C 
ENDBRANCH  40  41
ENDBRANCH  37  40
ENDBRANCH  34  37
ENDBRANCH  25  28
ENDBRANCH  22  24
ENDBRANCH  13  18
ENDBRANCH   1   9
TORSDOF 7
ENDMDL
MODEL 9
REMARK VINA RESULT:      -7.7      4.453      7.971
REMARK  7 active torsions:
REMARK  status: ('A' for Active; 'I' for Inactive)
REMARK    1  A    between atoms: C_2  and  C_3 
REMARK    2  A    between atoms: C_3  and  N_4 
REMARK    3  A    between atoms: N_4  and  C_7 
REMARK    4  A    between atoms: C_12  and  N_13 
REMARK       I    between atoms: N_13  and  C_14 
REMARK    5  A    between atoms: C_14  and  C_16 
REMARK    6  A    between atoms: C_20  and  C_22 
REMARK       I    between atoms: N_26  and  C_27 
REMARK       I    between atoms: C_27  and  N_29 
REMARK    7  A    between atoms: N_29  and  C_30 
ROOT
HETATM    1  C   UNL     1     -41.978  62.173 -59.773  1.00  0.00     0.037 A 
HETATM    2  C   UNL     1     -42.253  61.825 -61.095  1.00  0.00     0.029 A 
HETATM    3  C   UNL     1     -41.369  62.188 -62.117  1.00  0.00     0.004 A 
HETATM    4  C   UNL     1     -40.201  62.892 -61.821  1.00  0.00     0.023 A 
HETATM    5  C   UNL     1     -39.913  63.233 -60.499  1.00  0.00     0.046 A 
HETATM    6  C   UNL     1     -40.803  62.875 -59.480  1.00  0.00     0.052 A 
HETATM    7  C   UNL     1     -38.696  63.911 -60.165  1.00  0.00     0.099 C 
HETATM    8  N   UNL     1     -37.699  64.419 -59.856  1.00  0.00    -0.191 NA
ENDROOT
BRANCH   1   9
HETATM    9  N   UNL     1     -42.789  61.817 -58.686  1.00  0.00    -0.309 N 
HETATM   10  C   UNL     1     -43.089  62.548 -57.562  1.00  0.00     0.323 C 
HETATM   11  N   UNL     1     -44.072  61.956 -56.768  1.00  0.00    -0.325 N 
HETATM   12  O   UNL     1     -42.516  63.582 -57.235  1.00  0.00    -0.247 OA
HETATM   13  C   UNL     1     -45.298  61.321 -57.281  1.00  0.00     0.122 C 
HETATM   14  C   UNL     1     -44.325  62.519 -55.445  1.00  0.00     0.128 C 
HETATM   15  C   UNL     1     -46.131  61.067 -56.020  1.00  0.00     0.032 C 
HETATM   16  C   UNL     1     -45.806  62.286 -55.171  1.00  0.00     0.022 C 
HETATM   17  H   UNL     1     -42.981  60.835 -58.581  1.00  0.00     0.170 HD
BRANCH  13  18
HETATM   18  C   UNL     1     -45.115  60.080 -58.125  1.00  0.00    -0.034 A 
HETATM   19  C   UNL     1     -45.702  59.928 -59.391  1.00  0.00     0.009 A 
HETATM   20  C   UNL     1     -45.576  58.725 -60.095  1.00  0.00     0.002 A 
HETATM   21  C   UNL     1     -44.867  57.653 -59.546  1.00  0.00     0.017 A 
HETATM   22  C   UNL     1     -44.271  57.792 -58.292  1.00  0.00     0.033 A 
HETATM   23  C   UNL     1     -44.385  59.003 -57.597  1.00  0.00     0.026 A 
BRANCH  22  24
HETATM   24  C   UNL     1     -43.500  56.700 -57.645  1.00  0.00     0.257 C 
HETATM   25  N   UNL     1     -43.708  56.558 -56.291  1.00  0.00    -0.301 N 
HETATM   26  H   UNL     1     -44.317  57.178 -55.780  1.00  0.00     0.171 HD
HETATM   27  O   UNL     1     -42.711  56.076 -58.344  1.00  0.00    -0.267 OA
BRANCH  25  28
HETATM   28  C   UNL     1     -42.965  55.673 -55.558  1.00  0.00     0.174 A 
HETATM   29  N   UNL     1     -41.981  54.902 -55.948  1.00  0.00    -0.228 NA
HETATM   30  C   UNL     1     -41.486  54.205 -54.881  1.00  0.00     0.050 A 
HETATM   31  C   UNL     1     -40.334  53.280 -55.046  1.00  0.00     0.062 C 
HETATM   32  C   UNL     1     -42.097  54.466 -53.673  1.00  0.00     0.013 A 
HETATM   33  C   UNL     1     -40.165  52.383 -53.807  1.00  0.00     0.039 C 
HETATM   34  C   UNL     1     -40.313  53.193 -52.501  1.00  0.00     0.191 C 
HETATM   35  C   UNL     1     -41.725  53.838 -52.377  1.00  0.00     0.081 C 
HETATM   36  S   UNL     1     -43.361  55.592 -53.891  1.00  0.00    -0.055 SA
BRANCH  34  37
HETATM   37  N   UNL     1     -40.079  52.289 -51.309  1.00  0.00    -0.071 N 
HETATM   38  H   UNL     1     -39.067  52.170 -51.158  1.00  0.00     0.277 HD
HETATM   39  H   UNL     1     -40.439  51.349 -51.529  1.00  0.00     0.277 HD
BRANCH  37  40
HETATM   40  C   UNL     1     -40.722  52.732 -50.026  1.00  0.00     0.232 C 
BRANCH  40  41
HETATM   41  C   UNL     1     -39.942  53.912 -49.464  1.00  0.00     0.023 C 
HETATM   42  C   UNL     1     -40.787  54.705 -48.477  1.00  0.00     0.007 C 
ENDBRANCH  40  41
ENDBRANCH  37  40
ENDBRANCH  34  37
ENDBRANCH  25  28
ENDBRANCH  22  24
ENDBRANCH  13  18
ENDBRANCH   1   9
TORSDOF 7
ENDMDL
MODEL 10
REMARK VINA RESULT:      -7.6      2.681      4.534
REMARK  7 active torsions:
REMARK  status: ('A' for Active; 'I' for Inactive)
REMARK    1  A    between atoms: C_2  and  C_3 
REMARK    2  A    between atoms: C_3  and  N_4 
REMARK    3  A    between atoms: N_4  and  C_7 
REMARK    4  A    between atoms: C_12  and  N_13 
REMARK       I    between atoms: N_13  and  C_14 
REMARK    5  A    between atoms: C_14  and  C_16 
REMARK    6  A    between atoms: C_20  and  C_22 
REMARK       I    between atoms: N_26  and  C_27 
REMARK       I    between atoms: C_27  and  N_29 
REMARK    7  A    between atoms: N_29  and  C_30 
ROOT
HETATM    1  C   UNL     1     -45.705  61.400 -53.707  1.00  0.00     0.037 A 
HETATM    2  C   UNL     1     -45.586  60.013 -53.638  1.00  0.00     0.029 A 
HETATM    3  C   UNL     1     -45.094  59.294 -54.733  1.00  0.00     0.004 A 
HETATM    4  C   UNL     1     -44.711  59.959 -55.899  1.00  0.00     0.023 A 
HETATM    5  C   UNL     1     -44.816  61.348 -55.970  1.00  0.00     0.046 A 
HETATM    6  C   UNL     1     -45.316  62.064 -54.876  1.00  0.00     0.052 A 
HETATM    7  C   UNL     1     -44.382  62.057 -57.137  1.00  0.00     0.099 C 
HETATM    8  N   UNL     1     -43.998  62.666 -58.048  1.00  0.00    -0.191 NA
ENDROOT
BRANCH   1   9
HETATM    9  N   UNL     1     -46.153  62.201 -52.645  1.00  0.00    -0.309 N 
HETATM   10  C   UNL     1     -47.437  62.572 -52.332  1.00  0.00     0.323 C 
HETATM   11  N   UNL     1     -47.534  63.228 -51.103  1.00  0.00    -0.325 N 
HETATM   12  O   UNL     1     -48.404  62.416 -53.070  1.00  0.00    -0.247 OA
HETATM   13  C   UNL     1     -46.827  62.824 -49.876  1.00  0.00     0.122 C 
HETATM   14  C   UNL     1     -48.803  63.861 -50.754  1.00  0.00     0.128 C 
HETATM   15  C   UNL     1     -47.461  63.695 -48.787  1.00  0.00     0.032 C 
HETATM   16  C   UNL     1     -48.913  63.765 -49.237  1.00  0.00     0.022 C 
HETATM   17  H   UNL     1     -45.456  62.775 -52.202  1.00  0.00     0.170 HD
BRANCH  13  18
HETATM   18  C   UNL     1     -45.318  62.919 -49.901  1.00  0.00    -0.034 A 
HETATM   19  C   UNL     1     -44.628  64.120 -49.677  1.00  0.00     0.009 A 
HETATM   20  C   UNL     1     -43.235  64.175 -49.800  1.00  0.00     0.002 A 
HETATM   21  C   UNL     1     -42.508  63.034 -50.151  1.00  0.00     0.017 A 
HETATM   22  C   UNL     1     -43.180  61.831 -50.368  1.00  0.00     0.033 A 
HETATM   23  C   UNL     1     -44.573  61.775 -50.229  1.00  0.00     0.026 A 
BRANCH  22  24
HETATM   24  C   UNL     1     -42.478  60.576 -50.741  1.00  0.00     0.257 C 
HETATM   25  N   UNL     1     -43.230  59.676 -51.465  1.00  0.00    -0.301 N 
HETATM   26  H   UNL     1     -44.196  59.853 -51.690  1.00  0.00     0.171 HD
HETATM   27  O   UNL     1     -41.337  60.423 -50.326  1.00  0.00    -0.267 OA
BRANCH  25  28
HETATM   28  C   UNL     1     -42.740  58.433 -51.761  1.00  0.00     0.174 A 
HETATM   29  N   UNL     1     -42.941  57.299 -51.138  1.00  0.00    -0.228 NA
HETATM   30  C   UNL     1     -42.297  56.288 -51.796  1.00  0.00     0.050 A 
HETATM   31  C   UNL     1     -42.394  54.884 -51.314  1.00  0.00     0.062 C 
HETATM   32  C   UNL     1     -41.616  56.666 -52.933  1.00  0.00     0.013 A 
HETATM   33  C   UNL     1     -41.350  53.991 -52.005  1.00  0.00     0.039 C 
HETATM   34  C   UNL     1     -41.278  54.274 -53.520  1.00  0.00     0.191 C 
HETATM   35  C   UNL     1     -40.852  55.742 -53.815  1.00  0.00     0.081 C 
HETATM   36  S   UNL     1     -41.753  58.351 -53.162  1.00  0.00    -0.055 SA
BRANCH  34  37
HETATM   37  N   UNL     1     -40.286  53.334 -54.171  1.00  0.00    -0.071 N 
HETATM   38  H   UNL     1     -39.376  53.808 -54.274  1.00  0.00     0.277 HD
HETATM   39  H   UNL     1     -40.601  53.130 -55.130  1.00  0.00     0.277 HD
BRANCH  37  40
HETATM   40  C   UNL     1     -40.084  52.021 -53.471  1.00  0.00     0.232 C 
BRANCH  40  41
HETATM   41  C   UNL     1     -40.243  50.892 -54.479  1.00  0.00     0.023 C 
HETATM   42  C   UNL     1     -39.561  49.623 -53.990  1.00  0.00     0.007 C 
ENDBRANCH  40  41
ENDBRANCH  37  40
ENDBRANCH  34  37
ENDBRANCH  25  28
ENDBRANCH  22  24
ENDBRANCH  13  18
ENDBRANCH   1   9
TORSDOF 7
ENDMDL
