MODEL 1
REMARK VINA RESULT:      -8.9      0.000      0.000
REMARK  4 active torsions:
REMARK  status: ('A' for Active; 'I' for Inactive)
REMARK    1  A    between atoms: C_9  and  C_10 
REMARK       I    between atoms: C_10  and  N_11 
REMARK    2  A    between atoms: N_11  and  N_12 
REMARK       I    between atoms: N_12  and  C_13 
REMARK    3  A    between atoms: C_13  and  C_14 
REMARK    4  A    between atoms: C_14  and  C_15 
ROOT
HETATM    1  C   UNL     1     -43.094  54.689 -54.084  1.00  0.00     0.291 C 
HETATM    2  N   UNL     1     -43.984  55.678 -53.710  1.00  0.00    -0.262 N 
HETATM    3  O   UNL     1     -43.041  54.249 -55.233  1.00  0.00    -0.264 OA
HETATM    4  H   UNL     1     -43.884  56.120 -52.793  1.00  0.00     0.190 HD
ENDROOT
BRANCH   2   5
HETATM    5  N   UNL     1     -44.741  56.332 -54.686  1.00  0.00    -0.267 N 
HETATM    6  C   UNL     1     -44.254  57.524 -55.193  1.00  0.00     0.236 C 
HETATM    7  O   UNL     1     -43.265  58.083 -54.730  1.00  0.00    -0.272 OA
HETATM    8  H   UNL     1     -45.407  55.756 -55.198  1.00  0.00     0.190 HD
BRANCH   6   9
HETATM    9  C   UNL     1     -45.094  58.041 -56.352  1.00  0.00     0.114 C 
BRANCH   9  10
HETATM   10  C   UNL     1     -44.519  57.878 -57.777  1.00  0.00    -0.031 C 
HETATM   11  C   UNL     1     -45.638  57.754 -58.844  1.00  0.00     0.014 C 
HETATM   12  C   UNL     1     -45.033  57.657 -60.256  1.00  0.00    -0.013 C 
HETATM   13  C   UNL     1     -44.109  56.429 -60.329  1.00  0.00     0.009 C 
HETATM   14  C   UNL     1     -44.216  58.925 -60.549  1.00  0.00     0.009 C 
HETATM   15  C   UNL     1     -42.971  56.562 -59.304  1.00  0.00    -0.013 C 
HETATM   16  C   UNL     1     -43.569  56.658 -57.890  1.00  0.00     0.014 C 
HETATM   17  C   UNL     1     -42.166  57.836 -59.602  1.00  0.00     0.009 C 
HETATM   18  C   UNL     1     -43.083  59.066 -59.521  1.00  0.00    -0.013 C 
HETATM   19  C   UNL     1     -43.689  59.152 -58.110  1.00  0.00     0.014 C 
ENDBRANCH   9  10
ENDBRANCH   6   9
ENDBRANCH   2   5
BRANCH   1  20
HETATM   20  C   UNL     1     -42.231  54.236 -52.986  1.00  0.00     0.158 A 
HETATM   21  C   UNL     1     -41.316  53.141 -52.996  1.00  0.00     0.029 A 
HETATM   22  C   UNL     1     -40.907  52.168 -53.930  1.00  0.00     0.023 A 
HETATM   23  C   UNL     1     -40.752  53.129 -51.727  1.00  0.00     0.063 A 
HETATM   24  C   UNL     1     -39.939  51.218 -53.560  1.00  0.00    -0.061 A 
HETATM   25  C   UNL     1     -39.506  50.158 -54.533  1.00  0.00     0.048 C 
HETATM   26  C   UNL     1     -39.405  51.234 -52.265  1.00  0.00     0.009 A 
HETATM   27  C   UNL     1     -39.798  52.192 -51.322  1.00  0.00     0.032 A 
HETATM   28  N   UNL     1     -41.334  54.171 -51.062  1.00  0.00    -0.277 N 
HETATM   29  H   UNL     1     -41.163  54.464 -50.107  1.00  0.00     0.189 HD
HETATM   30  N   UNL     1     -42.230  54.861 -51.789  1.00  0.00    -0.168 NA
ENDBRANCH   1  20
TORSDOF 4
ENDMDL
MODEL 2
REMARK VINA RESULT:      -8.9      0.070      1.461
REMARK  4 active torsions:
REMARK  status: ('A' for Active; 'I' for Inactive)
REMARK    1  A    between atoms: C_9  and  C_10 
REMARK       I    between atoms: C_10  and  N_11 
REMARK    2  A    between atoms: N_11  and  N_12 
REMARK       I    between atoms: N_12  and  C_13 
REMARK    3  A    between atoms: C_13  and  C_14 
REMARK    4  A    between atoms: C_14  and  C_15 
ROOT
HETATM    1  C   UNL     1     -43.081  54.703 -54.113  1.00  0.00     0.291 C 
HETATM    2  N   UNL     1     -43.986  55.673 -53.721  1.00  0.00    -0.262 N 
HETATM    3  O   UNL     1     -43.028  54.277 -55.266  1.00  0.00    -0.264 OA
HETATM    4  H   UNL     1     -43.887  56.106 -52.800  1.00  0.00     0.190 HD
ENDROOT
BRANCH   2   5
HETATM    5  N   UNL     1     -44.762  56.323 -54.685  1.00  0.00    -0.267 N 
HETATM    6  C   UNL     1     -44.285  57.514 -55.205  1.00  0.00     0.236 C 
HETATM    7  O   UNL     1     -43.287  58.074 -54.763  1.00  0.00    -0.272 OA
HETATM    8  H   UNL     1     -45.437  55.745 -55.183  1.00  0.00     0.190 HD
BRANCH   6   9
HETATM    9  C   UNL     1     -45.147  58.027 -56.350  1.00  0.00     0.114 C 
BRANCH   9  10
HETATM   10  C   UNL     1     -44.544  57.980 -57.771  1.00  0.00    -0.031 C 
HETATM   11  C   UNL     1     -43.670  59.225 -58.073  1.00  0.00     0.014 C 
HETATM   12  C   UNL     1     -43.034  59.117 -59.471  1.00  0.00    -0.013 C 
HETATM   13  C   UNL     1     -44.147  58.996 -60.527  1.00  0.00     0.009 C 
HETATM   14  C   UNL     1     -42.142  57.866 -59.530  1.00  0.00     0.009 C 
HETATM   15  C   UNL     1     -44.993  57.740 -60.262  1.00  0.00    -0.013 C 
HETATM   16  C   UNL     1     -45.633  57.844 -58.866  1.00  0.00     0.014 C 
HETATM   17  C   UNL     1     -44.091  56.499 -60.316  1.00  0.00     0.009 C 
HETATM   18  C   UNL     1     -42.983  56.610 -59.256  1.00  0.00    -0.013 C 
HETATM   19  C   UNL     1     -43.625  56.726 -57.864  1.00  0.00     0.014 C 
ENDBRANCH   9  10
ENDBRANCH   6   9
ENDBRANCH   2   5
BRANCH   1  20
HETATM   20  C   UNL     1     -42.202  54.255 -53.026  1.00  0.00     0.158 A 
HETATM   21  C   UNL     1     -41.300  53.149 -53.039  1.00  0.00     0.029 A 
HETATM   22  C   UNL     1     -40.922  52.158 -53.967  1.00  0.00     0.023 A 
HETATM   23  C   UNL     1     -40.712  53.146 -51.781  1.00  0.00     0.063 A 
HETATM   24  C   UNL     1     -39.958  51.201 -53.604  1.00  0.00    -0.061 A 
HETATM   25  C   UNL     1     -39.557  50.123 -54.570  1.00  0.00     0.048 C 
HETATM   26  C   UNL     1     -39.399  51.228 -52.320  1.00  0.00     0.009 A 
HETATM   27  C   UNL     1     -39.761  52.203 -51.382  1.00  0.00     0.032 A 
HETATM   28  N   UNL     1     -41.269  54.204 -51.119  1.00  0.00    -0.277 N 
HETATM   29  H   UNL     1     -41.075  54.507 -50.171  1.00  0.00     0.189 HD
HETATM   30  N   UNL     1     -42.170  54.896 -51.837  1.00  0.00    -0.168 NA
ENDBRANCH   1  20
TORSDOF 4
ENDMDL
MODEL 3
REMARK VINA RESULT:      -8.7      1.335      2.076
REMARK  4 active torsions:
REMARK  status: ('A' for Active; 'I' for Inactive)
REMARK    1  A    between atoms: C_9  and  C_10 
REMARK       I    between atoms: C_10  and  N_11 
REMARK    2  A    between atoms: N_11  and  N_12 
REMARK       I    between atoms: N_12  and  C_13 
REMARK    3  A    between atoms: C_13  and  C_14 
REMARK    4  A    between atoms: C_14  and  C_15 
ROOT
HETATM    1  C   UNL     1     -41.479  55.105 -52.382  1.00  0.00     0.291 C 
HETATM    2  N   UNL     1     -42.406  54.726 -53.335  1.00  0.00    -0.262 N 
HETATM    3  O   UNL     1     -41.123  56.274 -52.235  1.00  0.00    -0.264 OA
HETATM    4  H   UNL     1     -42.786  53.776 -53.314  1.00  0.00     0.190 HD
ENDROOT
BRANCH   2   5
HETATM    5  N   UNL     1     -43.098  55.705 -54.053  1.00  0.00    -0.267 N 
HETATM    6  C   UNL     1     -42.558  56.129 -55.256  1.00  0.00     0.236 C 
HETATM    7  O   UNL     1     -41.449  55.776 -55.641  1.00  0.00    -0.272 OA
HETATM    8  H   UNL     1     -44.088  55.804 -53.838  1.00  0.00     0.190 HD
BRANCH   6   9
HETATM    9  C   UNL     1     -43.489  57.074 -56.001  1.00  0.00     0.114 C 
BRANCH   9  10
HETATM   10  C   UNL     1     -43.380  57.114 -57.542  1.00  0.00    -0.031 C 
HETATM   11  C   UNL     1     -43.209  55.697 -58.149  1.00  0.00     0.014 C 
HETATM   12  C   UNL     1     -43.167  55.766 -59.686  1.00  0.00    -0.013 C 
HETATM   13  C   UNL     1     -41.995  56.662 -60.122  1.00  0.00     0.009 C 
HETATM   14  C   UNL     1     -44.484  56.365 -60.205  1.00  0.00     0.009 C 
HETATM   15  C   UNL     1     -42.177  58.081 -59.561  1.00  0.00    -0.013 C 
HETATM   16  C   UNL     1     -42.218  58.019 -58.024  1.00  0.00     0.014 C 
HETATM   17  C   UNL     1     -43.498  58.667 -60.081  1.00  0.00     0.009 C 
HETATM   18  C   UNL     1     -44.673  57.781 -59.639  1.00  0.00    -0.013 C 
HETATM   19  C   UNL     1     -44.704  57.711 -58.104  1.00  0.00     0.014 C 
ENDBRANCH   9  10
ENDBRANCH   6   9
ENDBRANCH   2   5
BRANCH   1  20
HETATM   20  C   UNL     1     -40.983  53.983 -51.574  1.00  0.00     0.158 A 
HETATM   21  C   UNL     1     -40.515  52.718 -52.041  1.00  0.00     0.029 A 
HETATM   22  C   UNL     1     -40.352  52.094 -53.294  1.00  0.00     0.023 A 
HETATM   23  C   UNL     1     -40.166  52.016 -50.894  1.00  0.00     0.063 A 
HETATM   24  C   UNL     1     -39.835  50.788 -53.355  1.00  0.00    -0.061 A 
HETATM   25  C   UNL     1     -39.674  50.097 -54.679  1.00  0.00     0.048 C 
HETATM   26  C   UNL     1     -39.507  50.112 -52.173  1.00  0.00     0.009 A 
HETATM   27  C   UNL     1     -39.662  50.713 -50.917  1.00  0.00     0.032 A 
HETATM   28  N   UNL     1     -40.430  52.865 -49.856  1.00  0.00    -0.277 N 
HETATM   29  H   UNL     1     -40.296  52.687 -48.867  1.00  0.00     0.189 HD
HETATM   30  N   UNL     1     -40.923  54.059 -50.227  1.00  0.00    -0.168 NA
ENDBRANCH   1  20
TORSDOF 4
ENDMDL
MODEL 4
REMARK VINA RESULT:      -8.4      1.809      2.682
REMARK  4 active torsions:
REMARK  status: ('A' for Active; 'I' for Inactive)
REMARK    1  A    between atoms: C_9  and  C_10 
REMARK       I    between atoms: C_10  and  N_11 
REMARK    2  A    between atoms: N_11  and  N_12 
REMARK       I    between atoms: N_12  and  C_13 
REMARK    3  A    between atoms: C_13  and  C_14 
REMARK    4  A    between atoms: C_14  and  C_15 
ROOT
HETATM    1  C   UNL     1     -42.292  54.794 -55.239  1.00  0.00     0.291 C 
HETATM    2  N   UNL     1     -41.734  55.914 -55.827  1.00  0.00    -0.262 N 
HETATM    3  O   UNL     1     -43.211  54.163 -55.762  1.00  0.00    -0.264 OA
HETATM    4  H   UNL     1     -40.875  56.308 -55.436  1.00  0.00     0.190 HD
ENDROOT
BRANCH   2   5
HETATM    5  N   UNL     1     -42.094  56.262 -57.132  1.00  0.00    -0.267 N 
HETATM    6  C   UNL     1     -42.974  57.316 -57.302  1.00  0.00     0.236 C 
HETATM    7  O   UNL     1     -43.541  57.861 -56.360  1.00  0.00    -0.272 OA
HETATM    8  H   UNL     1     -41.457  55.963 -57.868  1.00  0.00     0.190 HD
BRANCH   6   9
HETATM    9  C   UNL     1     -43.153  57.684 -58.768  1.00  0.00     0.114 C 
BRANCH   9  10
HETATM   10  C   UNL     1     -42.922  59.159 -59.165  1.00  0.00    -0.031 C 
HETATM   11  C   UNL     1     -42.525  59.303 -60.657  1.00  0.00     0.014 C 
HETATM   12  C   UNL     1     -42.364  60.787 -61.036  1.00  0.00    -0.013 C 
HETATM   13  C   UNL     1     -41.282  61.423 -60.147  1.00  0.00     0.009 C 
HETATM   14  C   UNL     1     -43.698  61.517 -60.812  1.00  0.00     0.009 C 
HETATM   15  C   UNL     1     -41.687  61.324 -58.668  1.00  0.00    -0.013 C 
HETATM   16  C   UNL     1     -41.847  59.843 -58.282  1.00  0.00     0.014 C 
HETATM   17  C   UNL     1     -43.024  62.051 -58.457  1.00  0.00     0.009 C 
HETATM   18  C   UNL     1     -44.110  61.412 -59.336  1.00  0.00    -0.013 C 
HETATM   19  C   UNL     1     -44.260  59.930 -58.957  1.00  0.00     0.014 C 
ENDBRANCH   9  10
ENDBRANCH   6   9
ENDBRANCH   2   5
BRANCH   1  20
HETATM   20  C   UNL     1     -41.676  54.442 -53.954  1.00  0.00     0.158 A 
HETATM   21  C   UNL     1     -40.948  53.256 -53.637  1.00  0.00     0.029 A 
HETATM   22  C   UNL     1     -40.566  52.085 -54.321  1.00  0.00     0.023 A 
HETATM   23  C   UNL     1     -40.581  53.402 -52.305  1.00  0.00     0.063 A 
HETATM   24  C   UNL     1     -39.819  51.102 -53.648  1.00  0.00    -0.061 A 
HETATM   25  C   UNL     1     -39.420  49.837 -54.352  1.00  0.00     0.048 C 
HETATM   26  C   UNL     1     -39.480  51.285 -52.301  1.00  0.00     0.009 A 
HETATM   27  C   UNL     1     -39.851  52.440 -51.602  1.00  0.00     0.032 A 
HETATM   28  N   UNL     1     -41.085  54.614 -51.922  1.00  0.00    -0.277 N 
HETATM   29  H   UNL     1     -41.008  55.051 -51.010  1.00  0.00     0.189 HD
HETATM   30  N   UNL     1     -41.750  55.269 -52.889  1.00  0.00    -0.168 NA
ENDBRANCH   1  20
TORSDOF 4
ENDMDL
MODEL 5
REMARK VINA RESULT:      -8.4      5.812      8.785
REMARK  4 active torsions:
REMARK  status: ('A' for Active; 'I' for Inactive)
REMARK    1  A    between atoms: C_9  and  C_10 
REMARK       I    between atoms: C_10  and  N_11 
REMARK    2  A    between atoms: N_11  and  N_12 
REMARK       I    between atoms: N_12  and  C_13 
REMARK    3  A    between atoms: C_13  and  C_14 
REMARK    4  A    between atoms: C_14  and  C_15 
ROOT
HETATM    1  C   UNL     1     -45.447  59.340 -50.432  1.00  0.00     0.291 C 
HETATM    2  N   UNL     1     -44.134  59.056 -50.759  1.00  0.00    -0.262 N 
HETATM    3  O   UNL     1     -46.337  58.491 -50.477  1.00  0.00    -0.264 OA
HETATM    4  H   UNL     1     -43.407  59.746 -50.555  1.00  0.00     0.190 HD
ENDROOT
BRANCH   2   5
HETATM    5  N   UNL     1     -43.751  57.732 -50.989  1.00  0.00    -0.267 N 
HETATM    6  C   UNL     1     -42.397  57.453 -51.066  1.00  0.00     0.236 C 
HETATM    7  O   UNL     1     -41.542  58.332 -51.069  1.00  0.00    -0.272 OA
HETATM    8  H   UNL     1     -44.439  57.018 -50.758  1.00  0.00     0.190 HD
BRANCH   6   9
HETATM    9  C   UNL     1     -42.123  55.959 -51.161  1.00  0.00     0.114 C 
BRANCH   9  10
HETATM   10  C   UNL     1     -41.841  55.374 -52.562  1.00  0.00    -0.031 C 
HETATM   11  C   UNL     1     -40.791  54.235 -52.517  1.00  0.00     0.014 C 
HETATM   12  C   UNL     1     -40.580  53.631 -53.917  1.00  0.00    -0.013 C 
HETATM   13  C   UNL     1     -40.107  54.735 -54.879  1.00  0.00     0.009 C 
HETATM   14  C   UNL     1     -41.910  53.051 -54.427  1.00  0.00     0.009 C 
HETATM   15  C   UNL     1     -41.162  55.850 -54.965  1.00  0.00    -0.013 C 
HETATM   16  C   UNL     1     -41.375  56.458 -53.568  1.00  0.00     0.014 C 
HETATM   17  C   UNL     1     -42.487  55.257 -55.468  1.00  0.00     0.009 C 
HETATM   18  C   UNL     1     -42.969  54.161 -54.505  1.00  0.00    -0.013 C 
HETATM   19  C   UNL     1     -43.169  54.769 -53.107  1.00  0.00     0.014 C 
ENDBRANCH   9  10
ENDBRANCH   6   9
ENDBRANCH   2   5
BRANCH   1  20
HETATM   20  C   UNL     1     -45.656  60.736 -50.025  1.00  0.00     0.158 A 
HETATM   21  C   UNL     1     -45.482  61.295 -48.724  1.00  0.00     0.029 A 
HETATM   22  C   UNL     1     -45.091  60.818 -47.456  1.00  0.00     0.023 A 
HETATM   23  C   UNL     1     -45.807  62.638 -48.861  1.00  0.00     0.063 A 
HETATM   24  C   UNL     1     -45.031  61.708 -46.370  1.00  0.00    -0.061 A 
HETATM   25  C   UNL     1     -44.638  61.215 -45.006  1.00  0.00     0.048 C 
HETATM   26  C   UNL     1     -45.380  63.053 -46.550  1.00  0.00     0.009 A 
HETATM   27  C   UNL     1     -45.771  63.547 -47.800  1.00  0.00     0.032 A 
HETATM   28  N   UNL     1     -46.139  62.798 -50.177  1.00  0.00    -0.277 N 
HETATM   29  H   UNL     1     -46.430  63.652 -50.639  1.00  0.00     0.189 HD
HETATM   30  N   UNL     1     -46.059  61.673 -50.909  1.00  0.00    -0.168 NA
ENDBRANCH   1  20
TORSDOF 4
ENDMDL
MODEL 6
REMARK VINA RESULT:      -8.3      1.507      2.283
REMARK  4 active torsions:
REMARK  status: ('A' for Active; 'I' for Inactive)
REMARK    1  A    between atoms: C_9  and  C_10 
REMARK       I    between atoms: C_10  and  N_11 
REMARK    2  A    between atoms: N_11  and  N_12 
REMARK       I    between atoms: N_12  and  C_13 
REMARK    3  A    between atoms: C_13  and  C_14 
REMARK    4  A    between atoms: C_14  and  C_15 
ROOT
HETATM    1  C   UNL     1     -42.255  54.876 -55.072  1.00  0.00     0.291 C 
HETATM    2  N   UNL     1     -41.782  56.078 -55.565  1.00  0.00    -0.262 N 
HETATM    3  O   UNL     1     -43.145  54.238 -55.633  1.00  0.00    -0.264 OA
HETATM    4  H   UNL     1     -40.939  56.489 -55.156  1.00  0.00     0.190 HD
ENDROOT
BRANCH   2   5
HETATM    5  N   UNL     1     -42.195  56.520 -56.824  1.00  0.00    -0.267 N 
HETATM    6  C   UNL     1     -42.422  57.875 -56.994  1.00  0.00     0.236 C 
HETATM    7  O   UNL     1     -42.400  58.669 -56.060  1.00  0.00    -0.272 OA
HETATM    8  H   UNL     1     -41.987  55.903 -57.607  1.00  0.00     0.190 HD
BRANCH   6   9
HETATM    9  C   UNL     1     -42.712  58.232 -58.445  1.00  0.00     0.114 C 
BRANCH   9  10
HETATM   10  C   UNL     1     -44.180  58.518 -58.828  1.00  0.00    -0.031 C 
HETATM   11  C   UNL     1     -45.122  57.350 -58.435  1.00  0.00     0.014 C 
HETATM   12  C   UNL     1     -46.584  57.693 -58.772  1.00  0.00    -0.013 C 
HETATM   13  C   UNL     1     -46.705  57.972 -60.280  1.00  0.00     0.009 C 
HETATM   14  C   UNL     1     -47.007  58.948 -57.990  1.00  0.00     0.009 C 
HETATM   15  C   UNL     1     -45.808  59.156 -60.674  1.00  0.00    -0.013 C 
HETATM   16  C   UNL     1     -44.344  58.818 -60.340  1.00  0.00     0.014 C 
HETATM   17  C   UNL     1     -46.235  60.401 -59.881  1.00  0.00     0.009 C 
HETATM   18  C   UNL     1     -46.106  60.131 -58.374  1.00  0.00    -0.013 C 
HETATM   19  C   UNL     1     -44.645  59.782 -58.046  1.00  0.00     0.014 C 
ENDBRANCH   9  10
ENDBRANCH   6   9
ENDBRANCH   2   5
BRANCH   1  20
HETATM   20  C   UNL     1     -41.584  54.449 -53.838  1.00  0.00     0.158 A 
HETATM   21  C   UNL     1     -40.900  53.219 -53.603  1.00  0.00     0.029 A 
HETATM   22  C   UNL     1     -40.615  52.056 -54.347  1.00  0.00     0.023 A 
HETATM   23  C   UNL     1     -40.452  53.299 -52.291  1.00  0.00     0.063 A 
HETATM   24  C   UNL     1     -39.881  51.015 -53.752  1.00  0.00    -0.061 A 
HETATM   25  C   UNL     1     -39.586  49.759 -54.521  1.00  0.00     0.048 C 
HETATM   26  C   UNL     1     -39.458  51.133 -52.422  1.00  0.00     0.009 A 
HETATM   27  C   UNL     1     -39.731  52.278 -51.664  1.00  0.00     0.032 A 
HETATM   28  N   UNL     1     -40.872  54.518 -51.839  1.00  0.00    -0.277 N 
HETATM   29  H   UNL     1     -40.723  54.917 -50.919  1.00  0.00     0.189 HD
HETATM   30  N   UNL     1     -41.557  55.239 -52.743  1.00  0.00    -0.168 NA
ENDBRANCH   1  20
TORSDOF 4
ENDMDL
MODEL 7
REMARK VINA RESULT:      -7.8      1.757      2.732
REMARK  4 active torsions:
REMARK  status: ('A' for Active; 'I' for Inactive)
REMARK    1  A    between atoms: C_9  and  C_10 
REMARK       I    between atoms: C_10  and  N_11 
REMARK    2  A    between atoms: N_11  and  N_12 
REMARK       I    between atoms: N_12  and  C_13 
REMARK    3  A    between atoms: C_13  and  C_14 
REMARK    4  A    between atoms: C_14  and  C_15 
ROOT
HETATM    1  C   UNL     1     -42.129  56.653 -53.463  1.00  0.00     0.291 C 
HETATM    2  N   UNL     1     -42.991  55.729 -54.023  1.00  0.00    -0.262 N 
HETATM    3  O   UNL     1     -41.636  57.575 -54.113  1.00  0.00    -0.264 OA
HETATM    4  H   UNL     1     -43.496  55.082 -53.412  1.00  0.00     0.190 HD
ENDROOT
BRANCH   2   5
HETATM    5  N   UNL     1     -43.463  55.925 -55.324  1.00  0.00    -0.267 N 
HETATM    6  C   UNL     1     -42.751  55.353 -56.364  1.00  0.00     0.236 C 
HETATM    7  O   UNL     1     -41.668  54.803 -56.197  1.00  0.00    -0.272 OA
HETATM    8  H   UNL     1     -44.447  56.173 -55.412  1.00  0.00     0.190 HD
BRANCH   6   9
HETATM    9  C   UNL     1     -43.460  55.512 -57.701  1.00  0.00     0.114 C 
BRANCH   9  10
HETATM   10  C   UNL     1     -43.381  56.892 -58.390  1.00  0.00    -0.031 C 
HETATM   11  C   UNL     1     -43.159  56.766 -59.920  1.00  0.00     0.014 C 
HETATM   12  C   UNL     1     -43.149  58.155 -60.584  1.00  0.00    -0.013 C 
HETATM   13  C   UNL     1     -42.027  59.005 -59.965  1.00  0.00     0.009 C 
HETATM   14  C   UNL     1     -44.501  58.845 -60.341  1.00  0.00     0.009 C 
HETATM   15  C   UNL     1     -42.261  59.173 -58.455  1.00  0.00    -0.013 C 
HETATM   16  C   UNL     1     -42.270  57.787 -57.785  1.00  0.00     0.014 C 
HETATM   17  C   UNL     1     -43.617  59.857 -58.224  1.00  0.00     0.009 C 
HETATM   18  C   UNL     1     -44.743  59.006 -58.832  1.00  0.00    -0.013 C 
HETATM   19  C   UNL     1     -44.742  57.619 -58.170  1.00  0.00     0.014 C 
ENDBRANCH   9  10
ENDBRANCH   6   9
ENDBRANCH   2   5
BRANCH   1  20
HETATM   20  C   UNL     1     -41.878  56.424 -52.034  1.00  0.00     0.158 A 
HETATM   21  C   UNL     1     -41.293  55.272 -51.429  1.00  0.00     0.029 A 
HETATM   22  C   UNL     1     -40.780  54.039 -51.879  1.00  0.00     0.023 A 
HETATM   23  C   UNL     1     -41.281  55.545 -50.068  1.00  0.00     0.063 A 
HETATM   24  C   UNL     1     -40.263  53.123 -50.946  1.00  0.00    -0.061 A 
HETATM   25  C   UNL     1     -39.731  51.794 -51.401  1.00  0.00     0.048 C 
HETATM   26  C   UNL     1     -40.281  53.434 -49.580  1.00  0.00     0.009 A 
HETATM   27  C   UNL     1     -40.787  54.653 -49.112  1.00  0.00     0.032 A 
HETATM   28  N   UNL     1     -41.831  56.790 -49.943  1.00  0.00    -0.277 N 
HETATM   29  H   UNL     1     -41.982  57.312 -49.087  1.00  0.00     0.189 HD
HETATM   30  N   UNL     1     -42.203  57.351 -51.106  1.00  0.00    -0.168 NA
ENDBRANCH   1  20
TORSDOF 4
ENDMDL
MODEL 8
REMARK VINA RESULT:      -7.8      3.959      5.182
REMARK  4 active torsions:
REMARK  status: ('A' for Active; 'I' for Inactive)
REMARK    1  A    between atoms: C_9  and  C_10 
REMARK       I    between atoms: C_10  and  N_11 
REMARK    2  A    between atoms: N_11  and  N_12 
REMARK       I    between atoms: N_12  and  C_13 
REMARK    3  A    between atoms: C_13  and  C_14 
REMARK    4  A    between atoms: C_14  and  C_15 
ROOT
HETATM    1  C   UNL     1     -41.983  55.917 -50.297  1.00  0.00     0.291 C 
HETATM    2  N   UNL     1     -41.145  56.962 -49.955  1.00  0.00    -0.262 N 
HETATM    3  O   UNL     1     -43.179  56.082 -50.538  1.00  0.00    -0.264 OA
HETATM    4  H   UNL     1     -40.135  56.802 -49.920  1.00  0.00     0.190 HD
ENDROOT
BRANCH   2   5
HETATM    5  N   UNL     1     -41.610  58.277 -50.040  1.00  0.00    -0.267 N 
HETATM    6  C   UNL     1     -41.314  58.996 -51.186  1.00  0.00     0.236 C 
HETATM    7  O   UNL     1     -40.560  58.570 -52.055  1.00  0.00    -0.272 OA
HETATM    8  H   UNL     1     -42.397  58.515 -49.439  1.00  0.00     0.190 HD
BRANCH   6   9
HETATM    9  C   UNL     1     -42.012  60.348 -51.212  1.00  0.00     0.114 C 
BRANCH   9  10
HETATM   10  C   UNL     1     -43.155  60.540 -52.233  1.00  0.00    -0.031 C 
HETATM   11  C   UNL     1     -44.074  59.293 -52.318  1.00  0.00     0.014 C 
HETATM   12  C   UNL     1     -45.238  59.540 -53.295  1.00  0.00    -0.013 C 
HETATM   13  C   UNL     1     -44.670  59.863 -54.688  1.00  0.00     0.009 C 
HETATM   14  C   UNL     1     -46.074  60.732 -52.800  1.00  0.00     0.009 C 
HETATM   15  C   UNL     1     -43.793  61.123 -54.623  1.00  0.00    -0.013 C 
HETATM   16  C   UNL     1     -42.626  60.881 -53.650  1.00  0.00     0.014 C 
HETATM   17  C   UNL     1     -44.636  62.304 -54.122  1.00  0.00     0.009 C 
HETATM   18  C   UNL     1     -45.197  61.991 -52.725  1.00  0.00    -0.013 C 
HETATM   19  C   UNL     1     -44.030  61.738 -51.757  1.00  0.00     0.014 C 
ENDBRANCH   9  10
ENDBRANCH   6   9
ENDBRANCH   2   5
BRANCH   1  20
HETATM   20  C   UNL     1     -41.301  54.617 -50.350  1.00  0.00     0.158 A 
HETATM   21  C   UNL     1     -40.859  53.917 -51.512  1.00  0.00     0.029 A 
HETATM   22  C   UNL     1     -40.884  54.139 -52.904  1.00  0.00     0.023 A 
HETATM   23  C   UNL     1     -40.285  52.747 -51.032  1.00  0.00     0.063 A 
HETATM   24  C   UNL     1     -40.322  53.183 -53.768  1.00  0.00    -0.061 A 
HETATM   25  C   UNL     1     -40.357  53.390 -55.255  1.00  0.00     0.048 C 
HETATM   26  C   UNL     1     -39.763  52.011 -53.242  1.00  0.00     0.009 A 
HETATM   27  C   UNL     1     -39.729  51.770 -51.863  1.00  0.00     0.032 A 
HETATM   28  N   UNL     1     -40.407  52.815 -49.673  1.00  0.00    -0.277 N 
HETATM   29  H   UNL     1     -40.097  52.130 -48.993  1.00  0.00     0.189 HD
HETATM   30  N   UNL     1     -41.015  53.927 -49.225  1.00  0.00    -0.168 NA
ENDBRANCH   1  20
TORSDOF 4
ENDMDL
MODEL 9
REMARK VINA RESULT:      -7.8      5.513      7.298
REMARK  4 active torsions:
REMARK  status: ('A' for Active; 'I' for Inactive)
REMARK    1  A    between atoms: C_9  and  C_10 
REMARK       I    between atoms: C_10  and  N_11 
REMARK    2  A    between atoms: N_11  and  N_12 
REMARK       I    between atoms: N_12  and  C_13 
REMARK    3  A    between atoms: C_13  and  C_14 
REMARK    4  A    between atoms: C_14  and  C_15 
ROOT
HETATM    1  C   UNL     1     -41.693  56.704 -51.413  1.00  0.00     0.291 C 
HETATM    2  N   UNL     1     -42.516  57.472 -50.609  1.00  0.00    -0.262 N 
HETATM    3  O   UNL     1     -41.384  57.043 -52.555  1.00  0.00    -0.264 OA
HETATM    4  H   UNL     1     -42.615  57.230 -49.620  1.00  0.00     0.190 HD
ENDROOT
BRANCH   2   5
HETATM    5  N   UNL     1     -42.883  58.755 -51.023  1.00  0.00    -0.267 N 
HETATM    6  C   UNL     1     -42.113  59.821 -50.590  1.00  0.00     0.236 C 
HETATM    7  O   UNL     1     -41.215  59.693 -49.765  1.00  0.00    -0.272 OA
HETATM    8  H   UNL     1     -43.463  58.809 -51.858  1.00  0.00     0.190 HD
BRANCH   6   9
HETATM    9  C   UNL     1     -42.530  61.132 -51.240  1.00  0.00     0.114 C 
BRANCH   9  10
HETATM   10  C   UNL     1     -43.559  62.005 -50.487  1.00  0.00    -0.031 C 
HETATM   11  C   UNL     1     -42.986  63.400 -50.127  1.00  0.00     0.014 C 
HETATM   12  C   UNL     1     -44.055  64.266 -49.436  1.00  0.00    -0.013 C 
HETATM   13  C   UNL     1     -44.534  63.556 -48.158  1.00  0.00     0.009 C 
HETATM   14  C   UNL     1     -45.248  64.457 -50.387  1.00  0.00     0.009 C 
HETATM   15  C   UNL     1     -45.144  62.189 -48.508  1.00  0.00    -0.013 C 
HETATM   16  C   UNL     1     -44.079  61.319 -49.198  1.00  0.00     0.014 C 
HETATM   17  C   UNL     1     -46.330  62.392 -49.463  1.00  0.00     0.009 C 
HETATM   18  C   UNL     1     -45.855  63.092 -50.746  1.00  0.00    -0.013 C 
HETATM   19  C   UNL     1     -44.782  62.226 -51.426  1.00  0.00     0.014 C 
ENDBRANCH   9  10
ENDBRANCH   6   9
ENDBRANCH   2   5
BRANCH   1  20
HETATM   20  C   UNL     1     -41.232  55.470 -50.764  1.00  0.00     0.158 A 
HETATM   21  C   UNL     1     -40.830  54.256 -51.396  1.00  0.00     0.029 A 
HETATM   22  C   UNL     1     -40.719  53.788 -52.721  1.00  0.00     0.023 A 
HETATM   23  C   UNL     1     -40.491  53.401 -50.355  1.00  0.00     0.063 A 
HETATM   24  C   UNL     1     -40.262  52.479 -52.957  1.00  0.00    -0.061 A 
HETATM   25  C   UNL     1     -40.158  51.954 -54.360  1.00  0.00     0.048 C 
HETATM   26  C   UNL     1     -39.942  51.647 -51.877  1.00  0.00     0.009 A 
HETATM   27  C   UNL     1     -40.046  52.092 -50.553  1.00  0.00     0.032 A 
HETATM   28  N   UNL     1     -40.697  54.123 -49.213  1.00  0.00    -0.277 N 
HETATM   29  H   UNL     1     -40.551  53.817 -48.257  1.00  0.00     0.189 HD
HETATM   30  N   UNL     1     -41.143  55.374 -49.420  1.00  0.00    -0.168 NA
ENDBRANCH   1  20
TORSDOF 4
ENDMDL
MODEL 10
REMARK VINA RESULT:      -7.7      1.624      2.894
REMARK  4 active torsions:
REMARK  status: ('A' for Active; 'I' for Inactive)
REMARK    1  A    between atoms: C_9  and  C_10 
REMARK       I    between atoms: C_10  and  N_11 
REMARK    2  A    between atoms: N_11  and  N_12 
REMARK       I    between atoms: N_12  and  C_13 
REMARK    3  A    between atoms: C_13  and  C_14 
REMARK    4  A    between atoms: C_14  and  C_15 
ROOT
HETATM    1  C   UNL     1     -42.986  54.304 -54.761  1.00  0.00     0.291 C 
HETATM    2  N   UNL     1     -43.866  54.966 -53.925  1.00  0.00    -0.262 N 
HETATM    3  O   UNL     1     -43.083  54.346 -55.988  1.00  0.00    -0.264 OA
HETATM    4  H   UNL     1     -43.653  55.032 -52.927  1.00  0.00     0.190 HD
ENDROOT
BRANCH   2   5
HETATM    5  N   UNL     1     -44.801  55.851 -54.468  1.00  0.00    -0.267 N 
HETATM    6  C   UNL     1     -44.432  57.178 -54.608  1.00  0.00     0.236 C 
HETATM    7  O   UNL     1     -43.380  57.620 -54.160  1.00  0.00    -0.272 OA
HETATM    8  H   UNL     1     -45.545  55.433 -55.024  1.00  0.00     0.190 HD
BRANCH   6   9
HETATM    9  C   UNL     1     -45.482  57.991 -55.352  1.00  0.00     0.114 C 
BRANCH   9  10
HETATM   10  C   UNL     1     -45.197  58.341 -56.829  1.00  0.00    -0.031 C 
HETATM   11  C   UNL     1     -44.173  57.368 -57.469  1.00  0.00     0.014 C 
HETATM   12  C   UNL     1     -43.959  57.705 -58.956  1.00  0.00    -0.013 C 
HETATM   13  C   UNL     1     -43.449  59.151 -59.081  1.00  0.00     0.009 C 
HETATM   14  C   UNL     1     -45.294  57.572 -59.706  1.00  0.00     0.009 C 
HETATM   15  C   UNL     1     -44.477  60.127 -58.488  1.00  0.00    -0.013 C 
HETATM   16  C   UNL     1     -44.693  59.797 -57.000  1.00  0.00     0.014 C 
HETATM   17  C   UNL     1     -45.809  59.981 -59.239  1.00  0.00     0.009 C 
HETATM   18  C   UNL     1     -46.327  58.540 -59.109  1.00  0.00    -0.013 C 
HETATM   19  C   UNL     1     -46.531  58.209 -57.622  1.00  0.00     0.014 C 
ENDBRANCH   9  10
ENDBRANCH   6   9
ENDBRANCH   2   5
BRANCH   1  20
HETATM   20  C   UNL     1     -41.939  53.569 -54.041  1.00  0.00     0.158 A 
HETATM   21  C   UNL     1     -41.446  53.826 -52.727  1.00  0.00     0.029 A 
HETATM   22  C   UNL     1     -41.714  54.759 -51.705  1.00  0.00     0.023 A 
HETATM   23  C   UNL     1     -40.469  52.862 -52.512  1.00  0.00     0.063 A 
HETATM   24  C   UNL     1     -40.997  54.689 -50.498  1.00  0.00    -0.061 A 
HETATM   25  C   UNL     1     -41.252  55.688 -49.406  1.00  0.00     0.048 C 
HETATM   26  C   UNL     1     -40.012  53.709 -50.328  1.00  0.00     0.009 A 
HETATM   27  C   UNL     1     -39.729  52.772 -51.330  1.00  0.00     0.032 A 
HETATM   28  N   UNL     1     -40.438  52.117 -53.657  1.00  0.00    -0.277 N 
HETATM   29  H   UNL     1     -39.841  51.322 -53.857  1.00  0.00     0.189 HD
HETATM   30  N   UNL     1     -41.310  52.512 -54.600  1.00  0.00    -0.168 NA
ENDBRANCH   1  20
TORSDOF 4
ENDMDL
