MODEL 1
REMARK VINA RESULT:      -8.8      0.000      0.000
REMARK  5 active torsions:
REMARK  status: ('A' for Active; 'I' for Inactive)
REMARK    1  A    between atoms: C_5  and  C_6 
REMARK    2  A    between atoms: C_10  and  C_11 
REMARK       I    between atoms: C_11  and  N_12 
REMARK    3  A    between atoms: N_12  and  N_13 
REMARK       I    between atoms: N_13  and  C_14 
REMARK       I    between atoms: C_14  and  N_15 
REMARK    4  A    between atoms: N_15  and  C_16 
REMARK    5  A    between atoms: C_16  and  C_17 
ROOT
HETATM    1  C   UNL     1     -43.526  56.008 -59.260  1.00  0.00     0.288 C 
HETATM    2  N   UNL     1     -43.455  55.776 -57.905  1.00  0.00    -0.261 N 
HETATM    3  O   UNL     1     -42.537  55.954 -59.989  1.00  0.00    -0.264 OA
HETATM    4  H   UNL     1     -44.250  55.842 -57.274  1.00  0.00     0.190 HD
ENDROOT
BRANCH   2   5
HETATM    5  N   UNL     1     -42.218  55.496 -57.306  1.00  0.00    -0.249 N 
HETATM    6  C   UNL     1     -42.232  55.322 -55.939  1.00  0.00     0.334 C 
HETATM    7  N   UNL     1     -41.021  54.903 -55.454  1.00  0.00    -0.341 N 
HETATM    8  O   UNL     1     -43.228  55.536 -55.252  1.00  0.00    -0.246 OA
HETATM    9  H   UNL     1     -40.222  55.161 -56.017  1.00  0.00     0.164 HD
HETATM   10  H   UNL     1     -41.582  54.937 -57.867  1.00  0.00     0.192 HD
BRANCH   7  11
HETATM   11  C   UNL     1     -40.799  54.763 -54.027  1.00  0.00     0.129 C 
BRANCH  11  12
HETATM   12  C   UNL     1     -41.558  53.572 -53.407  1.00  0.00     0.004 C 
HETATM   13  C   UNL     1     -41.227  52.232 -54.088  1.00  0.00     0.010 C 
HETATM   14  C   UNL     1     -39.815  51.721 -53.764  1.00  0.00    -0.018 C 
HETATM   15  C   UNL     1     -39.582  50.353 -54.407  1.00  0.00     0.010 C 
HETATM   16  C   UNL     1     -39.595  51.647 -52.248  1.00  0.00     0.004 C 
HETATM   17  C   UNL     1     -39.893  52.976 -51.563  1.00  0.00     0.001 C 
HETATM   18  C   UNL     1     -41.297  53.479 -51.894  1.00  0.00     0.006 C 
ENDBRANCH  11  12
ENDBRANCH   7  11
ENDBRANCH   2   5
BRANCH   1  19
HETATM   19  C   UNL     1     -44.839  56.322 -59.753  1.00  0.00     0.121 A 
HETATM   20  N   UNL     1     -45.850  55.404 -59.766  1.00  0.00    -0.272 N 
HETATM   21  N   UNL     1     -46.998  55.857 -60.291  1.00  0.00    -0.174 NA
HETATM   22  H   UNL     1     -45.805  54.442 -59.442  1.00  0.00     0.189 HD
HETATM   23  C   UNL     1     -46.748  57.140 -60.597  1.00  0.00     0.089 A 
HETATM   24  C   UNL     1     -45.400  57.468 -60.280  1.00  0.00     0.071 A 
BRANCH  23  25
HETATM   25  C   UNL     1     -47.765  58.012 -61.187  1.00  0.00    -0.006 A 
HETATM   26  C   UNL     1     -48.654  57.527 -62.157  1.00  0.00     0.014 A 
HETATM   27  C   UNL     1     -49.638  58.358 -62.702  1.00  0.00     0.007 A 
HETATM   28  C   UNL     1     -49.747  59.691 -62.294  1.00  0.00    -0.062 A 
HETATM   29  C   UNL     1     -50.825  60.576 -62.847  1.00  0.00     0.048 C 
HETATM   30  C   UNL     1     -48.866  60.178 -61.322  1.00  0.00     0.007 A 
HETATM   31  C   UNL     1     -47.879  59.348 -60.781  1.00  0.00     0.014 A 
ENDBRANCH  23  25
ENDBRANCH   1  19
TORSDOF 5
ENDMDL
MODEL 2
REMARK VINA RESULT:      -8.5      7.560     11.768
REMARK  5 active torsions:
REMARK  status: ('A' for Active; 'I' for Inactive)
REMARK    1  A    between atoms: C_5  and  C_6 
REMARK    2  A    between atoms: C_10  and  C_11 
REMARK       I    between atoms: C_11  and  N_12 
REMARK    3  A    between atoms: N_12  and  N_13 
REMARK       I    between atoms: N_13  and  C_14 
REMARK       I    between atoms: C_14  and  N_15 
REMARK    4  A    between atoms: N_15  and  C_16 
REMARK    5  A    between atoms: C_16  and  C_17 
ROOT
HETATM    1  C   UNL     1     -44.200  57.509 -51.842  1.00  0.00     0.288 C 
HETATM    2  N   UNL     1     -44.457  58.015 -50.588  1.00  0.00    -0.261 N 
HETATM    3  O   UNL     1     -44.815  57.880 -52.840  1.00  0.00    -0.264 OA
HETATM    4  H   UNL     1     -43.984  57.707 -49.742  1.00  0.00     0.190 HD
ENDROOT
BRANCH   2   5
HETATM    5  N   UNL     1     -45.474  58.965 -50.411  1.00  0.00    -0.249 N 
HETATM    6  C   UNL     1     -45.061  60.269 -50.244  1.00  0.00     0.334 C 
HETATM    7  N   UNL     1     -46.112  61.150 -50.232  1.00  0.00    -0.341 N 
HETATM    8  O   UNL     1     -43.881  60.582 -50.112  1.00  0.00    -0.246 OA
HETATM    9  H   UNL     1     -46.996  60.759 -49.938  1.00  0.00     0.164 HD
HETATM   10  H   UNL     1     -46.331  58.781 -50.923  1.00  0.00     0.192 HD
BRANCH   7  11
HETATM   11  C   UNL     1     -45.897  62.560 -49.963  1.00  0.00     0.129 C 
BRANCH  11  12
HETATM   12  C   UNL     1     -46.724  63.086 -48.773  1.00  0.00     0.004 C 
HETATM   13  C   UNL     1     -46.563  62.226 -47.506  1.00  0.00     0.010 C 
HETATM   14  C   UNL     1     -45.188  62.382 -46.840  1.00  0.00    -0.018 C 
HETATM   15  C   UNL     1     -45.124  61.564 -45.550  1.00  0.00     0.010 C 
HETATM   16  C   UNL     1     -44.882  63.858 -46.556  1.00  0.00     0.004 C 
HETATM   17  C   UNL     1     -45.011  64.718 -47.809  1.00  0.00     0.001 C 
HETATM   18  C   UNL     1     -46.380  64.553 -48.467  1.00  0.00     0.006 C 
ENDBRANCH  11  12
ENDBRANCH   7  11
ENDBRANCH   2   5
BRANCH   1  19
HETATM   19  C   UNL     1     -43.163  56.515 -51.893  1.00  0.00     0.121 A 
HETATM   20  N   UNL     1     -42.041  56.593 -51.118  1.00  0.00    -0.272 N 
HETATM   21  N   UNL     1     -41.163  55.599 -51.319  1.00  0.00    -0.174 NA
HETATM   22  H   UNL     1     -41.815  57.317 -50.442  1.00  0.00     0.189 HD
HETATM   23  C   UNL     1     -41.748  54.809 -52.233  1.00  0.00     0.089 A 
HETATM   24  C   UNL     1     -43.003  55.354 -52.623  1.00  0.00     0.071 A 
BRANCH  23  25
HETATM   25  C   UNL     1     -41.115  53.583 -52.722  1.00  0.00    -0.006 A 
HETATM   26  C   UNL     1     -40.218  52.866 -51.918  1.00  0.00     0.014 A 
HETATM   27  C   UNL     1     -39.633  51.683 -52.382  1.00  0.00     0.007 A 
HETATM   28  C   UNL     1     -39.925  51.201 -53.661  1.00  0.00    -0.062 A 
HETATM   29  C   UNL     1     -39.330  49.913 -54.150  1.00  0.00     0.048 C 
HETATM   30  C   UNL     1     -40.824  51.911 -54.465  1.00  0.00     0.007 A 
HETATM   31  C   UNL     1     -41.406  53.095 -54.003  1.00  0.00     0.014 A 
ENDBRANCH  23  25
ENDBRANCH   1  19
TORSDOF 5
ENDMDL
MODEL 3
REMARK VINA RESULT:      -8.4      7.729     11.773
REMARK  5 active torsions:
REMARK  status: ('A' for Active; 'I' for Inactive)
REMARK    1  A    between atoms: C_5  and  C_6 
REMARK    2  A    between atoms: C_10  and  C_11 
REMARK       I    between atoms: C_11  and  N_12 
REMARK    3  A    between atoms: N_12  and  N_13 
REMARK       I    between atoms: N_13  and  C_14 
REMARK       I    between atoms: C_14  and  N_15 
REMARK    4  A    between atoms: N_15  and  C_16 
REMARK    5  A    between atoms: C_16  and  C_17 
ROOT
HETATM    1  C   UNL     1     -44.463  57.699 -51.277  1.00  0.00     0.288 C 
HETATM    2  N   UNL     1     -44.275  59.027 -51.588  1.00  0.00    -0.261 N 
HETATM    3  O   UNL     1     -45.494  57.286 -50.749  1.00  0.00    -0.264 OA
HETATM    4  H   UNL     1     -43.423  59.400 -51.999  1.00  0.00     0.190 HD
ENDROOT
BRANCH   2   5
HETATM    5  N   UNL     1     -45.268  59.967 -51.273  1.00  0.00    -0.249 N 
HETATM    6  C   UNL     1     -44.963  60.852 -50.261  1.00  0.00     0.334 C 
HETATM    7  N   UNL     1     -45.915  61.828 -50.119  1.00  0.00    -0.341 N 
HETATM    8  O   UNL     1     -43.952  60.750 -49.571  1.00  0.00    -0.246 OA
HETATM    9  H   UNL     1     -46.841  61.573 -50.434  1.00  0.00     0.164 HD
HETATM   10  H   UNL     1     -45.824  60.289 -52.059  1.00  0.00     0.192 HD
BRANCH   7  11
HETATM   11  C   UNL     1     -45.832  62.796 -49.041  1.00  0.00     0.129 C 
BRANCH  11  12
HETATM   12  C   UNL     1     -46.783  62.484 -47.868  1.00  0.00     0.004 C 
HETATM   13  C   UNL     1     -46.209  61.438 -46.895  1.00  0.00     0.010 C 
HETATM   14  C   UNL     1     -45.054  61.979 -46.038  1.00  0.00    -0.018 C 
HETATM   15  C   UNL     1     -44.585  60.917 -45.043  1.00  0.00     0.010 C 
HETATM   16  C   UNL     1     -45.472  63.258 -45.302  1.00  0.00     0.004 C 
HETATM   17  C   UNL     1     -46.017  64.314 -46.258  1.00  0.00     0.001 C 
HETATM   18  C   UNL     1     -47.162  63.766 -47.109  1.00  0.00     0.006 C 
ENDBRANCH  11  12
ENDBRANCH   7  11
ENDBRANCH   2   5
BRANCH   1  19
HETATM   19  C   UNL     1     -43.363  56.837 -51.612  1.00  0.00     0.121 A 
HETATM   20  N   UNL     1     -42.064  57.249 -51.531  1.00  0.00    -0.272 N 
HETATM   21  N   UNL     1     -41.168  56.327 -51.913  1.00  0.00    -0.174 NA
HETATM   22  H   UNL     1     -41.731  58.163 -51.234  1.00  0.00     0.189 HD
HETATM   23  C   UNL     1     -41.903  55.247 -52.219  1.00  0.00     0.089 A 
HETATM   24  C   UNL     1     -43.287  55.529 -52.049  1.00  0.00     0.071 A 
BRANCH  23  25
HETATM   25  C   UNL     1     -41.295  53.995 -52.673  1.00  0.00    -0.006 A 
HETATM   26  C   UNL     1     -41.564  53.487 -53.952  1.00  0.00     0.014 A 
HETATM   27  C   UNL     1     -40.963  52.302 -54.390  1.00  0.00     0.007 A 
HETATM   28  C   UNL     1     -40.090  51.598 -53.555  1.00  0.00    -0.062 A 
HETATM   29  C   UNL     1     -39.413  50.347 -54.032  1.00  0.00     0.048 C 
HETATM   30  C   UNL     1     -39.815  52.104 -52.279  1.00  0.00     0.007 A 
HETATM   31  C   UNL     1     -40.420  53.287 -51.841  1.00  0.00     0.014 A 
ENDBRANCH  23  25
ENDBRANCH   1  19
TORSDOF 5
ENDMDL
MODEL 4
REMARK VINA RESULT:      -8.3      8.134     12.212
REMARK  5 active torsions:
REMARK  status: ('A' for Active; 'I' for Inactive)
REMARK    1  A    between atoms: C_5  and  C_6 
REMARK    2  A    between atoms: C_10  and  C_11 
REMARK       I    between atoms: C_11  and  N_12 
REMARK    3  A    between atoms: N_12  and  N_13 
REMARK       I    between atoms: N_13  and  C_14 
REMARK       I    between atoms: C_14  and  N_15 
REMARK    4  A    between atoms: N_15  and  C_16 
REMARK    5  A    between atoms: C_16  and  C_17 
ROOT
HETATM    1  C   UNL     1     -42.562  58.831 -51.346  1.00  0.00     0.288 C 
HETATM    2  N   UNL     1     -43.881  59.036 -51.006  1.00  0.00    -0.261 N 
HETATM    3  O   UNL     1     -41.808  59.755 -51.643  1.00  0.00    -0.264 OA
HETATM    4  H   UNL     1     -44.534  58.290 -50.784  1.00  0.00     0.190 HD
ENDROOT
BRANCH   2   5
HETATM    5  N   UNL     1     -44.414  60.333 -51.024  1.00  0.00    -0.249 N 
HETATM    6  C   UNL     1     -45.303  60.636 -50.014  1.00  0.00     0.334 C 
HETATM    7  N   UNL     1     -45.658  61.960 -50.012  1.00  0.00    -0.341 N 
HETATM    8  O   UNL     1     -45.724  59.794 -49.225  1.00  0.00    -0.246 OA
HETATM    9  H   UNL     1     -45.586  62.424 -50.907  1.00  0.00     0.164 HD
HETATM   10  H   UNL     1     -43.784  61.056 -51.358  1.00  0.00     0.192 HD
BRANCH   7  11
HETATM   11  C   UNL     1     -46.664  62.459 -49.093  1.00  0.00     0.129 C 
BRANCH  11  12
HETATM   12  C   UNL     1     -46.212  63.713 -48.318  1.00  0.00     0.004 C 
HETATM   13  C   UNL     1     -47.210  64.129 -47.222  1.00  0.00     0.010 C 
HETATM   14  C   UNL     1     -47.217  63.177 -46.016  1.00  0.00    -0.018 C 
HETATM   15  C   UNL     1     -48.168  63.690 -44.935  1.00  0.00     0.010 C 
HETATM   16  C   UNL     1     -45.802  63.003 -45.448  1.00  0.00     0.004 C 
HETATM   17  C   UNL     1     -44.808  62.564 -46.518  1.00  0.00     0.001 C 
HETATM   18  C   UNL     1     -44.812  63.514 -47.715  1.00  0.00     0.006 C 
ENDBRANCH  11  12
ENDBRANCH   7  11
ENDBRANCH   2   5
BRANCH   1  19
HETATM   19  C   UNL     1     -42.140  57.457 -51.330  1.00  0.00     0.121 A 
HETATM   20  N   UNL     1     -42.097  56.722 -50.179  1.00  0.00    -0.272 N 
HETATM   21  N   UNL     1     -41.647  55.469 -50.343  1.00  0.00    -0.174 NA
HETATM   22  H   UNL     1     -42.350  57.035 -49.246  1.00  0.00     0.189 HD
HETATM   23  C   UNL     1     -41.424  55.358 -51.662  1.00  0.00     0.089 A 
HETATM   24  C   UNL     1     -41.716  56.588 -52.315  1.00  0.00     0.071 A 
BRANCH  23  25
HETATM   25  C   UNL     1     -40.933  54.119 -52.267  1.00  0.00    -0.006 A 
HETATM   26  C   UNL     1     -40.180  53.203 -51.520  1.00  0.00     0.014 A 
HETATM   27  C   UNL     1     -39.732  52.009 -52.096  1.00  0.00     0.007 A 
HETATM   28  C   UNL     1     -40.022  51.714 -53.432  1.00  0.00    -0.062 A 
HETATM   29  C   UNL     1     -39.577  50.418 -54.044  1.00  0.00     0.048 C 
HETATM   30  C   UNL     1     -40.778  52.623 -54.179  1.00  0.00     0.007 A 
HETATM   31  C   UNL     1     -41.222  53.818 -53.604  1.00  0.00     0.014 A 
ENDBRANCH  23  25
ENDBRANCH   1  19
TORSDOF 5
ENDMDL
MODEL 5
REMARK VINA RESULT:      -8.1      5.648     11.195
REMARK  5 active torsions:
REMARK  status: ('A' for Active; 'I' for Inactive)
REMARK    1  A    between atoms: C_5  and  C_6 
REMARK    2  A    between atoms: C_10  and  C_11 
REMARK       I    between atoms: C_11  and  N_12 
REMARK    3  A    between atoms: N_12  and  N_13 
REMARK       I    between atoms: N_13  and  C_14 
REMARK       I    between atoms: C_14  and  N_15 
REMARK    4  A    between atoms: N_15  and  C_16 
REMARK    5  A    between atoms: C_16  and  C_17 
ROOT
HETATM    1  C   UNL     1     -41.179  58.694 -53.866  1.00  0.00     0.288 C 
HETATM    2  N   UNL     1     -42.065  59.110 -54.834  1.00  0.00    -0.261 N 
HETATM    3  O   UNL     1     -40.362  59.455 -53.351  1.00  0.00    -0.264 OA
HETATM    4  H   UNL     1     -42.732  58.497 -55.297  1.00  0.00     0.190 HD
ENDROOT
BRANCH   2   5
HETATM    5  N   UNL     1     -42.031  60.436 -55.290  1.00  0.00    -0.249 N 
HETATM    6  C   UNL     1     -42.106  60.608 -56.656  1.00  0.00     0.334 C 
HETATM    7  N   UNL     1     -42.222  61.928 -57.008  1.00  0.00    -0.341 N 
HETATM    8  O   UNL     1     -42.061  59.671 -57.448  1.00  0.00    -0.246 OA
HETATM    9  H   UNL     1     -41.842  62.585 -56.341  1.00  0.00     0.164 HD
HETATM   10  H   UNL     1     -42.481  61.114 -54.682  1.00  0.00     0.192 HD
BRANCH   7  11
HETATM   11  C   UNL     1     -42.210  62.329 -58.403  1.00  0.00     0.129 C 
BRANCH  11  12
HETATM   12  C   UNL     1     -41.012  61.760 -59.190  1.00  0.00     0.004 C 
HETATM   13  C   UNL     1     -41.295  61.627 -60.697  1.00  0.00     0.010 C 
HETATM   14  C   UNL     1     -41.350  62.980 -61.424  1.00  0.00    -0.018 C 
HETATM   15  C   UNL     1     -41.556  62.771 -62.924  1.00  0.00     0.010 C 
HETATM   16  C   UNL     1     -40.075  63.792 -61.164  1.00  0.00     0.004 C 
HETATM   17  C   UNL     1     -39.797  63.956 -59.673  1.00  0.00     0.001 C 
HETATM   18  C   UNL     1     -39.749  62.607 -58.958  1.00  0.00     0.006 C 
ENDBRANCH  11  12
ENDBRANCH   7  11
ENDBRANCH   2   5
BRANCH   1  19
HETATM   19  C   UNL     1     -41.282  57.306 -53.507  1.00  0.00     0.121 A 
HETATM   20  N   UNL     1     -42.248  56.843 -52.659  1.00  0.00    -0.272 N 
HETATM   21  N   UNL     1     -42.175  55.527 -52.407  1.00  0.00    -0.174 NA
HETATM   22  H   UNL     1     -42.976  57.389 -52.206  1.00  0.00     0.189 HD
HETATM   23  C   UNL     1     -41.147  55.096 -53.154  1.00  0.00     0.089 A 
HETATM   24  C   UNL     1     -40.556  56.185 -53.854  1.00  0.00     0.071 A 
BRANCH  23  25
HETATM   25  C   UNL     1     -40.739  53.690 -53.179  1.00  0.00    -0.006 A 
HETATM   26  C   UNL     1     -40.898  52.915 -54.337  1.00  0.00     0.014 A 
HETATM   27  C   UNL     1     -40.486  51.579 -54.363  1.00  0.00     0.007 A 
HETATM   28  C   UNL     1     -39.917  50.989 -53.231  1.00  0.00    -0.062 A 
HETATM   29  C   UNL     1     -39.439  49.568 -53.265  1.00  0.00     0.048 C 
HETATM   30  C   UNL     1     -39.751  51.760 -52.075  1.00  0.00     0.007 A 
HETATM   31  C   UNL     1     -40.167  53.095 -52.048  1.00  0.00     0.014 A 
ENDBRANCH  23  25
ENDBRANCH   1  19
TORSDOF 5
ENDMDL
MODEL 6
REMARK VINA RESULT:      -8.1      6.971     11.080
REMARK  5 active torsions:
REMARK  status: ('A' for Active; 'I' for Inactive)
REMARK    1  A    between atoms: C_5  and  C_6 
REMARK    2  A    between atoms: C_10  and  C_11 
REMARK       I    between atoms: C_11  and  N_12 
REMARK    3  A    between atoms: N_12  and  N_13 
REMARK       I    between atoms: N_13  and  C_14 
REMARK       I    between atoms: C_14  and  N_15 
REMARK    4  A    between atoms: N_15  and  C_16 
REMARK    5  A    between atoms: C_16  and  C_17 
ROOT
HETATM    1  C   UNL     1     -41.502  58.523 -53.626  1.00  0.00     0.288 C 
HETATM    2  N   UNL     1     -42.772  58.897 -53.248  1.00  0.00    -0.261 N 
HETATM    3  O   UNL     1     -40.581  59.331 -53.729  1.00  0.00    -0.264 OA
HETATM    4  H   UNL     1     -43.558  58.256 -53.183  1.00  0.00     0.190 HD
ENDROOT
BRANCH   2   5
HETATM    5  N   UNL     1     -43.058  60.247 -52.998  1.00  0.00    -0.249 N 
HETATM    6  C   UNL     1     -43.158  60.609 -51.672  1.00  0.00     0.334 C 
HETATM    7  N   UNL     1     -43.285  61.965 -51.510  1.00  0.00    -0.341 N 
HETATM    8  O   UNL     1     -43.142  59.791 -50.757  1.00  0.00    -0.246 OA
HETATM    9  H   UNL     1     -43.689  62.454 -52.297  1.00  0.00     0.164 HD
HETATM   10  H   UNL     1     -42.656  60.905 -53.660  1.00  0.00     0.192 HD
BRANCH   7  11
HETATM   11  C   UNL     1     -43.509  62.539 -50.197  1.00  0.00     0.129 C 
BRANCH  11  12
HETATM   12  C   UNL     1     -45.001  62.632 -49.818  1.00  0.00     0.004 C 
HETATM   13  C   UNL     1     -45.440  61.525 -48.842  1.00  0.00     0.010 C 
HETATM   14  C   UNL     1     -44.891  61.720 -47.420  1.00  0.00    -0.018 C 
HETATM   15  C   UNL     1     -45.427  60.634 -46.487  1.00  0.00     0.010 C 
HETATM   16  C   UNL     1     -45.245  63.113 -46.883  1.00  0.00     0.004 C 
HETATM   17  C   UNL     1     -44.791  64.221 -47.827  1.00  0.00     0.001 C 
HETATM   18  C   UNL     1     -45.337  64.016 -49.239  1.00  0.00     0.006 C 
ENDBRANCH  11  12
ENDBRANCH   7  11
ENDBRANCH   2   5
BRANCH   1  19
HETATM   19  C   UNL     1     -41.338  57.120 -53.892  1.00  0.00     0.121 A 
HETATM   20  N   UNL     1     -41.638  56.570 -55.106  1.00  0.00    -0.272 N 
HETATM   21  N   UNL     1     -41.457  55.243 -55.169  1.00  0.00    -0.174 NA
HETATM   22  H   UNL     1     -41.988  57.057 -55.927  1.00  0.00     0.189 HD
HETATM   23  C   UNL     1     -40.977  54.908 -53.960  1.00  0.00     0.089 A 
HETATM   24  C   UNL     1     -40.894  56.059 -53.128  1.00  0.00     0.071 A 
BRANCH  23  25
HETATM   25  C   UNL     1     -40.627  53.529 -53.616  1.00  0.00    -0.006 A 
HETATM   26  C   UNL     1     -40.690  52.510 -54.577  1.00  0.00     0.014 A 
HETATM   27  C   UNL     1     -40.333  51.198 -54.249  1.00  0.00     0.007 A 
HETATM   28  C   UNL     1     -39.915  50.879 -52.953  1.00  0.00    -0.062 A 
HETATM   29  C   UNL     1     -39.494  49.481 -52.606  1.00  0.00     0.048 C 
HETATM   30  C   UNL     1     -39.845  51.894 -51.993  1.00  0.00     0.007 A 
HETATM   31  C   UNL     1     -40.206  53.205 -52.320  1.00  0.00     0.014 A 
ENDBRANCH  23  25
ENDBRANCH   1  19
TORSDOF 5
ENDMDL
MODEL 7
REMARK VINA RESULT:      -8.0     16.857     21.934
REMARK  5 active torsions:
REMARK  status: ('A' for Active; 'I' for Inactive)
REMARK    1  A    between atoms: C_5  and  C_6 
REMARK    2  A    between atoms: C_10  and  C_11 
REMARK       I    between atoms: C_11  and  N_12 
REMARK    3  A    between atoms: N_12  and  N_13 
REMARK       I    between atoms: N_13  and  C_14 
REMARK       I    between atoms: C_14  and  N_15 
REMARK    4  A    between atoms: N_15  and  C_16 
REMARK    5  A    between atoms: C_16  and  C_17 
ROOT
HETATM    1  C   UNL     1     -34.723  40.850 -52.180  1.00  0.00     0.288 C 
HETATM    2  N   UNL     1     -34.313  41.751 -53.136  1.00  0.00    -0.261 N 
HETATM    3  O   UNL     1     -35.868  40.402 -52.146  1.00  0.00    -0.264 OA
HETATM    4  H   UNL     1     -33.383  42.160 -53.172  1.00  0.00     0.190 HD
ENDROOT
BRANCH   2   5
HETATM    5  N   UNL     1     -35.223  42.213 -54.099  1.00  0.00    -0.249 N 
HETATM    6  C   UNL     1     -35.036  41.747 -55.382  1.00  0.00     0.334 C 
HETATM    7  N   UNL     1     -36.050  42.120 -56.225  1.00  0.00    -0.341 N 
HETATM    8  O   UNL     1     -34.057  41.082 -55.712  1.00  0.00    -0.246 OA
HETATM    9  H   UNL     1     -36.540  42.963 -55.959  1.00  0.00     0.164 HD
HETATM   10  H   UNL     1     -36.169  42.364 -53.762  1.00  0.00     0.192 HD
BRANCH   7  11
HETATM   11  C   UNL     1     -35.989  41.817 -57.643  1.00  0.00     0.129 C 
BRANCH  11  12
HETATM   12  C   UNL     1     -37.379  41.663 -58.294  1.00  0.00     0.004 C 
HETATM   13  C   UNL     1     -37.307  41.144 -59.741  1.00  0.00     0.010 C 
HETATM   14  C   UNL     1     -36.911  39.662 -59.833  1.00  0.00    -0.018 C 
HETATM   15  C   UNL     1     -36.935  39.192 -61.288  1.00  0.00     0.010 C 
HETATM   16  C   UNL     1     -37.837  38.794 -58.972  1.00  0.00     0.004 C 
HETATM   17  C   UNL     1     -37.897  39.281 -57.528  1.00  0.00     0.001 C 
HETATM   18  C   UNL     1     -38.287  40.755 -57.447  1.00  0.00     0.006 C 
ENDBRANCH  11  12
ENDBRANCH   7  11
ENDBRANCH   2   5
BRANCH   1  19
HETATM   19  C   UNL     1     -33.715  40.480 -51.225  1.00  0.00     0.121 A 
HETATM   20  N   UNL     1     -32.384  40.496 -51.529  1.00  0.00    -0.272 N 
HETATM   21  N   UNL     1     -31.586  40.088 -50.531  1.00  0.00    -0.174 NA
HETATM   22  H   UNL     1     -31.963  40.763 -52.415  1.00  0.00     0.189 HD
HETATM   23  C   UNL     1     -32.422  39.833 -49.511  1.00  0.00     0.089 A 
HETATM   24  C   UNL     1     -33.768  40.061 -49.910  1.00  0.00     0.071 A 
BRANCH  23  25
HETATM   25  C   UNL     1     -31.941  39.372 -48.207  1.00  0.00    -0.006 A 
HETATM   26  C   UNL     1     -30.921  40.058 -47.533  1.00  0.00     0.014 A 
HETATM   27  C   UNL     1     -30.480  39.627 -46.278  1.00  0.00     0.007 A 
HETATM   28  C   UNL     1     -31.046  38.498 -45.676  1.00  0.00    -0.062 A 
HETATM   29  C   UNL     1     -30.604  38.053 -44.313  1.00  0.00     0.048 C 
HETATM   30  C   UNL     1     -32.068  37.814 -46.343  1.00  0.00     0.007 A 
HETATM   31  C   UNL     1     -32.505  38.243 -47.601  1.00  0.00     0.014 A 
ENDBRANCH  23  25
ENDBRANCH   1  19
TORSDOF 5
ENDMDL
MODEL 8
REMARK VINA RESULT:      -7.9      4.864     11.390
REMARK  5 active torsions:
REMARK  status: ('A' for Active; 'I' for Inactive)
REMARK    1  A    between atoms: C_5  and  C_6 
REMARK    2  A    between atoms: C_10  and  C_11 
REMARK       I    between atoms: C_11  and  N_12 
REMARK    3  A    between atoms: N_12  and  N_13 
REMARK       I    between atoms: N_13  and  C_14 
REMARK       I    between atoms: C_14  and  N_15 
REMARK    4  A    between atoms: N_15  and  C_16 
REMARK    5  A    between atoms: C_16  and  C_17 
ROOT
HETATM    1  C   UNL     1     -42.380  56.748 -56.561  1.00  0.00     0.288 C 
HETATM    2  N   UNL     1     -42.367  58.119 -56.439  1.00  0.00    -0.261 N 
HETATM    3  O   UNL     1     -42.812  56.180 -57.563  1.00  0.00    -0.264 OA
HETATM    4  H   UNL     1     -42.043  58.614 -55.613  1.00  0.00     0.190 HD
ENDROOT
BRANCH   2   5
HETATM    5  N   UNL     1     -42.891  58.918 -57.467  1.00  0.00    -0.249 N 
HETATM    6  C   UNL     1     -42.204  60.083 -57.737  1.00  0.00     0.334 C 
HETATM    7  N   UNL     1     -42.686  60.725 -58.848  1.00  0.00    -0.341 N 
HETATM    8  O   UNL     1     -41.276  60.484 -57.040  1.00  0.00    -0.246 OA
HETATM    9  H   UNL     1     -43.655  60.535 -59.067  1.00  0.00     0.164 HD
HETATM   10  H   UNL     1     -43.320  58.410 -58.234  1.00  0.00     0.192 HD
BRANCH   7  11
HETATM   11  C   UNL     1     -42.168  62.022 -59.240  1.00  0.00     0.129 C 
BRANCH  11  12
HETATM   12  C   UNL     1     -40.859  61.935 -60.051  1.00  0.00     0.004 C 
HETATM   13  C   UNL     1     -41.016  62.441 -61.496  1.00  0.00     0.010 C 
HETATM   14  C   UNL     1     -41.173  63.967 -61.589  1.00  0.00    -0.018 C 
HETATM   15  C   UNL     1     -41.245  64.408 -63.051  1.00  0.00     0.010 C 
HETATM   16  C   UNL     1     -40.021  64.680 -60.869  1.00  0.00     0.004 C 
HETATM   17  C   UNL     1     -39.871  64.207 -59.427  1.00  0.00     0.001 C 
HETATM   18  C   UNL     1     -39.721  62.690 -59.344  1.00  0.00     0.006 C 
ENDBRANCH  11  12
ENDBRANCH   7  11
ENDBRANCH   2   5
BRANCH   1  19
HETATM   19  C   UNL     1     -41.854  56.035 -55.430  1.00  0.00     0.121 A 
HETATM   20  N   UNL     1     -41.540  56.660 -54.257  1.00  0.00    -0.272 N 
HETATM   21  N   UNL     1     -41.030  55.848 -53.319  1.00  0.00    -0.174 NA
HETATM   22  H   UNL     1     -41.640  57.649 -54.047  1.00  0.00     0.189 HD
HETATM   23  C   UNL     1     -41.047  54.628 -53.881  1.00  0.00     0.089 A 
HETATM   24  C   UNL     1     -41.551  54.706 -55.209  1.00  0.00     0.071 A 
BRANCH  23  25
HETATM   25  C   UNL     1     -40.579  53.437 -53.170  1.00  0.00    -0.006 A 
HETATM   26  C   UNL     1     -40.536  53.406 -51.769  1.00  0.00     0.014 A 
HETATM   27  C   UNL     1     -40.110  52.258 -51.094  1.00  0.00     0.007 A 
HETATM   28  C   UNL     1     -39.711  51.122 -51.806  1.00  0.00    -0.062 A 
HETATM   29  C   UNL     1     -39.290  49.875 -51.087  1.00  0.00     0.048 C 
HETATM   30  C   UNL     1     -39.758  51.147 -53.204  1.00  0.00     0.007 A 
HETATM   31  C   UNL     1     -40.180  52.297 -53.879  1.00  0.00     0.014 A 
ENDBRANCH  23  25
ENDBRANCH   1  19
TORSDOF 5
ENDMDL
MODEL 9
REMARK VINA RESULT:      -7.9      7.631     10.516
REMARK  5 active torsions:
REMARK  status: ('A' for Active; 'I' for Inactive)
REMARK    1  A    between atoms: C_5  and  C_6 
REMARK    2  A    between atoms: C_10  and  C_11 
REMARK       I    between atoms: C_11  and  N_12 
REMARK    3  A    between atoms: N_12  and  N_13 
REMARK       I    between atoms: N_13  and  C_14 
REMARK       I    between atoms: C_14  and  N_15 
REMARK    4  A    between atoms: N_15  and  C_16 
REMARK    5  A    between atoms: C_16  and  C_17 
ROOT
HETATM    1  C   UNL     1     -44.145  59.904 -51.899  1.00  0.00     0.288 C 
HETATM    2  N   UNL     1     -43.326  58.832 -51.625  1.00  0.00    -0.261 N 
HETATM    3  O   UNL     1     -44.397  60.263 -53.047  1.00  0.00    -0.264 OA
HETATM    4  H   UNL     1     -43.078  58.530 -50.686  1.00  0.00     0.190 HD
ENDROOT
BRANCH   2   5
HETATM    5  N   UNL     1     -42.720  58.128 -52.676  1.00  0.00    -0.249 N 
HETATM    6  C   UNL     1     -42.032  56.987 -52.322  1.00  0.00     0.334 C 
HETATM    7  N   UNL     1     -41.603  56.278 -53.415  1.00  0.00    -0.341 N 
HETATM    8  O   UNL     1     -41.829  56.668 -51.154  1.00  0.00    -0.246 OA
HETATM    9  H   UNL     1     -41.467  56.824 -54.254  1.00  0.00     0.164 HD
HETATM   10  H   UNL     1     -43.225  58.145 -53.557  1.00  0.00     0.192 HD
BRANCH   7  11
HETATM   11  C   UNL     1     -40.770  55.101 -53.257  1.00  0.00     0.129 C 
BRANCH  11  12
HETATM   12  C   UNL     1     -41.562  53.845 -52.838  1.00  0.00     0.004 C 
HETATM   13  C   UNL     1     -41.321  52.647 -53.773  1.00  0.00     0.010 C 
HETATM   14  C   UNL     1     -39.924  52.027 -53.615  1.00  0.00    -0.018 C 
HETATM   15  C   UNL     1     -39.780  50.798 -54.513  1.00  0.00     0.010 C 
HETATM   16  C   UNL     1     -39.653  51.658 -52.151  1.00  0.00     0.004 C 
HETATM   17  C   UNL     1     -39.861  52.844 -51.215  1.00  0.00     0.001 C 
HETATM   18  C   UNL     1     -41.251  53.456 -51.383  1.00  0.00     0.006 C 
ENDBRANCH  11  12
ENDBRANCH   7  11
ENDBRANCH   2   5
BRANCH   1  19
HETATM   19  C   UNL     1     -44.677  60.571 -50.742  1.00  0.00     0.121 A 
HETATM   20  N   UNL     1     -45.980  60.973 -50.669  1.00  0.00    -0.272 N 
HETATM   21  N   UNL     1     -46.297  61.609 -49.531  1.00  0.00    -0.174 NA
HETATM   22  H   UNL     1     -46.696  60.853 -51.380  1.00  0.00     0.189 HD
HETATM   23  C   UNL     1     -45.168  61.587 -48.805  1.00  0.00     0.089 A 
HETATM   24  C   UNL     1     -44.126  60.949 -49.534  1.00  0.00     0.071 A 
BRANCH  23  25
HETATM   25  C   UNL     1     -45.093  62.173 -47.465  1.00  0.00    -0.006 A 
HETATM   26  C   UNL     1     -44.961  61.360 -46.331  1.00  0.00     0.014 A 
HETATM   27  C   UNL     1     -44.868  61.926 -45.055  1.00  0.00     0.007 A 
HETATM   28  C   UNL     1     -44.913  63.313 -44.888  1.00  0.00    -0.062 A 
HETATM   29  C   UNL     1     -44.774  63.927 -43.527  1.00  0.00     0.048 C 
HETATM   30  C   UNL     1     -45.038  64.128 -46.019  1.00  0.00     0.007 A 
HETATM   31  C   UNL     1     -45.137  63.562 -47.293  1.00  0.00     0.014 A 
ENDBRANCH  23  25
ENDBRANCH   1  19
TORSDOF 5
ENDMDL
MODEL 10
REMARK VINA RESULT:      -7.8      3.286     10.848
REMARK  5 active torsions:
REMARK  status: ('A' for Active; 'I' for Inactive)
REMARK    1  A    between atoms: C_5  and  C_6 
REMARK    2  A    between atoms: C_10  and  C_11 
REMARK       I    between atoms: C_11  and  N_12 
REMARK    3  A    between atoms: N_12  and  N_13 
REMARK       I    between atoms: N_13  and  C_14 
REMARK       I    between atoms: C_14  and  N_15 
REMARK    4  A    between atoms: N_15  and  C_16 
REMARK    5  A    between atoms: C_16  and  C_17 
ROOT
HETATM    1  C   UNL     1     -43.224  57.075 -55.164  1.00  0.00     0.288 C 
HETATM    2  N   UNL     1     -43.712  56.406 -56.264  1.00  0.00    -0.261 N 
HETATM    3  O   UNL     1     -43.406  58.278 -54.992  1.00  0.00    -0.264 OA
HETATM    4  H   UNL     1     -43.553  55.419 -56.447  1.00  0.00     0.190 HD
ENDROOT
BRANCH   2   5
HETATM    5  N   UNL     1     -44.417  57.107 -57.253  1.00  0.00    -0.249 N 
HETATM    6  C   UNL     1     -43.683  57.515 -58.347  1.00  0.00     0.334 C 
HETATM    7  N   UNL     1     -44.470  58.053 -59.331  1.00  0.00    -0.341 N 
HETATM    8  O   UNL     1     -42.461  57.407 -58.404  1.00  0.00    -0.246 OA
HETATM    9  H   UNL     1     -45.342  58.452 -59.013  1.00  0.00     0.164 HD
HETATM   10  H   UNL     1     -45.380  56.814 -57.388  1.00  0.00     0.192 HD
BRANCH   7  11
HETATM   11  C   UNL     1     -43.878  58.637 -60.520  1.00  0.00     0.129 C 
BRANCH  11  12
HETATM   12  C   UNL     1     -44.071  60.164 -60.610  1.00  0.00     0.004 C 
HETATM   13  C   UNL     1     -43.562  60.906 -59.361  1.00  0.00     0.010 C 
HETATM   14  C   UNL     1     -42.030  60.934 -59.256  1.00  0.00    -0.018 C 
HETATM   15  C   UNL     1     -41.592  61.750 -58.040  1.00  0.00     0.010 C 
HETATM   16  C   UNL     1     -41.404  61.502 -60.537  1.00  0.00     0.004 C 
HETATM   17  C   UNL     1     -41.879  60.758 -61.782  1.00  0.00     0.001 C 
HETATM   18  C   UNL     1     -43.403  60.731 -61.874  1.00  0.00     0.006 C 
ENDBRANCH  11  12
ENDBRANCH   7  11
ENDBRANCH   2   5
BRANCH   1  19
HETATM   19  C   UNL     1     -42.485  56.260 -54.239  1.00  0.00     0.121 A 
HETATM   20  N   UNL     1     -41.876  56.783 -53.134  1.00  0.00    -0.272 N 
HETATM   21  N   UNL     1     -41.203  55.886 -52.399  1.00  0.00    -0.174 NA
HETATM   22  H   UNL     1     -41.875  57.757 -52.841  1.00  0.00     0.189 HD
HETATM   23  C   UNL     1     -41.412  54.714 -53.020  1.00  0.00     0.089 A 
HETATM   24  C   UNL     1     -42.208  54.909 -54.184  1.00  0.00     0.071 A 
BRANCH  23  25
HETATM   25  C   UNL     1     -40.853  53.457 -52.520  1.00  0.00    -0.006 A 
HETATM   26  C   UNL     1     -40.337  52.497 -53.402  1.00  0.00     0.014 A 
HETATM   27  C   UNL     1     -39.783  51.307 -52.918  1.00  0.00     0.007 A 
HETATM   28  C   UNL     1     -39.743  51.051 -51.544  1.00  0.00    -0.062 A 
HETATM   29  C   UNL     1     -39.116  49.795 -51.016  1.00  0.00     0.048 C 
HETATM   30  C   UNL     1     -40.251  52.009 -50.659  1.00  0.00     0.007 A 
HETATM   31  C   UNL     1     -40.809  53.196 -51.144  1.00  0.00     0.014 A 
ENDBRANCH  23  25
ENDBRANCH   1  19
TORSDOF 5
ENDMDL
