MODEL 1
REMARK VINA RESULT:      -9.9      0.000      0.000
REMARK  8 active torsions:
REMARK  status: ('A' for Active; 'I' for Inactive)
REMARK    1  A    between atoms: C_2  and  C_3 
REMARK    2  A    between atoms: C_6  and  N_7 
REMARK       I    between atoms: N_7  and  C_8 
REMARK    3  A    between atoms: C_8  and  O_9 
REMARK    4  A    between atoms: O_9  and  C_10 
REMARK    5  A    between atoms: C_13  and  N_14 
REMARK       I    between atoms: N_14  and  C_15 
REMARK    6  A    between atoms: C_15  and  C_16 
REMARK    7  A    between atoms: N_19  and  C_20 
REMARK    8  A    between atoms: C_22  and  C_23 
ROOT
HETATM    1  C   UNL     1     -42.933  59.739 -55.946  1.00  0.00     0.189 C 
HETATM    2  C   UNL     1     -43.054  58.790 -54.749  1.00  0.00     0.184 C 
HETATM    3  C   UNL     1     -42.803  59.663 -53.522  1.00  0.00     0.177 C 
HETATM    4  C   UNL     1     -41.771  58.898 -52.708  1.00  0.00     0.139 C 
HETATM    5  C   UNL     1     -41.033  58.152 -53.813  1.00  0.00     0.196 C 
HETATM    6  O   UNL     1     -42.047  57.753 -54.751  1.00  0.00    -0.378 OA
HETATM    7  O   UNL     1     -42.241  60.899 -54.005  1.00  0.00    -0.378 OA
HETATM    8  C   UNL     1     -42.809  61.112 -55.304  1.00  0.00     0.203 C 
ENDROOT
BRANCH   4   9
HETATM    9  N   UNL     1     -42.347  57.955 -51.748  1.00  0.00    -0.351 N 
HETATM   10  C   UNL     1     -41.566  57.241 -50.864  1.00  0.00     0.222 C 
HETATM   11  O   UNL     1     -40.389  57.506 -50.651  1.00  0.00    -0.273 OA
HETATM   12  H   UNL     1     -43.272  57.596 -51.954  1.00  0.00     0.163 HD
BRANCH  10  13
HETATM   13  C   UNL     1     -42.300  56.063 -50.227  1.00  0.00     0.081 C 
HETATM   14  C   UNL     1     -42.917  55.126 -51.274  1.00  0.00     0.034 C 
HETATM   15  C   UNL     1     -41.904  54.164 -51.894  1.00  0.00     0.142 C 
HETATM   16  N   UNL     1     -41.179  53.482 -50.823  1.00  0.00    -0.214 N 
HETATM   17  C   UNL     1     -40.435  54.353 -49.921  1.00  0.00     0.142 C 
HETATM   18  C   UNL     1     -41.420  55.298 -49.231  1.00  0.00     0.034 C 
BRANCH  16  19
HETATM   19  C   UNL     1     -40.566  52.286 -51.173  1.00  0.00     0.724 A 
HETATM   20  N   UNL     1     -40.402  52.002 -52.475  1.00  0.00    -0.058 NA
HETATM   21  C   UNL     1     -39.895  50.793 -52.830  1.00  0.00     0.160 A 
HETATM   22  C   UNL     1     -39.544  49.850 -51.886  1.00  0.00     0.057 A 
HETATM   23  C   UNL     1     -39.728  50.219 -50.581  1.00  0.00     0.139 A 
HETATM   24  N   UNL     1     -40.231  51.410 -50.212  1.00  0.00    -0.075 NA
BRANCH  21  25
HETATM   25  C   UNL     1     -39.763  50.450 -54.302  1.00  0.00     0.435 C 
HETATM   26  F   UNL     1     -38.641  49.747 -54.620  1.00  0.00    -0.165 F 
HETATM   27  F   UNL     1     -40.809  49.695 -54.755  1.00  0.00    -0.165 F 
HETATM   28  F   UNL     1     -39.751  51.560 -55.096  1.00  0.00    -0.165 F 
ENDBRANCH  21  25
ENDBRANCH  16  19
ENDBRANCH  10  13
ENDBRANCH   4   9
BRANCH   1  29
HETATM   29  O   UNL     1     -41.738  59.469 -56.704  1.00  0.00    -0.293 OA
BRANCH  29  30
HETATM   30  C   UNL     1     -41.553  60.267 -57.783  1.00  0.00     0.365 C 
HETATM   31  N   UNL     1     -41.992  59.771 -58.982  1.00  0.00    -0.303 N 
HETATM   32  H   UNL     1     -41.830  60.442 -59.721  1.00  0.00     0.171 HD
HETATM   33  O   UNL     1     -41.035  61.379 -57.733  1.00  0.00    -0.238 OA
BRANCH  31  34
HETATM   34  C   UNL     1     -42.732  58.624 -59.317  1.00  0.00     0.036 A 
HETATM   35  C   UNL     1     -44.115  58.581 -59.494  1.00  0.00     0.030 A 
HETATM   36  C   UNL     1     -44.751  57.402 -59.911  1.00  0.00     0.017 A 
HETATM   37  C   UNL     1     -44.006  56.243 -60.146  1.00  0.00     0.009 A 
HETATM   38  C   UNL     1     -42.626  56.265 -59.923  1.00  0.00     0.017 A 
HETATM   39  C   UNL     1     -41.998  57.446 -59.513  1.00  0.00     0.030 A 
BRANCH  37  40
HETATM   40  C   UNL     1     -44.629  54.980 -60.632  1.00  0.00     0.155 C 
HETATM   41  C   UNL     1     -44.790  53.831 -59.670  1.00  0.00     0.096 C 
HETATM   42  O   UNL     1     -45.007  54.894 -61.798  1.00  0.00    -0.293 OA
ENDBRANCH  37  40
ENDBRANCH  31  34
ENDBRANCH  29  30
ENDBRANCH   1  29
TORSDOF 8
ENDMDL
MODEL 2
REMARK VINA RESULT:      -9.4      5.457      9.816
REMARK  8 active torsions:
REMARK  status: ('A' for Active; 'I' for Inactive)
REMARK    1  A    between atoms: C_2  and  C_3 
REMARK    2  A    between atoms: C_6  and  N_7 
REMARK       I    between atoms: N_7  and  C_8 
REMARK    3  A    between atoms: C_8  and  O_9 
REMARK    4  A    between atoms: O_9  and  C_10 
REMARK    5  A    between atoms: C_13  and  N_14 
REMARK       I    between atoms: N_14  and  C_15 
REMARK    6  A    between atoms: C_15  and  C_16 
REMARK    7  A    between atoms: N_19  and  C_20 
REMARK    8  A    between atoms: C_22  and  C_23 
ROOT
HETATM    1  C   UNL     1     -42.876  55.030 -50.677  1.00  0.00     0.189 C 
HETATM    2  C   UNL     1     -43.452  56.402 -51.042  1.00  0.00     0.184 C 
HETATM    3  C   UNL     1     -43.844  56.290 -52.514  1.00  0.00     0.177 C 
HETATM    4  C   UNL     1     -43.234  57.519 -53.170  1.00  0.00     0.139 C 
HETATM    5  C   UNL     1     -42.026  57.753 -52.270  1.00  0.00     0.196 C 
HETATM    6  O   UNL     1     -42.478  57.465 -50.937  1.00  0.00    -0.378 OA
HETATM    7  O   UNL     1     -43.216  55.093 -53.016  1.00  0.00    -0.378 OA
HETATM    8  C   UNL     1     -43.155  54.184 -51.910  1.00  0.00     0.203 C 
ENDROOT
BRANCH   4   9
HETATM    9  N   UNL     1     -44.110  58.693 -53.169  1.00  0.00    -0.351 N 
HETATM   10  C   UNL     1     -43.613  59.977 -53.124  1.00  0.00     0.222 C 
HETATM   11  O   UNL     1     -42.432  60.242 -53.317  1.00  0.00    -0.273 OA
HETATM   12  H   UNL     1     -45.070  58.549 -52.879  1.00  0.00     0.163 HD
BRANCH  10  13
HETATM   13  C   UNL     1     -44.667  61.019 -52.755  1.00  0.00     0.081 C 
HETATM   14  C   UNL     1     -45.868  60.400 -52.029  1.00  0.00     0.034 C 
HETATM   15  C   UNL     1     -45.607  60.134 -50.547  1.00  0.00     0.142 C 
HETATM   16  N   UNL     1     -45.090  61.354 -49.930  1.00  0.00    -0.214 N 
HETATM   17  C   UNL     1     -43.844  61.858 -50.493  1.00  0.00     0.142 C 
HETATM   18  C   UNL     1     -44.074  62.194 -51.967  1.00  0.00     0.034 C 
BRANCH  16  19
HETATM   19  C   UNL     1     -45.222  61.438 -48.549  1.00  0.00     0.724 A 
HETATM   20  N   UNL     1     -45.753  60.397 -47.889  1.00  0.00    -0.058 NA
HETATM   21  C   UNL     1     -45.979  60.507 -46.553  1.00  0.00     0.160 A 
HETATM   22  C   UNL     1     -45.676  61.661 -45.860  1.00  0.00     0.057 A 
HETATM   23  C   UNL     1     -45.127  62.671 -46.601  1.00  0.00     0.139 A 
HETATM   24  N   UNL     1     -44.898  62.581 -47.923  1.00  0.00    -0.075 NA
BRANCH  21  25
HETATM   25  C   UNL     1     -46.632  59.351 -45.817  1.00  0.00     0.435 C 
HETATM   26  F   UNL     1     -46.683  58.188 -46.524  1.00  0.00    -0.165 F 
HETATM   27  F   UNL     1     -45.985  59.045 -44.652  1.00  0.00    -0.165 F 
HETATM   28  F   UNL     1     -47.918  59.627 -45.452  1.00  0.00    -0.165 F 
ENDBRANCH  21  25
ENDBRANCH  16  19
ENDBRANCH  10  13
ENDBRANCH   4   9
BRANCH   1  29
HETATM   29  O   UNL     1     -41.452  55.102 -50.473  1.00  0.00    -0.293 OA
BRANCH  29  30
HETATM   30  C   UNL     1     -41.030  54.721 -49.243  1.00  0.00     0.365 C 
HETATM   31  N   UNL     1     -40.534  53.448 -49.144  1.00  0.00    -0.303 N 
HETATM   32  H   UNL     1     -40.227  53.263 -48.198  1.00  0.00     0.171 HD
HETATM   33  O   UNL     1     -41.063  55.445 -48.252  1.00  0.00    -0.238 OA
BRANCH  31  34
HETATM   34  C   UNL     1     -40.248  52.466 -50.108  1.00  0.00     0.036 A 
HETATM   35  C   UNL     1     -40.344  51.089 -49.907  1.00  0.00     0.030 A 
HETATM   36  C   UNL     1     -40.116  50.191 -50.961  1.00  0.00     0.017 A 
HETATM   37  C   UNL     1     -39.776  50.664 -52.231  1.00  0.00     0.009 A 
HETATM   38  C   UNL     1     -39.629  52.040 -52.427  1.00  0.00     0.017 A 
HETATM   39  C   UNL     1     -39.864  52.930 -51.374  1.00  0.00     0.030 A 
BRANCH  37  40
HETATM   40  C   UNL     1     -39.567  49.753 -53.391  1.00  0.00     0.155 C 
HETATM   41  C   UNL     1     -40.308  50.029 -54.674  1.00  0.00     0.096 C 
HETATM   42  O   UNL     1     -38.795  48.802 -53.292  1.00  0.00    -0.293 OA
ENDBRANCH  37  40
ENDBRANCH  31  34
ENDBRANCH  29  30
ENDBRANCH   1  29
TORSDOF 8
ENDMDL
MODEL 3
REMARK VINA RESULT:      -9.2      1.746      3.548
REMARK  8 active torsions:
REMARK  status: ('A' for Active; 'I' for Inactive)
REMARK    1  A    between atoms: C_2  and  C_3 
REMARK    2  A    between atoms: C_6  and  N_7 
REMARK       I    between atoms: N_7  and  C_8 
REMARK    3  A    between atoms: C_8  and  O_9 
REMARK    4  A    between atoms: O_9  and  C_10 
REMARK    5  A    between atoms: C_13  and  N_14 
REMARK       I    between atoms: N_14  and  C_15 
REMARK    6  A    between atoms: C_15  and  C_16 
REMARK    7  A    between atoms: N_19  and  C_20 
REMARK    8  A    between atoms: C_22  and  C_23 
ROOT
HETATM    1  C   UNL     1     -43.940  57.295 -55.926  1.00  0.00     0.189 C 
HETATM    2  C   UNL     1     -43.661  56.713 -54.537  1.00  0.00     0.184 C 
HETATM    3  C   UNL     1     -43.690  57.911 -53.590  1.00  0.00     0.177 C 
HETATM    4  C   UNL     1     -42.419  57.782 -52.766  1.00  0.00     0.139 C 
HETATM    5  C   UNL     1     -41.509  57.064 -53.755  1.00  0.00     0.196 C 
HETATM    6  O   UNL     1     -42.350  56.115 -54.432  1.00  0.00    -0.378 OA
HETATM    7  O   UNL     1     -43.631  59.089 -54.418  1.00  0.00    -0.378 OA
HETATM    8  C   UNL     1     -44.292  58.748 -55.643  1.00  0.00     0.203 C 
ENDROOT
BRANCH   4   9
HETATM    9  N   UNL     1     -42.577  56.989 -51.545  1.00  0.00    -0.351 N 
HETATM   10  C   UNL     1     -41.548  56.820 -50.643  1.00  0.00     0.222 C 
HETATM   11  O   UNL     1     -40.524  57.493 -50.667  1.00  0.00    -0.273 OA
HETATM   12  H   UNL     1     -43.331  56.313 -51.530  1.00  0.00     0.163 HD
BRANCH  10  13
HETATM   13  C   UNL     1     -41.791  55.679 -49.659  1.00  0.00     0.081 C 
HETATM   14  C   UNL     1     -42.726  54.605 -50.231  1.00  0.00     0.034 C 
HETATM   15  C   UNL     1     -42.023  53.637 -51.183  1.00  0.00     0.142 C 
HETATM   16  N   UNL     1     -40.826  53.112 -50.528  1.00  0.00    -0.214 N 
HETATM   17  C   UNL     1     -39.839  54.112 -50.138  1.00  0.00     0.142 C 
HETATM   18  C   UNL     1     -40.483  55.070 -49.137  1.00  0.00     0.034 C 
BRANCH  16  19
HETATM   19  C   UNL     1     -40.330  51.920 -51.040  1.00  0.00     0.724 A 
HETATM   20  N   UNL     1     -40.282  51.761 -52.372  1.00  0.00    -0.058 NA
HETATM   21  C   UNL     1     -39.892  50.562 -52.881  1.00  0.00     0.160 A 
HETATM   22  C   UNL     1     -39.545  49.507 -52.063  1.00  0.00     0.057 A 
HETATM   23  C   UNL     1     -39.608  49.751 -50.719  1.00  0.00     0.139 A 
HETATM   24  N   UNL     1     -39.994  50.930 -50.197  1.00  0.00    -0.075 NA
BRANCH  21  25
HETATM   25  C   UNL     1     -39.892  50.364 -54.385  1.00  0.00     0.435 C 
HETATM   26  F   UNL     1     -39.798  51.516 -55.106  1.00  0.00    -0.165 F 
HETATM   27  F   UNL     1     -38.853  49.582 -54.807  1.00  0.00    -0.165 F 
HETATM   28  F   UNL     1     -41.019  49.734 -54.828  1.00  0.00    -0.165 F 
ENDBRANCH  21  25
ENDBRANCH  16  19
ENDBRANCH  10  13
ENDBRANCH   4   9
BRANCH   1  29
HETATM   29  O   UNL     1     -42.762  57.253 -56.753  1.00  0.00    -0.293 OA
BRANCH  29  30
HETATM   30  C   UNL     1     -42.934  56.677 -57.967  1.00  0.00     0.365 C 
HETATM   31  N   UNL     1     -42.751  57.494 -59.052  1.00  0.00    -0.303 N 
HETATM   32  H   UNL     1     -42.880  56.973 -59.910  1.00  0.00     0.171 HD
HETATM   33  O   UNL     1     -43.228  55.497 -58.131  1.00  0.00    -0.238 OA
BRANCH  31  34
HETATM   34  C   UNL     1     -42.285  58.814 -59.175  1.00  0.00     0.036 A 
HETATM   35  C   UNL     1     -41.825  59.606 -58.122  1.00  0.00     0.030 A 
HETATM   36  C   UNL     1     -41.300  60.886 -58.361  1.00  0.00     0.017 A 
HETATM   37  C   UNL     1     -41.242  61.393 -59.661  1.00  0.00     0.009 A 
HETATM   38  C   UNL     1     -41.746  60.625 -60.714  1.00  0.00     0.017 A 
HETATM   39  C   UNL     1     -42.261  59.347 -60.470  1.00  0.00     0.030 A 
BRANCH  37  40
HETATM   40  C   UNL     1     -40.653  62.727 -59.971  1.00  0.00     0.155 C 
HETATM   41  C   UNL     1     -40.793  63.277 -61.367  1.00  0.00     0.096 C 
HETATM   42  O   UNL     1     -40.074  63.359 -59.091  1.00  0.00    -0.293 OA
ENDBRANCH  37  40
ENDBRANCH  31  34
ENDBRANCH  29  30
ENDBRANCH   1  29
TORSDOF 8
ENDMDL
MODEL 4
REMARK VINA RESULT:      -9.1      1.977      2.962
REMARK  8 active torsions:
REMARK  status: ('A' for Active; 'I' for Inactive)
REMARK    1  A    between atoms: C_2  and  C_3 
REMARK    2  A    between atoms: C_6  and  N_7 
REMARK       I    between atoms: N_7  and  C_8 
REMARK    3  A    between atoms: C_8  and  O_9 
REMARK    4  A    between atoms: O_9  and  C_10 
REMARK    5  A    between atoms: C_13  and  N_14 
REMARK       I    between atoms: N_14  and  C_15 
REMARK    6  A    between atoms: C_15  and  C_16 
REMARK    7  A    between atoms: N_19  and  C_20 
REMARK    8  A    between atoms: C_22  and  C_23 
ROOT
HETATM    1  C   UNL     1     -43.532  61.981 -58.254  1.00  0.00     0.189 C 
HETATM    2  C   UNL     1     -43.987  60.881 -57.290  1.00  0.00     0.184 C 
HETATM    3  C   UNL     1     -43.939  61.522 -55.905  1.00  0.00     0.177 C 
HETATM    4  C   UNL     1     -43.174  60.525 -55.046  1.00  0.00     0.139 C 
HETATM    5  C   UNL     1     -42.278  59.875 -56.093  1.00  0.00     0.196 C 
HETATM    6  O   UNL     1     -43.092  59.747 -57.270  1.00  0.00    -0.378 OA
HETATM    7  O   UNL     1     -43.185  62.742 -56.043  1.00  0.00    -0.378 OA
HETATM    8  C   UNL     1     -43.438  63.216 -57.371  1.00  0.00     0.203 C 
ENDROOT
BRANCH   4   9
HETATM    9  N   UNL     1     -44.021  59.520 -54.400  1.00  0.00    -0.351 N 
HETATM   10  C   UNL     1     -43.892  59.203 -53.065  1.00  0.00     0.222 C 
HETATM   11  O   UNL     1     -43.243  59.883 -52.278  1.00  0.00    -0.273 OA
HETATM   12  H   UNL     1     -44.472  58.843 -55.003  1.00  0.00     0.163 HD
BRANCH  10  13
HETATM   13  C   UNL     1     -44.587  57.897 -52.686  1.00  0.00     0.081 C 
HETATM   14  C   UNL     1     -44.358  56.792 -53.725  1.00  0.00     0.034 C 
HETATM   15  C   UNL     1     -42.997  56.110 -53.591  1.00  0.00     0.142 C 
HETATM   16  N   UNL     1     -42.813  55.685 -52.205  1.00  0.00    -0.214 N 
HETATM   17  C   UNL     1     -42.848  56.754 -51.215  1.00  0.00     0.142 C 
HETATM   18  C   UNL     1     -44.218  57.430 -51.272  1.00  0.00     0.034 C 
BRANCH  16  19
HETATM   19  C   UNL     1     -41.875  54.681 -51.998  1.00  0.00     0.724 A 
HETATM   20  N   UNL     1     -41.453  53.967 -53.053  1.00  0.00    -0.058 NA
HETATM   21  C   UNL     1     -40.611  52.919 -52.849  1.00  0.00     0.160 A 
HETATM   22  C   UNL     1     -40.182  52.572 -51.585  1.00  0.00     0.057 A 
HETATM   23  C   UNL     1     -40.646  53.355 -50.564  1.00  0.00     0.139 A 
HETATM   24  N   UNL     1     -41.480  54.394 -50.747  1.00  0.00    -0.075 NA
BRANCH  21  25
HETATM   25  C   UNL     1     -40.180  52.077 -54.035  1.00  0.00     0.435 C 
HETATM   26  F   UNL     1     -41.113  51.181 -54.461  1.00  0.00    -0.165 F 
HETATM   27  F   UNL     1     -39.876  52.837 -55.130  1.00  0.00    -0.165 F 
HETATM   28  F   UNL     1     -39.052  51.352 -53.777  1.00  0.00    -0.165 F 
ENDBRANCH  21  25
ENDBRANCH  16  19
ENDBRANCH  10  13
ENDBRANCH   4   9
BRANCH   1  29
HETATM   29  O   UNL     1     -42.227  61.693 -58.793  1.00  0.00    -0.293 OA
BRANCH  29  30
HETATM   30  C   UNL     1     -42.089  61.933 -60.119  1.00  0.00     0.365 C 
HETATM   31  N   UNL     1     -42.194  60.843 -60.941  1.00  0.00    -0.303 N 
HETATM   32  H   UNL     1     -42.098  61.122 -61.909  1.00  0.00     0.171 HD
HETATM   33  O   UNL     1     -41.890  63.045 -60.597  1.00  0.00    -0.238 OA
BRANCH  31  34
HETATM   34  C   UNL     1     -42.550  59.505 -60.699  1.00  0.00     0.036 A 
HETATM   35  C   UNL     1     -41.656  58.472 -60.418  1.00  0.00     0.030 A 
HETATM   36  C   UNL     1     -42.118  57.184 -60.108  1.00  0.00     0.017 A 
HETATM   37  C   UNL     1     -43.488  56.912 -60.087  1.00  0.00     0.009 A 
HETATM   38  C   UNL     1     -44.388  57.929 -60.416  1.00  0.00     0.017 A 
HETATM   39  C   UNL     1     -43.921  59.213 -60.719  1.00  0.00     0.030 A 
BRANCH  37  40
HETATM   40  C   UNL     1     -44.029  55.573 -59.721  1.00  0.00     0.155 C 
HETATM   41  C   UNL     1     -44.928  54.860 -60.698  1.00  0.00     0.096 C 
HETATM   42  O   UNL     1     -43.733  55.068 -58.640  1.00  0.00    -0.293 OA
ENDBRANCH  37  40
ENDBRANCH  31  34
ENDBRANCH  29  30
ENDBRANCH   1  29
TORSDOF 8
ENDMDL
MODEL 5
REMARK VINA RESULT:      -9.0      1.673      2.066
REMARK  8 active torsions:
REMARK  status: ('A' for Active; 'I' for Inactive)
REMARK    1  A    between atoms: C_2  and  C_3 
REMARK    2  A    between atoms: C_6  and  N_7 
REMARK       I    between atoms: N_7  and  C_8 
REMARK    3  A    between atoms: C_8  and  O_9 
REMARK    4  A    between atoms: O_9  and  C_10 
REMARK    5  A    between atoms: C_13  and  N_14 
REMARK       I    between atoms: N_14  and  C_15 
REMARK    6  A    between atoms: C_15  and  C_16 
REMARK    7  A    between atoms: N_19  and  C_20 
REMARK    8  A    between atoms: C_22  and  C_23 
ROOT
HETATM    1  C   UNL     1     -44.943  60.626 -54.712  1.00  0.00     0.189 C 
HETATM    2  C   UNL     1     -44.804  59.519 -53.662  1.00  0.00     0.184 C 
HETATM    3  C   UNL     1     -43.343  59.573 -53.219  1.00  0.00     0.177 C 
HETATM    4  C   UNL     1     -42.863  58.132 -53.301  1.00  0.00     0.139 C 
HETATM    5  C   UNL     1     -43.754  57.597 -54.415  1.00  0.00     0.196 C 
HETATM    6  O   UNL     1     -45.041  58.200 -54.202  1.00  0.00    -0.378 OA
HETATM    7  O   UNL     1     -42.650  60.385 -54.187  1.00  0.00    -0.378 OA
HETATM    8  C   UNL     1     -43.605  61.347 -54.654  1.00  0.00     0.203 C 
ENDROOT
BRANCH   4   9
HETATM    9  N   UNL     1     -43.064  57.365 -52.069  1.00  0.00    -0.351 N 
HETATM   10  C   UNL     1     -42.020  57.044 -51.228  1.00  0.00     0.222 C 
HETATM   11  O   UNL     1     -40.912  57.562 -51.313  1.00  0.00    -0.273 OA
HETATM   12  H   UNL     1     -43.906  56.805 -52.009  1.00  0.00     0.163 HD
BRANCH  10  13
HETATM   13  C   UNL     1     -42.369  55.946 -50.227  1.00  0.00     0.081 C 
HETATM   14  C   UNL     1     -43.165  54.803 -50.870  1.00  0.00     0.034 C 
HETATM   15  C   UNL     1     -42.289  53.820 -51.647  1.00  0.00     0.142 C 
HETATM   16  N   UNL     1     -41.188  53.384 -50.791  1.00  0.00    -0.214 N 
HETATM   17  C   UNL     1     -40.310  54.446 -50.315  1.00  0.00     0.142 C 
HETATM   18  C   UNL     1     -41.134  55.425 -49.479  1.00  0.00     0.034 C 
BRANCH  16  19
HETATM   19  C   UNL     1     -40.576  52.190 -51.152  1.00  0.00     0.724 A 
HETATM   20  N   UNL     1     -40.425  51.912 -52.456  1.00  0.00    -0.058 NA
HETATM   21  C   UNL     1     -39.919  50.705 -52.821  1.00  0.00     0.160 A 
HETATM   22  C   UNL     1     -39.557  49.759 -51.884  1.00  0.00     0.057 A 
HETATM   23  C   UNL     1     -39.729  50.122 -50.577  1.00  0.00     0.139 A 
HETATM   24  N   UNL     1     -40.230  51.311 -50.197  1.00  0.00    -0.075 NA
BRANCH  21  25
HETATM   25  C   UNL     1     -39.802  50.369 -54.296  1.00  0.00     0.435 C 
HETATM   26  F   UNL     1     -40.906  49.775 -54.829  1.00  0.00    -0.165 F 
HETATM   27  F   UNL     1     -39.573  51.475 -55.065  1.00  0.00    -0.165 F 
HETATM   28  F   UNL     1     -38.759  49.528 -54.558  1.00  0.00    -0.165 F 
ENDBRANCH  21  25
ENDBRANCH  16  19
ENDBRANCH  10  13
ENDBRANCH   4   9
BRANCH   1  29
HETATM   29  O   UNL     1     -45.117  60.071 -56.031  1.00  0.00    -0.293 OA
BRANCH  29  30
HETATM   30  C   UNL     1     -45.864  60.823 -56.874  1.00  0.00     0.365 C 
HETATM   31  N   UNL     1     -46.177  60.247 -58.077  1.00  0.00    -0.303 N 
HETATM   32  H   UNL     1     -46.751  60.872 -58.628  1.00  0.00     0.171 HD
HETATM   33  O   UNL     1     -46.264  61.954 -56.613  1.00  0.00    -0.238 OA
BRANCH  31  34
HETATM   34  C   UNL     1     -45.985  58.950 -58.583  1.00  0.00     0.036 A 
HETATM   35  C   UNL     1     -47.002  58.090 -59.000  1.00  0.00     0.030 A 
HETATM   36  C   UNL     1     -46.701  56.844 -59.571  1.00  0.00     0.017 A 
HETATM   37  C   UNL     1     -45.373  56.438 -59.720  1.00  0.00     0.009 A 
HETATM   38  C   UNL     1     -44.351  57.273 -59.260  1.00  0.00     0.017 A 
HETATM   39  C   UNL     1     -44.657  58.517 -58.698  1.00  0.00     0.030 A 
BRANCH  37  40
HETATM   40  C   UNL     1     -45.002  55.144 -60.360  1.00  0.00     0.155 C 
HETATM   41  C   UNL     1     -44.635  53.977 -59.480  1.00  0.00     0.096 C 
HETATM   42  O   UNL     1     -45.008  55.043 -61.584  1.00  0.00    -0.293 OA
ENDBRANCH  37  40
ENDBRANCH  31  34
ENDBRANCH  29  30
ENDBRANCH   1  29
TORSDOF 8
ENDMDL
MODEL 6
REMARK VINA RESULT:      -8.9      4.855     10.346
REMARK  8 active torsions:
REMARK  status: ('A' for Active; 'I' for Inactive)
REMARK    1  A    between atoms: C_2  and  C_3 
REMARK    2  A    between atoms: C_6  and  N_7 
REMARK       I    between atoms: N_7  and  C_8 
REMARK    3  A    between atoms: C_8  and  O_9 
REMARK    4  A    between atoms: O_9  and  C_10 
REMARK    5  A    between atoms: C_13  and  N_14 
REMARK       I    between atoms: N_14  and  C_15 
REMARK    6  A    between atoms: C_15  and  C_16 
REMARK    7  A    between atoms: N_19  and  C_20 
REMARK    8  A    between atoms: C_22  and  C_23 
ROOT
HETATM    1  C   UNL     1     -42.270  57.074 -52.095  1.00  0.00     0.189 C 
HETATM    2  C   UNL     1     -42.315  57.472 -53.573  1.00  0.00     0.184 C 
HETATM    3  C   UNL     1     -43.374  56.566 -54.197  1.00  0.00     0.177 C 
HETATM    4  C   UNL     1     -42.707  55.992 -55.438  1.00  0.00     0.139 C 
HETATM    5  C   UNL     1     -41.246  55.999 -55.005  1.00  0.00     0.196 C 
HETATM    6  O   UNL     1     -41.071  57.216 -54.262  1.00  0.00    -0.378 OA
HETATM    7  O   UNL     1     -43.634  55.519 -53.241  1.00  0.00    -0.378 OA
HETATM    8  C   UNL     1     -43.433  56.105 -51.948  1.00  0.00     0.203 C 
ENDROOT
BRANCH   4   9
HETATM    9  N   UNL     1     -42.890  56.802 -56.644  1.00  0.00    -0.351 N 
HETATM   10  C   UNL     1     -43.142  56.236 -57.875  1.00  0.00     0.222 C 
HETATM   11  O   UNL     1     -43.462  55.062 -58.015  1.00  0.00    -0.273 OA
HETATM   12  H   UNL     1     -42.514  57.743 -56.626  1.00  0.00     0.163 HD
BRANCH  10  13
HETATM   13  C   UNL     1     -42.926  57.202 -59.037  1.00  0.00     0.081 C 
HETATM   14  C   UNL     1     -43.602  56.721 -60.328  1.00  0.00     0.034 C 
HETATM   15  C   UNL     1     -45.103  57.007 -60.366  1.00  0.00     0.142 C 
HETATM   16  N   UNL     1     -45.326  58.418 -60.054  1.00  0.00    -0.214 N 
HETATM   17  C   UNL     1     -44.848  58.851 -58.748  1.00  0.00     0.142 C 
HETATM   18  C   UNL     1     -43.335  58.638 -58.686  1.00  0.00     0.034 C 
BRANCH  16  19
HETATM   19  C   UNL     1     -46.541  58.946 -60.475  1.00  0.00     0.724 A 
HETATM   20  N   UNL     1     -47.374  58.164 -61.178  1.00  0.00    -0.058 NA
HETATM   21  C   UNL     1     -48.519  58.700 -61.679  1.00  0.00     0.160 A 
HETATM   22  C   UNL     1     -48.844  60.026 -61.482  1.00  0.00     0.057 A 
HETATM   23  C   UNL     1     -47.950  60.753 -60.744  1.00  0.00     0.139 A 
HETATM   24  N   UNL     1     -46.812  60.241 -60.243  1.00  0.00    -0.075 NA
BRANCH  21  25
HETATM   25  C   UNL     1     -49.433  57.831 -62.522  1.00  0.00     0.435 C 
HETATM   26  F   UNL     1     -49.344  56.497 -62.262  1.00  0.00    -0.165 F 
HETATM   27  F   UNL     1     -50.752  58.149 -62.356  1.00  0.00    -0.165 F 
HETATM   28  F   UNL     1     -49.197  57.970 -63.860  1.00  0.00    -0.165 F 
ENDBRANCH  21  25
ENDBRANCH  16  19
ENDBRANCH  10  13
ENDBRANCH   4   9
BRANCH   1  29
HETATM   29  O   UNL     1     -41.045  56.384 -51.780  1.00  0.00    -0.293 OA
BRANCH  29  30
HETATM   30  C   UNL     1     -40.897  56.046 -50.476  1.00  0.00     0.365 C 
HETATM   31  N   UNL     1     -40.734  54.712 -50.216  1.00  0.00    -0.303 N 
HETATM   32  H   UNL     1     -40.611  54.560 -49.223  1.00  0.00     0.171 HD
HETATM   33  O   UNL     1     -40.894  56.856 -49.554  1.00  0.00    -0.238 OA
BRANCH  31  34
HETATM   34  C   UNL     1     -40.558  53.598 -51.055  1.00  0.00     0.036 A 
HETATM   35  C   UNL     1     -40.697  53.606 -52.443  1.00  0.00     0.030 A 
HETATM   36  C   UNL     1     -40.417  52.459 -53.201  1.00  0.00     0.017 A 
HETATM   37  C   UNL     1     -40.005  51.281 -52.572  1.00  0.00     0.009 A 
HETATM   38  C   UNL     1     -39.911  51.251 -51.178  1.00  0.00     0.017 A 
HETATM   39  C   UNL     1     -40.185  52.400 -50.429  1.00  0.00     0.030 A 
BRANCH  37  40
HETATM   40  C   UNL     1     -39.654  50.051 -53.336  1.00  0.00     0.155 C 
HETATM   41  C   UNL     1     -39.648  50.108 -54.842  1.00  0.00     0.096 C 
HETATM   42  O   UNL     1     -39.369  49.018 -52.736  1.00  0.00    -0.293 OA
ENDBRANCH  37  40
ENDBRANCH  31  34
ENDBRANCH  29  30
ENDBRANCH   1  29
TORSDOF 8
ENDMDL
MODEL 7
REMARK VINA RESULT:      -8.9      2.247      4.465
REMARK  8 active torsions:
REMARK  status: ('A' for Active; 'I' for Inactive)
REMARK    1  A    between atoms: C_2  and  C_3 
REMARK    2  A    between atoms: C_6  and  N_7 
REMARK       I    between atoms: N_7  and  C_8 
REMARK    3  A    between atoms: C_8  and  O_9 
REMARK    4  A    between atoms: O_9  and  C_10 
REMARK    5  A    between atoms: C_13  and  N_14 
REMARK       I    between atoms: N_14  and  C_15 
REMARK    6  A    between atoms: C_15  and  C_16 
REMARK    7  A    between atoms: N_19  and  C_20 
REMARK    8  A    between atoms: C_22  and  C_23 
ROOT
HETATM    1  C   UNL     1     -43.968  57.190 -57.864  1.00  0.00     0.189 C 
HETATM    2  C   UNL     1     -43.845  57.319 -56.342  1.00  0.00     0.184 C 
HETATM    3  C   UNL     1     -44.595  58.602 -55.990  1.00  0.00     0.177 C 
HETATM    4  C   UNL     1     -43.638  59.376 -55.098  1.00  0.00     0.139 C 
HETATM    5  C   UNL     1     -42.295  58.884 -55.626  1.00  0.00     0.196 C 
HETATM    6  O   UNL     1     -42.479  57.486 -55.901  1.00  0.00    -0.378 OA
HETATM    7  O   UNL     1     -44.804  59.308 -57.229  1.00  0.00    -0.378 OA
HETATM    8  C   UNL     1     -44.933  58.302 -58.242  1.00  0.00     0.203 C 
ENDROOT
BRANCH   4   9
HETATM    9  N   UNL     1     -43.771  59.071 -53.672  1.00  0.00    -0.351 N 
HETATM   10  C   UNL     1     -43.096  59.783 -52.704  1.00  0.00     0.222 C 
HETATM   11  O   UNL     1     -42.534  60.848 -52.931  1.00  0.00    -0.273 OA
HETATM   12  H   UNL     1     -44.103  58.144 -53.429  1.00  0.00     0.163 HD
BRANCH  10  13
HETATM   13  C   UNL     1     -43.073  59.084 -51.347  1.00  0.00     0.081 C 
HETATM   14  C   UNL     1     -43.865  57.770 -51.355  1.00  0.00     0.034 C 
HETATM   15  C   UNL     1     -43.093  56.604 -51.972  1.00  0.00     0.142 C 
HETATM   16  N   UNL     1     -41.779  56.515 -51.338  1.00  0.00    -0.214 N 
HETATM   17  C   UNL     1     -40.939  57.698 -51.478  1.00  0.00     0.142 C 
HETATM   18  C   UNL     1     -41.647  58.882 -50.820  1.00  0.00     0.034 C 
BRANCH  16  19
HETATM   19  C   UNL     1     -41.139  55.286 -51.440  1.00  0.00     0.724 A 
HETATM   20  N   UNL     1     -41.027  54.716 -52.650  1.00  0.00    -0.058 NA
HETATM   21  C   UNL     1     -40.492  53.470 -52.748  1.00  0.00     0.160 A 
HETATM   22  C   UNL     1     -40.063  52.778 -51.634  1.00  0.00     0.057 A 
HETATM   23  C   UNL     1     -40.200  53.431 -50.440  1.00  0.00     0.139 A 
HETATM   24  N   UNL     1     -40.728  54.662 -50.324  1.00  0.00    -0.075 NA
BRANCH  21  25
HETATM   25  C   UNL     1     -40.418  52.803 -54.109  1.00  0.00     0.435 C 
HETATM   26  F   UNL     1     -39.637  51.688 -54.149  1.00  0.00    -0.165 F 
HETATM   27  F   UNL     1     -41.646  52.407 -54.561  1.00  0.00    -0.165 F 
HETATM   28  F   UNL     1     -39.932  53.639 -55.073  1.00  0.00    -0.165 F 
ENDBRANCH  21  25
ENDBRANCH  16  19
ENDBRANCH  10  13
ENDBRANCH   4   9
BRANCH   1  29
HETATM   29  O   UNL     1     -42.702  57.430 -58.509  1.00  0.00    -0.293 OA
BRANCH  29  30
HETATM   30  C   UNL     1     -42.683  57.186 -59.841  1.00  0.00     0.365 C 
HETATM   31  N   UNL     1     -42.418  58.262 -60.647  1.00  0.00    -0.303 N 
HETATM   32  H   UNL     1     -42.405  57.979 -61.618  1.00  0.00     0.171 HD
HETATM   33  O   UNL     1     -42.876  56.080 -60.339  1.00  0.00    -0.238 OA
BRANCH  31  34
HETATM   34  C   UNL     1     -42.028  59.582 -60.365  1.00  0.00     0.036 A 
HETATM   35  C   UNL     1     -41.773  60.091 -59.091  1.00  0.00     0.030 A 
HETATM   36  C   UNL     1     -41.306  61.404 -58.921  1.00  0.00     0.017 A 
HETATM   37  C   UNL     1     -41.100  62.228 -60.029  1.00  0.00     0.009 A 
HETATM   38  C   UNL     1     -41.400  61.741 -61.304  1.00  0.00     0.017 A 
HETATM   39  C   UNL     1     -41.859  60.430 -61.467  1.00  0.00     0.030 A 
BRANCH  37  40
HETATM   40  C   UNL     1     -40.564  63.613 -59.903  1.00  0.00     0.155 C 
HETATM   41  C   UNL     1     -39.174  63.807 -59.354  1.00  0.00     0.096 C 
HETATM   42  O   UNL     1     -41.252  64.570 -60.253  1.00  0.00    -0.293 OA
ENDBRANCH  37  40
ENDBRANCH  31  34
ENDBRANCH  29  30
ENDBRANCH   1  29
TORSDOF 8
ENDMDL
MODEL 8
REMARK VINA RESULT:      -8.8      4.668     10.441
REMARK  8 active torsions:
REMARK  status: ('A' for Active; 'I' for Inactive)
REMARK    1  A    between atoms: C_2  and  C_3 
REMARK    2  A    between atoms: C_6  and  N_7 
REMARK       I    between atoms: N_7  and  C_8 
REMARK    3  A    between atoms: C_8  and  O_9 
REMARK    4  A    between atoms: O_9  and  C_10 
REMARK    5  A    between atoms: C_13  and  N_14 
REMARK       I    between atoms: N_14  and  C_15 
REMARK    6  A    between atoms: C_15  and  C_16 
REMARK    7  A    between atoms: N_19  and  C_20 
REMARK    8  A    between atoms: C_22  and  C_23 
ROOT
HETATM    1  C   UNL     1     -43.121  56.255 -52.559  1.00  0.00     0.189 C 
HETATM    2  C   UNL     1     -43.546  56.876 -53.894  1.00  0.00     0.184 C 
HETATM    3  C   UNL     1     -43.916  55.691 -54.784  1.00  0.00     0.177 C 
HETATM    4  C   UNL     1     -43.170  55.940 -56.086  1.00  0.00     0.139 C 
HETATM    5  C   UNL     1     -41.965  56.723 -55.580  1.00  0.00     0.196 C 
HETATM    6  O   UNL     1     -42.472  57.587 -54.549  1.00  0.00    -0.378 OA
HETATM    7  O   UNL     1     -43.402  54.513 -54.133  1.00  0.00    -0.378 OA
HETATM    8  C   UNL     1     -43.457  54.781 -52.726  1.00  0.00     0.203 C 
ENDROOT
BRANCH   4   9
HETATM    9  N   UNL     1     -43.923  56.731 -57.063  1.00  0.00    -0.351 N 
HETATM   10  C   UNL     1     -43.668  56.658 -58.415  1.00  0.00     0.222 C 
HETATM   11  O   UNL     1     -42.980  55.777 -58.917  1.00  0.00    -0.273 OA
HETATM   12  H   UNL     1     -44.399  57.556 -56.717  1.00  0.00     0.163 HD
BRANCH  10  13
HETATM   13  C   UNL     1     -44.281  57.811 -59.207  1.00  0.00     0.081 C 
HETATM   14  C   UNL     1     -44.429  59.083 -58.363  1.00  0.00     0.034 C 
HETATM   15  C   UNL     1     -43.125  59.869 -58.223  1.00  0.00     0.142 C 
HETATM   16  N   UNL     1     -42.556  60.086 -59.551  1.00  0.00    -0.214 N 
HETATM   17  C   UNL     1     -42.240  58.875 -60.299  1.00  0.00     0.142 C 
HETATM   18  C   UNL     1     -43.529  58.084 -60.516  1.00  0.00     0.034 C 
BRANCH  16  19
HETATM   19  C   UNL     1     -41.649  61.133 -59.658  1.00  0.00     0.724 A 
HETATM   20  N   UNL     1     -41.397  61.646 -60.873  1.00  0.00    -0.058 NA
HETATM   21  C   UNL     1     -40.439  62.602 -61.001  1.00  0.00     0.160 A 
HETATM   22  C   UNL     1     -39.721  63.057 -59.915  1.00  0.00     0.057 A 
HETATM   23  C   UNL     1     -40.045  62.495 -58.711  1.00  0.00     0.139 A 
HETATM   24  N   UNL     1     -40.987  61.547 -58.565  1.00  0.00    -0.075 NA
BRANCH  21  25
HETATM   25  C   UNL     1     -40.115  63.141 -62.382  1.00  0.00     0.435 C 
HETATM   26  F   UNL     1     -41.037  62.838 -63.337  1.00  0.00    -0.165 F 
HETATM   27  F   UNL     1     -40.006  64.503 -62.396  1.00  0.00    -0.165 F 
HETATM   28  F   UNL     1     -38.919  62.680 -62.853  1.00  0.00    -0.165 F 
ENDBRANCH  21  25
ENDBRANCH  16  19
ENDBRANCH  10  13
ENDBRANCH   4   9
BRANCH   1  29
HETATM   29  O   UNL     1     -41.701  56.389 -52.353  1.00  0.00    -0.293 OA
BRANCH  29  30
HETATM   30  C   UNL     1     -41.327  56.608 -51.069  1.00  0.00     0.365 C 
HETATM   31  N   UNL     1     -40.878  55.514 -50.379  1.00  0.00    -0.303 N 
HETATM   32  H   UNL     1     -40.604  55.778 -49.441  1.00  0.00     0.171 HD
HETATM   33  O   UNL     1     -41.364  57.706 -50.522  1.00  0.00    -0.238 OA
BRANCH  31  34
HETATM   34  C   UNL     1     -40.597  54.194 -50.774  1.00  0.00     0.036 A 
HETATM   35  C   UNL     1     -40.254  53.797 -52.066  1.00  0.00     0.030 A 
HETATM   36  C   UNL     1     -39.910  52.465 -52.342  1.00  0.00     0.017 A 
HETATM   37  C   UNL     1     -39.918  51.509 -51.323  1.00  0.00     0.009 A 
HETATM   38  C   UNL     1     -40.309  51.889 -50.037  1.00  0.00     0.017 A 
HETATM   39  C   UNL     1     -40.644  53.220 -49.767  1.00  0.00     0.030 A 
BRANCH  37  40
HETATM   40  C   UNL     1     -39.518  50.092 -51.557  1.00  0.00     0.155 C 
HETATM   41  C   UNL     1     -39.582  49.541 -52.958  1.00  0.00     0.096 C 
HETATM   42  O   UNL     1     -39.138  49.401 -50.615  1.00  0.00    -0.293 OA
ENDBRANCH  37  40
ENDBRANCH  31  34
ENDBRANCH  29  30
ENDBRANCH   1  29
TORSDOF 8
ENDMDL
MODEL 9
REMARK VINA RESULT:      -8.8      6.961     10.395
REMARK  8 active torsions:
REMARK  status: ('A' for Active; 'I' for Inactive)
REMARK    1  A    between atoms: C_2  and  C_3 
REMARK    2  A    between atoms: C_6  and  N_7 
REMARK       I    between atoms: N_7  and  C_8 
REMARK    3  A    between atoms: C_8  and  O_9 
REMARK    4  A    between atoms: O_9  and  C_10 
REMARK    5  A    between atoms: C_13  and  N_14 
REMARK       I    between atoms: N_14  and  C_15 
REMARK    6  A    between atoms: C_15  and  C_16 
REMARK    7  A    between atoms: N_19  and  C_20 
REMARK    8  A    between atoms: C_22  and  C_23 
ROOT
HETATM    1  C   UNL     1     -41.857  58.144 -53.683  1.00  0.00     0.189 C 
HETATM    2  C   UNL     1     -42.457  59.413 -53.069  1.00  0.00     0.184 C 
HETATM    3  C   UNL     1     -42.381  59.199 -51.559  1.00  0.00     0.177 C 
HETATM    4  C   UNL     1     -43.774  59.536 -51.051  1.00  0.00     0.139 C 
HETATM    5  C   UNL     1     -44.617  59.171 -52.268  1.00  0.00     0.196 C 
HETATM    6  O   UNL     1     -43.851  59.595 -53.407  1.00  0.00    -0.378 OA
HETATM    7  O   UNL     1     -42.101  57.800 -51.356  1.00  0.00    -0.378 OA
HETATM    8  C   UNL     1     -41.314  57.386 -52.481  1.00  0.00     0.203 C 
ENDROOT
BRANCH   4   9
HETATM    9  N   UNL     1     -43.959  60.947 -50.703  1.00  0.00    -0.351 N 
HETATM   10  C   UNL     1     -44.964  61.367 -49.859  1.00  0.00     0.222 C 
HETATM   11  O   UNL     1     -45.617  60.597 -49.164  1.00  0.00    -0.273 OA
HETATM   12  H   UNL     1     -43.553  61.632 -51.329  1.00  0.00     0.163 HD
BRANCH  10  13
HETATM   13  C   UNL     1     -45.216  62.872 -49.925  1.00  0.00     0.081 C 
HETATM   14  C   UNL     1     -45.168  63.408 -51.361  1.00  0.00     0.034 C 
HETATM   15  C   UNL     1     -46.457  63.156 -52.143  1.00  0.00     0.142 C 
HETATM   16  N   UNL     1     -47.592  63.633 -51.355  1.00  0.00    -0.214 N 
HETATM   17  C   UNL     1     -47.758  63.000 -50.054  1.00  0.00     0.142 C 
HETATM   18  C   UNL     1     -46.512  63.277 -49.212  1.00  0.00     0.034 C 
BRANCH  16  19
HETATM   19  C   UNL     1     -48.756  63.897 -52.068  1.00  0.00     0.724 A 
HETATM   20  N   UNL     1     -49.910  63.365 -51.636  1.00  0.00    -0.058 NA
HETATM   21  C   UNL     1     -51.035  63.535 -52.380  1.00  0.00     0.160 A 
HETATM   22  C   UNL     1     -51.019  64.238 -53.566  1.00  0.00     0.057 A 
HETATM   23  C   UNL     1     -49.808  64.760 -53.932  1.00  0.00     0.139 A 
HETATM   24  N   UNL     1     -48.685  64.601 -53.210  1.00  0.00    -0.075 NA
BRANCH  21  25
HETATM   25  C   UNL     1     -52.328  62.885 -51.921  1.00  0.00     0.435 C 
HETATM   26  F   UNL     1     -52.425  62.711 -50.574  1.00  0.00    -0.165 F 
HETATM   27  F   UNL     1     -53.429  63.612 -52.277  1.00  0.00    -0.165 F 
HETATM   28  F   UNL     1     -52.516  61.652 -52.476  1.00  0.00    -0.165 F 
ENDBRANCH  21  25
ENDBRANCH  16  19
ENDBRANCH  10  13
ENDBRANCH   4   9
BRANCH   1  29
HETATM   29  O   UNL     1     -42.872  57.344 -54.319  1.00  0.00    -0.293 OA
BRANCH  29  30
HETATM   30  C   UNL     1     -42.749  57.225 -55.663  1.00  0.00     0.365 C 
HETATM   31  N   UNL     1     -42.126  56.091 -56.111  1.00  0.00    -0.303 N 
HETATM   32  H   UNL     1     -42.099  56.081 -57.123  1.00  0.00     0.171 HD
HETATM   33  O   UNL     1     -43.164  58.055 -56.466  1.00  0.00    -0.238 OA
BRANCH  31  34
HETATM   34  C   UNL     1     -41.685  54.929 -55.453  1.00  0.00     0.036 A 
HETATM   35  C   UNL     1     -42.480  53.822 -55.157  1.00  0.00     0.030 A 
HETATM   36  C   UNL     1     -41.925  52.674 -54.571  1.00  0.00     0.017 A 
HETATM   37  C   UNL     1     -40.563  52.627 -54.262  1.00  0.00     0.009 A 
HETATM   38  C   UNL     1     -39.771  53.752 -54.511  1.00  0.00     0.017 A 
HETATM   39  C   UNL     1     -40.329  54.890 -55.101  1.00  0.00     0.030 A 
BRANCH  37  40
HETATM   40  C   UNL     1     -39.919  51.416 -53.680  1.00  0.00     0.155 C 
HETATM   41  C   UNL     1     -40.144  50.083 -54.345  1.00  0.00     0.096 C 
HETATM   42  O   UNL     1     -39.213  51.520 -52.680  1.00  0.00    -0.293 OA
ENDBRANCH  37  40
ENDBRANCH  31  34
ENDBRANCH  29  30
ENDBRANCH   1  29
TORSDOF 8
ENDMDL
MODEL 10
REMARK VINA RESULT:      -8.7      4.199      9.860
REMARK  8 active torsions:
REMARK  status: ('A' for Active; 'I' for Inactive)
REMARK    1  A    between atoms: C_2  and  C_3 
REMARK    2  A    between atoms: C_6  and  N_7 
REMARK       I    between atoms: N_7  and  C_8 
REMARK    3  A    between atoms: C_8  and  O_9 
REMARK    4  A    between atoms: O_9  and  C_10 
REMARK    5  A    between atoms: C_13  and  N_14 
REMARK       I    between atoms: N_14  and  C_15 
REMARK    6  A    between atoms: C_15  and  C_16 
REMARK    7  A    between atoms: N_19  and  C_20 
REMARK    8  A    between atoms: C_22  and  C_23 
ROOT
HETATM    1  C   UNL     1     -42.471  57.215 -53.123  1.00  0.00     0.189 C 
HETATM    2  C   UNL     1     -42.553  57.401 -54.641  1.00  0.00     0.184 C 
HETATM    3  C   UNL     1     -43.739  56.547 -55.083  1.00  0.00     0.177 C 
HETATM    4  C   UNL     1     -43.210  55.727 -56.250  1.00  0.00     0.139 C 
HETATM    5  C   UNL     1     -41.735  55.621 -55.879  1.00  0.00     0.196 C 
HETATM    6  O   UNL     1     -41.385  56.903 -55.331  1.00  0.00    -0.378 OA
HETATM    7  O   UNL     1     -44.061  55.686 -53.973  1.00  0.00    -0.378 OA
HETATM    8  C   UNL     1     -43.725  56.422 -52.790  1.00  0.00     0.203 C 
ENDROOT
BRANCH   4   9
HETATM    9  N   UNL     1     -43.367  56.373 -57.554  1.00  0.00    -0.351 N 
HETATM   10  C   UNL     1     -43.651  55.656 -58.697  1.00  0.00     0.222 C 
HETATM   11  O   UNL     1     -44.021  54.488 -58.676  1.00  0.00    -0.273 OA
HETATM   12  H   UNL     1     -42.952  57.291 -57.666  1.00  0.00     0.163 HD
BRANCH  10  13
HETATM   13  C   UNL     1     -43.403  56.445 -59.980  1.00  0.00     0.081 C 
HETATM   14  C   UNL     1     -44.541  57.427 -60.290  1.00  0.00     0.034 C 
HETATM   15  C   UNL     1     -44.462  58.719 -59.477  1.00  0.00     0.142 C 
HETATM   16  N   UNL     1     -43.120  59.284 -59.612  1.00  0.00    -0.214 N 
HETATM   17  C   UNL     1     -42.034  58.429 -59.151  1.00  0.00     0.142 C 
HETATM   18  C   UNL     1     -42.038  57.144 -59.980  1.00  0.00     0.034 C 
BRANCH  16  19
HETATM   19  C   UNL     1     -43.003  60.640 -59.330  1.00  0.00     0.724 A 
HETATM   20  N   UNL     1     -41.791  61.211 -59.407  1.00  0.00    -0.058 NA
HETATM   21  C   UNL     1     -41.648  62.511 -59.038  1.00  0.00     0.160 A 
HETATM   22  C   UNL     1     -42.716  63.256 -58.584  1.00  0.00     0.057 A 
HETATM   23  C   UNL     1     -43.920  62.606 -58.546  1.00  0.00     0.139 A 
HETATM   24  N   UNL     1     -44.079  61.321 -58.906  1.00  0.00    -0.075 NA
BRANCH  21  25
HETATM   25  C   UNL     1     -40.267  63.140 -59.071  1.00  0.00     0.435 C 
HETATM   26  F   UNL     1     -39.241  62.247 -59.120  1.00  0.00    -0.165 F 
HETATM   27  F   UNL     1     -40.095  63.957 -60.154  1.00  0.00    -0.165 F 
HETATM   28  F   UNL     1     -40.028  63.930 -57.984  1.00  0.00    -0.165 F 
ENDBRANCH  21  25
ENDBRANCH  16  19
ENDBRANCH  10  13
ENDBRANCH   4   9
BRANCH   1  29
HETATM   29  O   UNL     1     -41.316  56.436 -52.756  1.00  0.00    -0.293 OA
BRANCH  29  30
HETATM   30  C   UNL     1     -41.109  56.311 -51.423  1.00  0.00     0.365 C 
HETATM   31  N   UNL     1     -40.879  55.040 -50.967  1.00  0.00    -0.303 N 
HETATM   32  H   UNL     1     -40.716  55.048 -49.969  1.00  0.00     0.171 HD
HETATM   33  O   UNL     1     -41.110  57.253 -50.637  1.00  0.00    -0.238 OA
BRANCH  31  34
HETATM   34  C   UNL     1     -40.683  53.817 -51.631  1.00  0.00     0.036 A 
HETATM   35  C   UNL     1     -41.016  53.561 -52.962  1.00  0.00     0.030 A 
HETATM   36  C   UNL     1     -40.703  52.330 -53.558  1.00  0.00     0.017 A 
HETATM   37  C   UNL     1     -40.059  51.333 -52.822  1.00  0.00     0.009 A 
HETATM   38  C   UNL     1     -39.766  51.564 -51.475  1.00  0.00     0.017 A 
HETATM   39  C   UNL     1     -40.076  52.795 -50.888  1.00  0.00     0.030 A 
BRANCH  37  40
HETATM   40  C   UNL     1     -39.666  50.027 -53.422  1.00  0.00     0.155 C 
HETATM   41  C   UNL     1     -39.609  49.905 -54.923  1.00  0.00     0.096 C 
HETATM   42  O   UNL     1     -39.388  49.077 -52.694  1.00  0.00    -0.293 OA
ENDBRANCH  37  40
ENDBRANCH  31  34
ENDBRANCH  29  30
ENDBRANCH   1  29
TORSDOF 8
ENDMDL
