MODEL 1
REMARK VINA RESULT:      -9.2      0.000      0.000
REMARK  3 active torsions:
REMARK  status: ('A' for Active; 'I' for Inactive)
REMARK    1  A    between atoms: C_8  and  C_9 
REMARK    2  A    between atoms: C_12  and  C_13 
REMARK    3  A    between atoms: C_24  and  N_25 
ROOT
HETATM    1  C   UNL     1     -43.518  56.400 -56.367  1.00  0.00     0.073 C 
HETATM    2  C   UNL     1     -43.826  57.364 -55.283  1.00  0.00     0.062 A 
HETATM    3  N   UNL     1     -45.093  57.754 -55.064  1.00  0.00    -0.177 NA
HETATM    4  N   UNL     1     -45.004  58.606 -54.022  1.00  0.00    -0.256 N 
HETATM    5  H   UNL     1     -45.849  59.045 -53.675  1.00  0.00     0.191 HD
HETATM    6  C   UNL     1     -43.731  58.764 -53.581  1.00  0.00     0.175 A 
HETATM    7  C   UNL     1     -42.935  57.971 -54.365  1.00  0.00     0.034 A 
HETATM    8  C   UNL     1     -41.464  57.938 -54.139  1.00  0.00     0.105 A 
HETATM    9  C   UNL     1     -41.076  58.886 -53.001  1.00  0.00     0.080 A 
HETATM   10  C   UNL     1     -39.683  59.010 -52.726  1.00  0.00     0.100 C 
HETATM   11  N   UNL     1     -38.550  59.113 -52.496  1.00  0.00    -0.191 NA
HETATM   12  C   UNL     1     -41.988  59.620 -52.306  1.00  0.00     0.140 A 
HETATM   13  O   UNL     1     -43.367  59.551 -52.577  1.00  0.00    -0.279 OA
ENDROOT
BRANCH   8  14
HETATM   14  C   UNL     1     -41.116  56.480 -53.869  1.00  0.00    -0.044 A 
HETATM   15  C   UNL     1     -40.500  55.719 -54.874  1.00  0.00     0.009 A 
HETATM   16  C   UNL     1     -40.197  54.370 -54.667  1.00  0.00     0.013 A 
HETATM   17  C   UNL     1     -40.490  53.737 -53.448  1.00  0.00    -0.026 A 
HETATM   18  C   UNL     1     -41.083  54.508 -52.437  1.00  0.00     0.013 A 
HETATM   19  C   UNL     1     -41.390  55.858 -52.640  1.00  0.00     0.009 A 
BRANCH  17  20
HETATM   20  C   UNL     1     -40.198  52.307 -53.245  1.00  0.00    -0.026 A 
HETATM   21  C   UNL     1     -39.761  51.822 -52.000  1.00  0.00     0.012 A 
HETATM   22  C   UNL     1     -39.471  50.467 -51.814  1.00  0.00     0.001 A 
HETATM   23  C   UNL     1     -39.614  49.572 -52.871  1.00  0.00     0.000 A 
HETATM   24  C   UNL     1     -40.047  50.030 -54.112  1.00  0.00     0.001 A 
HETATM   25  C   UNL     1     -40.335  51.385 -54.297  1.00  0.00     0.012 A 
ENDBRANCH  17  20
ENDBRANCH   8  14
BRANCH  12  26
HETATM   26  N   UNL     1     -41.695  60.497 -51.285  1.00  0.00    -0.282 NA
HETATM   27  H   UNL     1     -42.497  60.912 -50.816  1.00  0.00     0.126 HD
HETATM   28  H   UNL     1     -40.992  61.180 -51.556  1.00  0.00     0.126 HD
ENDBRANCH  12  26
TORSDOF 3
ENDMDL
MODEL 2
REMARK VINA RESULT:      -9.1      2.132      3.832
REMARK  3 active torsions:
REMARK  status: ('A' for Active; 'I' for Inactive)
REMARK    1  A    between atoms: C_8  and  C_9 
REMARK    2  A    between atoms: C_12  and  C_13 
REMARK    3  A    between atoms: C_24  and  N_25 
ROOT
HETATM    1  C   UNL     1     -43.301  57.559 -52.221  1.00  0.00     0.073 C 
HETATM    2  C   UNL     1     -42.725  58.423 -53.281  1.00  0.00     0.062 A 
HETATM    3  N   UNL     1     -42.164  59.602 -52.962  1.00  0.00    -0.177 NA
HETATM    4  N   UNL     1     -41.749  60.103 -54.143  1.00  0.00    -0.256 N 
HETATM    5  H   UNL     1     -41.292  61.008 -54.157  1.00  0.00     0.191 HD
HETATM    6  C   UNL     1     -42.026  59.284 -55.187  1.00  0.00     0.175 A 
HETATM    7  C   UNL     1     -42.654  58.179 -54.673  1.00  0.00     0.034 A 
HETATM    8  C   UNL     1     -43.106  57.090 -55.581  1.00  0.00     0.105 A 
HETATM    9  C   UNL     1     -42.787  57.439 -57.037  1.00  0.00     0.080 A 
HETATM   10  C   UNL     1     -43.235  56.515 -58.025  1.00  0.00     0.100 C 
HETATM   11  N   UNL     1     -43.595  55.763 -58.833  1.00  0.00    -0.191 NA
HETATM   12  C   UNL     1     -42.154  58.589 -57.401  1.00  0.00     0.140 A 
HETATM   13  O   UNL     1     -41.734  59.543 -56.455  1.00  0.00    -0.279 OA
ENDROOT
BRANCH   8  14
HETATM   14  C   UNL     1     -42.418  55.824 -55.090  1.00  0.00    -0.044 A 
HETATM   15  C   UNL     1     -43.195  54.752 -54.624  1.00  0.00     0.009 A 
HETATM   16  C   UNL     1     -42.592  53.588 -54.137  1.00  0.00     0.013 A 
HETATM   17  C   UNL     1     -41.195  53.451 -54.106  1.00  0.00    -0.026 A 
HETATM   18  C   UNL     1     -40.423  54.515 -54.595  1.00  0.00     0.013 A 
HETATM   19  C   UNL     1     -41.021  55.683 -55.082  1.00  0.00     0.009 A 
BRANCH  17  20
HETATM   20  C   UNL     1     -40.562  52.235 -53.562  1.00  0.00    -0.026 A 
HETATM   21  C   UNL     1     -40.439  51.070 -54.338  1.00  0.00     0.012 A 
HETATM   22  C   UNL     1     -39.851  49.914 -53.814  1.00  0.00     0.001 A 
HETATM   23  C   UNL     1     -39.375  49.904 -52.506  1.00  0.00     0.000 A 
HETATM   24  C   UNL     1     -39.485  51.049 -51.721  1.00  0.00     0.001 A 
HETATM   25  C   UNL     1     -40.073  52.203 -52.245  1.00  0.00     0.012 A 
ENDBRANCH  17  20
ENDBRANCH   8  14
BRANCH  12  26
HETATM   26  N   UNL     1     -41.855  58.961 -58.693  1.00  0.00    -0.282 NA
HETATM   27  H   UNL     1     -41.427  59.877 -58.800  1.00  0.00     0.126 HD
HETATM   28  H   UNL     1     -42.636  58.807 -59.326  1.00  0.00     0.126 HD
ENDBRANCH  12  26
TORSDOF 3
ENDMDL
MODEL 3
REMARK VINA RESULT:      -8.9      1.901      3.239
REMARK  3 active torsions:
REMARK  status: ('A' for Active; 'I' for Inactive)
REMARK    1  A    between atoms: C_8  and  C_9 
REMARK    2  A    between atoms: C_12  and  C_13 
REMARK    3  A    between atoms: C_24  and  N_25 
ROOT
HETATM    1  C   UNL     1     -44.322  57.181 -51.471  1.00  0.00     0.073 C 
HETATM    2  C   UNL     1     -43.623  58.362 -52.034  1.00  0.00     0.062 A 
HETATM    3  N   UNL     1     -43.309  59.403 -51.244  1.00  0.00    -0.177 NA
HETATM    4  N   UNL     1     -42.688  60.271 -52.068  1.00  0.00    -0.256 N 
HETATM    5  H   UNL     1     -42.359  61.154 -51.692  1.00  0.00     0.191 HD
HETATM    6  C   UNL     1     -42.600  59.814 -53.342  1.00  0.00     0.175 A 
HETATM    7  C   UNL     1     -43.187  58.577 -53.364  1.00  0.00     0.034 A 
HETATM    8  C   UNL     1     -43.266  57.813 -54.640  1.00  0.00     0.105 A 
HETATM    9  C   UNL     1     -42.653  58.620 -55.786  1.00  0.00     0.080 A 
HETATM   10  C   UNL     1     -42.729  58.038 -57.085  1.00  0.00     0.100 C 
HETATM   11  N   UNL     1     -42.786  57.566 -58.144  1.00  0.00    -0.191 NA
HETATM   12  C   UNL     1     -42.102  59.853 -55.611  1.00  0.00     0.140 A 
HETATM   13  O   UNL     1     -42.046  60.475 -54.350  1.00  0.00    -0.279 OA
ENDROOT
BRANCH   8  14
HETATM   14  C   UNL     1     -42.562  56.488 -54.377  1.00  0.00    -0.044 A 
HETATM   15  C   UNL     1     -43.305  55.298 -54.386  1.00  0.00     0.009 A 
HETATM   16  C   UNL     1     -42.693  54.069 -54.118  1.00  0.00     0.013 A 
HETATM   17  C   UNL     1     -41.319  53.986 -53.840  1.00  0.00    -0.026 A 
HETATM   18  C   UNL     1     -40.576  55.176 -53.857  1.00  0.00     0.013 A 
HETATM   19  C   UNL     1     -41.184  56.408 -54.123  1.00  0.00     0.009 A 
BRANCH  17  20
HETATM   20  C   UNL     1     -40.683  52.693 -53.527  1.00  0.00    -0.026 A 
HETATM   21  C   UNL     1     -40.631  51.658 -54.476  1.00  0.00     0.012 A 
HETATM   22  C   UNL     1     -40.040  50.429 -54.170  1.00  0.00     0.001 A 
HETATM   23  C   UNL     1     -39.491  50.212 -52.909  1.00  0.00     0.000 A 
HETATM   24  C   UNL     1     -39.529  51.225 -51.955  1.00  0.00     0.001 A 
HETATM   25  C   UNL     1     -40.121  52.454 -52.261  1.00  0.00     0.012 A 
ENDBRANCH  17  20
ENDBRANCH   8  14
BRANCH  12  26
HETATM   26  N   UNL     1     -41.550  60.629 -56.607  1.00  0.00    -0.282 NA
HETATM   27  H   UNL     1     -41.195  61.536 -56.313  1.00  0.00     0.126 HD
HETATM   28  H   UNL     1     -42.148  60.680 -57.428  1.00  0.00     0.126 HD
ENDBRANCH  12  26
TORSDOF 3
ENDMDL
MODEL 4
REMARK VINA RESULT:      -8.8      2.125      3.591
REMARK  3 active torsions:
REMARK  status: ('A' for Active; 'I' for Inactive)
REMARK    1  A    between atoms: C_8  and  C_9 
REMARK    2  A    between atoms: C_12  and  C_13 
REMARK    3  A    between atoms: C_24  and  N_25 
ROOT
HETATM    1  C   UNL     1     -43.601  57.951 -52.171  1.00  0.00     0.073 C 
HETATM    2  C   UNL     1     -42.945  58.806 -53.190  1.00  0.00     0.062 A 
HETATM    3  N   UNL     1     -42.384  59.975 -52.834  1.00  0.00    -0.177 NA
HETATM    4  N   UNL     1     -41.885  60.470 -53.985  1.00  0.00    -0.256 N 
HETATM    5  H   UNL     1     -41.413  61.367 -53.969  1.00  0.00     0.191 HD
HETATM    6  C   UNL     1     -42.110  59.656 -55.047  1.00  0.00     0.175 A 
HETATM    7  C   UNL     1     -42.788  58.563 -54.576  1.00  0.00     0.034 A 
HETATM    8  C   UNL     1     -43.201  57.482 -55.514  1.00  0.00     0.105 A 
HETATM    9  C   UNL     1     -42.784  57.827 -56.945  1.00  0.00     0.080 A 
HETATM   10  C   UNL     1     -43.184  56.911 -57.962  1.00  0.00     0.100 C 
HETATM   11  N   UNL     1     -43.505  56.167 -58.792  1.00  0.00    -0.191 NA
HETATM   12  C   UNL     1     -42.109  58.966 -57.266  1.00  0.00     0.140 A 
HETATM   13  O   UNL     1     -41.733  59.911 -56.293  1.00  0.00    -0.279 OA
ENDROOT
BRANCH   8  14
HETATM   14  C   UNL     1     -42.568  56.203 -54.982  1.00  0.00    -0.044 A 
HETATM   15  C   UNL     1     -41.170  56.091 -54.938  1.00  0.00     0.009 A 
HETATM   16  C   UNL     1     -40.560  54.918 -54.483  1.00  0.00     0.013 A 
HETATM   17  C   UNL     1     -41.322  53.821 -54.051  1.00  0.00    -0.026 A 
HETATM   18  C   UNL     1     -42.719  53.947 -54.073  1.00  0.00     0.013 A 
HETATM   19  C   UNL     1     -43.335  55.118 -54.528  1.00  0.00     0.009 A 
BRANCH  17  20
HETATM   20  C   UNL     1     -40.675  52.574 -53.603  1.00  0.00    -0.026 A 
HETATM   21  C   UNL     1     -40.108  52.468 -52.321  1.00  0.00     0.012 A 
HETATM   22  C   UNL     1     -39.483  51.289 -51.905  1.00  0.00     0.001 A 
HETATM   23  C   UNL     1     -39.414  50.195 -52.764  1.00  0.00     0.000 A 
HETATM   24  C   UNL     1     -39.971  50.278 -54.036  1.00  0.00     0.001 A 
HETATM   25  C   UNL     1     -40.595  51.457 -54.452  1.00  0.00     0.012 A 
ENDBRANCH  17  20
ENDBRANCH   8  14
BRANCH  12  26
HETATM   26  N   UNL     1     -41.721  59.334 -58.535  1.00  0.00    -0.282 NA
HETATM   27  H   UNL     1     -42.469  59.405 -59.221  1.00  0.00     0.126 HD
HETATM   28  H   UNL     1     -40.926  58.791 -58.865  1.00  0.00     0.126 HD
ENDBRANCH  12  26
TORSDOF 3
ENDMDL
MODEL 5
REMARK VINA RESULT:      -8.8      1.592      3.619
REMARK  3 active torsions:
REMARK  status: ('A' for Active; 'I' for Inactive)
REMARK    1  A    between atoms: C_8  and  C_9 
REMARK    2  A    between atoms: C_12  and  C_13 
REMARK    3  A    between atoms: C_24  and  N_25 
ROOT
HETATM    1  C   UNL     1     -41.656  56.790 -49.933  1.00  0.00     0.073 C 
HETATM    2  C   UNL     1     -41.236  57.872 -50.857  1.00  0.00     0.062 A 
HETATM    3  N   UNL     1     -40.405  58.840 -50.432  1.00  0.00    -0.177 NA
HETATM    4  N   UNL     1     -40.234  59.629 -51.511  1.00  0.00    -0.256 N 
HETATM    5  H   UNL     1     -39.641  60.448 -51.431  1.00  0.00     0.191 HD
HETATM    6  C   UNL     1     -40.924  59.194 -52.595  1.00  0.00     0.175 A 
HETATM    7  C   UNL     1     -41.583  58.053 -52.217  1.00  0.00     0.034 A 
HETATM    8  C   UNL     1     -42.451  57.337 -53.192  1.00  0.00     0.105 A 
HETATM    9  C   UNL     1     -42.472  58.075 -54.533  1.00  0.00     0.080 A 
HETATM   10  C   UNL     1     -43.326  57.539 -55.540  1.00  0.00     0.100 C 
HETATM   11  N   UNL     1     -44.019  57.105 -56.363  1.00  0.00    -0.191 NA
HETATM   12  C   UNL     1     -41.760  59.213 -54.763  1.00  0.00     0.140 A 
HETATM   13  O   UNL     1     -40.937  59.792 -53.779  1.00  0.00    -0.279 OA
ENDROOT
BRANCH   8  14
HETATM   14  C   UNL     1     -41.899  55.920 -53.280  1.00  0.00    -0.044 A 
HETATM   15  C   UNL     1     -42.552  54.881 -52.599  1.00  0.00     0.009 A 
HETATM   16  C   UNL     1     -42.052  53.575 -52.636  1.00  0.00     0.013 A 
HETATM   17  C   UNL     1     -40.891  53.261 -53.359  1.00  0.00    -0.026 A 
HETATM   18  C   UNL     1     -40.255  54.298 -54.058  1.00  0.00     0.013 A 
HETATM   19  C   UNL     1     -40.750  55.607 -54.024  1.00  0.00     0.009 A 
BRANCH  17  20
HETATM   20  C   UNL     1     -40.349  51.890 -53.369  1.00  0.00    -0.026 A 
HETATM   21  C   UNL     1     -40.322  51.126 -54.549  1.00  0.00     0.012 A 
HETATM   22  C   UNL     1     -39.821  49.821 -54.551  1.00  0.00     0.001 A 
HETATM   23  C   UNL     1     -39.337  49.257 -53.374  1.00  0.00     0.000 A 
HETATM   24  C   UNL     1     -39.352  49.996 -52.195  1.00  0.00     0.001 A 
HETATM   25  C   UNL     1     -39.854  51.301 -52.193  1.00  0.00     0.012 A 
ENDBRANCH  17  20
ENDBRANCH   8  14
BRANCH  12  26
HETATM   26  N   UNL     1     -41.752  59.925 -55.942  1.00  0.00    -0.282 NA
HETATM   27  H   UNL     1     -42.373  60.730 -55.975  1.00  0.00     0.126 HD
HETATM   28  H   UNL     1     -41.837  59.320 -56.755  1.00  0.00     0.126 HD
ENDBRANCH  12  26
TORSDOF 3
ENDMDL
MODEL 6
REMARK VINA RESULT:      -8.8      2.798      4.540
REMARK  3 active torsions:
REMARK  status: ('A' for Active; 'I' for Inactive)
REMARK    1  A    between atoms: C_8  and  C_9 
REMARK    2  A    between atoms: C_12  and  C_13 
REMARK    3  A    between atoms: C_24  and  N_25 
ROOT
HETATM    1  C   UNL     1     -43.237  58.468 -53.924  1.00  0.00     0.073 C 
HETATM    2  C   UNL     1     -42.703  58.821 -55.262  1.00  0.00     0.062 A 
HETATM    3  N   UNL     1     -42.054  59.983 -55.446  1.00  0.00    -0.177 NA
HETATM    4  N   UNL     1     -41.708  59.968 -56.750  1.00  0.00    -0.256 N 
HETATM    5  H   UNL     1     -41.205  60.761 -57.132  1.00  0.00     0.191 HD
HETATM    6  C   UNL     1     -42.114  58.842 -57.388  1.00  0.00     0.175 A 
HETATM    7  C   UNL     1     -42.758  58.067 -56.459  1.00  0.00     0.034 A 
HETATM    8  C   UNL     1     -43.342  56.757 -56.859  1.00  0.00     0.105 A 
HETATM    9  C   UNL     1     -43.123  56.506 -58.353  1.00  0.00     0.080 A 
HETATM   10  C   UNL     1     -43.699  55.318 -58.889  1.00  0.00     0.100 C 
HETATM   11  N   UNL     1     -44.165  54.351 -59.330  1.00  0.00    -0.191 NA
HETATM   12  C   UNL     1     -42.459  57.380 -59.160  1.00  0.00     0.140 A 
HETATM   13  O   UNL     1     -41.912  58.581 -58.673  1.00  0.00    -0.279 OA
ENDROOT
BRANCH   8  14
HETATM   14  C   UNL     1     -42.687  55.716 -55.960  1.00  0.00    -0.044 A 
HETATM   15  C   UNL     1     -41.291  55.571 -55.975  1.00  0.00     0.009 A 
HETATM   16  C   UNL     1     -40.663  54.604 -55.184  1.00  0.00     0.013 A 
HETATM   17  C   UNL     1     -41.405  53.754 -54.347  1.00  0.00    -0.026 A 
HETATM   18  C   UNL     1     -42.798  53.919 -54.318  1.00  0.00     0.013 A 
HETATM   19  C   UNL     1     -43.431  54.884 -55.108  1.00  0.00     0.009 A 
BRANCH  17  20
HETATM   20  C   UNL     1     -40.742  52.714 -53.540  1.00  0.00    -0.026 A 
HETATM   21  C   UNL     1     -40.494  52.904 -52.170  1.00  0.00     0.012 A 
HETATM   22  C   UNL     1     -39.852  51.921 -51.410  1.00  0.00     0.001 A 
HETATM   23  C   UNL     1     -39.448  50.730 -52.007  1.00  0.00     0.000 A 
HETATM   24  C   UNL     1     -39.687  50.520 -53.363  1.00  0.00     0.001 A 
HETATM   25  C   UNL     1     -40.327  51.503 -54.122  1.00  0.00     0.012 A 
ENDBRANCH  17  20
ENDBRANCH   8  14
BRANCH  12  26
HETATM   26  N   UNL     1     -42.246  57.213 -60.511  1.00  0.00    -0.282 NA
HETATM   27  H   UNL     1     -41.575  57.851 -60.933  1.00  0.00     0.126 HD
HETATM   28  H   UNL     1     -43.117  57.147 -61.031  1.00  0.00     0.126 HD
ENDBRANCH  12  26
TORSDOF 3
ENDMDL
MODEL 7
REMARK VINA RESULT:      -7.4      3.585      8.013
REMARK  3 active torsions:
REMARK  status: ('A' for Active; 'I' for Inactive)
REMARK    1  A    between atoms: C_8  and  C_9 
REMARK    2  A    between atoms: C_12  and  C_13 
REMARK    3  A    between atoms: C_24  and  N_25 
ROOT
HETATM    1  C   UNL     1     -41.526  55.974 -49.968  1.00  0.00     0.073 C 
HETATM    2  C   UNL     1     -42.336  55.538 -51.132  1.00  0.00     0.062 A 
HETATM    3  N   UNL     1     -43.012  54.378 -51.090  1.00  0.00    -0.177 NA
HETATM    4  N   UNL     1     -43.629  54.308 -52.287  1.00  0.00    -0.256 N 
HETATM    5  H   UNL     1     -44.204  53.499 -52.495  1.00  0.00     0.191 HD
HETATM    6  C   UNL     1     -43.366  55.380 -53.076  1.00  0.00     0.175 A 
HETATM    7  C   UNL     1     -42.537  56.206 -52.364  1.00  0.00     0.034 A 
HETATM    8  C   UNL     1     -42.049  57.474 -52.973  1.00  0.00     0.105 A 
HETATM    9  C   UNL     1     -42.583  57.624 -54.399  1.00  0.00     0.080 A 
HETATM   10  C   UNL     1     -42.132  58.761 -55.131  1.00  0.00     0.100 C 
HETATM   11  N   UNL     1     -41.770  59.688 -55.729  1.00  0.00    -0.191 NA
HETATM   12  C   UNL     1     -43.406  56.708 -54.982  1.00  0.00     0.140 A 
HETATM   13  O   UNL     1     -43.839  55.554 -54.303  1.00  0.00    -0.279 OA
ENDROOT
BRANCH   8  14
HETATM   14  C   UNL     1     -42.494  58.586 -52.032  1.00  0.00    -0.044 A 
HETATM   15  C   UNL     1     -43.863  58.794 -51.806  1.00  0.00     0.009 A 
HETATM   16  C   UNL     1     -44.303  59.827 -50.972  1.00  0.00     0.013 A 
HETATM   17  C   UNL     1     -43.393  60.681 -50.330  1.00  0.00    -0.026 A 
HETATM   18  C   UNL     1     -42.025  60.455 -50.540  1.00  0.00     0.013 A 
HETATM   19  C   UNL     1     -41.579  59.424 -51.374  1.00  0.00     0.009 A 
BRANCH  17  20
HETATM   20  C   UNL     1     -43.862  61.789 -49.477  1.00  0.00    -0.026 A 
HETATM   21  C   UNL     1     -43.535  63.124 -49.773  1.00  0.00     0.012 A 
HETATM   22  C   UNL     1     -43.970  64.171 -48.954  1.00  0.00     0.001 A 
HETATM   23  C   UNL     1     -44.739  63.901 -47.826  1.00  0.00     0.000 A 
HETATM   24  C   UNL     1     -45.076  62.587 -47.516  1.00  0.00     0.001 A 
HETATM   25  C   UNL     1     -44.641  61.541 -48.334  1.00  0.00     0.012 A 
ENDBRANCH  17  20
ENDBRANCH   8  14
BRANCH  12  26
HETATM   26  N   UNL     1     -43.904  56.784 -56.263  1.00  0.00    -0.282 NA
HETATM   27  H   UNL     1     -43.853  55.926 -56.808  1.00  0.00     0.126 HD
HETATM   28  H   UNL     1     -43.553  57.597 -56.763  1.00  0.00     0.126 HD
ENDBRANCH  12  26
TORSDOF 3
ENDMDL
MODEL 8
REMARK VINA RESULT:      -7.2      4.064      7.318
REMARK  3 active torsions:
REMARK  status: ('A' for Active; 'I' for Inactive)
REMARK    1  A    between atoms: C_8  and  C_9 
REMARK    2  A    between atoms: C_12  and  C_13 
REMARK    3  A    between atoms: C_24  and  N_25 
ROOT
HETATM    1  C   UNL     1     -39.988  56.210 -50.075  1.00  0.00     0.073 C 
HETATM    2  C   UNL     1     -40.237  54.826 -49.603  1.00  0.00     0.062 A 
HETATM    3  N   UNL     1     -40.586  54.599 -48.325  1.00  0.00    -0.177 NA
HETATM    4  N   UNL     1     -40.738  53.261 -48.253  1.00  0.00    -0.256 N 
HETATM    5  H   UNL     1     -40.998  52.845 -47.366  1.00  0.00     0.191 HD
HETATM    6  C   UNL     1     -40.498  52.642 -49.436  1.00  0.00     0.175 A 
HETATM    7  C   UNL     1     -40.176  53.619 -50.341  1.00  0.00     0.034 A 
HETATM    8  C   UNL     1     -39.839  53.253 -51.743  1.00  0.00     0.105 A 
HETATM    9  C   UNL     1     -39.891  51.734 -51.928  1.00  0.00     0.080 A 
HETATM   10  C   UNL     1     -39.515  51.236 -53.209  1.00  0.00     0.100 C 
HETATM   11  N   UNL     1     -39.212  50.826 -54.252  1.00  0.00    -0.191 NA
HETATM   12  C   UNL     1     -40.228  50.878 -50.923  1.00  0.00     0.140 A 
HETATM   13  O   UNL     1     -40.567  51.332 -49.636  1.00  0.00    -0.279 OA
ENDROOT
BRANCH   8  14
HETATM   14  C   UNL     1     -40.824  54.011 -52.622  1.00  0.00    -0.044 A 
HETATM   15  C   UNL     1     -40.344  54.788 -53.688  1.00  0.00     0.009 A 
HETATM   16  C   UNL     1     -41.222  55.520 -54.493  1.00  0.00     0.013 A 
HETATM   17  C   UNL     1     -42.607  55.497 -54.268  1.00  0.00    -0.026 A 
HETATM   18  C   UNL     1     -43.085  54.701 -53.216  1.00  0.00     0.013 A 
HETATM   19  C   UNL     1     -42.211  53.967 -52.406  1.00  0.00     0.009 A 
BRANCH  17  20
HETATM   20  C   UNL     1     -43.526  56.296 -55.098  1.00  0.00    -0.026 A 
HETATM   21  C   UNL     1     -43.285  56.493 -56.469  1.00  0.00     0.012 A 
HETATM   22  C   UNL     1     -44.151  57.263 -57.251  1.00  0.00     0.001 A 
HETATM   23  C   UNL     1     -45.274  57.850 -56.676  1.00  0.00     0.000 A 
HETATM   24  C   UNL     1     -45.534  57.667 -55.321  1.00  0.00     0.001 A 
HETATM   25  C   UNL     1     -44.667  56.897 -54.540  1.00  0.00     0.012 A 
ENDBRANCH  17  20
ENDBRANCH   8  14
BRANCH  12  26
HETATM   26  N   UNL     1     -40.278  49.505 -51.028  1.00  0.00    -0.282 NA
HETATM   27  H   UNL     1     -41.010  49.136 -51.630  1.00  0.00     0.126 HD
HETATM   28  H   UNL     1     -40.240  49.050 -50.119  1.00  0.00     0.126 HD
ENDBRANCH  12  26
TORSDOF 3
ENDMDL
MODEL 9
REMARK VINA RESULT:      -7.0      4.184      8.436
REMARK  3 active torsions:
REMARK  status: ('A' for Active; 'I' for Inactive)
REMARK    1  A    between atoms: C_8  and  C_9 
REMARK    2  A    between atoms: C_12  and  C_13 
REMARK    3  A    between atoms: C_24  and  N_25 
ROOT
HETATM    1  C   UNL     1     -41.428  57.268 -50.813  1.00  0.00     0.073 C 
HETATM    2  C   UNL     1     -42.429  56.723 -51.763  1.00  0.00     0.062 A 
HETATM    3  N   UNL     1     -42.691  55.405 -51.787  1.00  0.00    -0.177 NA
HETATM    4  N   UNL     1     -43.634  55.270 -52.741  1.00  0.00    -0.256 N 
HETATM    5  H   UNL     1     -43.991  54.344 -52.950  1.00  0.00     0.191 HD
HETATM    6  C   UNL     1     -43.973  56.452 -53.314  1.00  0.00     0.175 A 
HETATM    7  C   UNL     1     -43.221  57.422 -52.705  1.00  0.00     0.034 A 
HETATM    8  C   UNL     1     -43.352  58.842 -53.131  1.00  0.00     0.105 A 
HETATM    9  C   UNL     1     -44.362  58.968 -54.274  1.00  0.00     0.080 A 
HETATM   10  C   UNL     1     -44.531  60.268 -54.833  1.00  0.00     0.100 C 
HETATM   11  N   UNL     1     -44.674  61.326 -55.288  1.00  0.00    -0.191 NA
HETATM   12  C   UNL     1     -45.039  57.901 -54.784  1.00  0.00     0.140 A 
HETATM   13  O   UNL     1     -44.867  56.598 -54.284  1.00  0.00    -0.279 OA
ENDROOT
BRANCH   8  14
HETATM   14  C   UNL     1     -43.743  59.618 -51.880  1.00  0.00    -0.044 A 
HETATM   15  C   UNL     1     -42.865  60.583 -51.363  1.00  0.00     0.009 A 
HETATM   16  C   UNL     1     -43.183  61.290 -50.199  1.00  0.00     0.013 A 
HETATM   17  C   UNL     1     -44.388  61.064 -49.516  1.00  0.00    -0.026 A 
HETATM   18  C   UNL     1     -45.274  60.116 -50.050  1.00  0.00     0.013 A 
HETATM   19  C   UNL     1     -44.961  59.404 -51.214  1.00  0.00     0.009 A 
BRANCH  17  20
HETATM   20  C   UNL     1     -44.704  61.787 -48.271  1.00  0.00    -0.026 A 
HETATM   21  C   UNL     1     -44.763  63.191 -48.240  1.00  0.00     0.012 A 
HETATM   22  C   UNL     1     -45.049  63.875 -47.054  1.00  0.00     0.001 A 
HETATM   23  C   UNL     1     -45.282  63.167 -45.879  1.00  0.00     0.000 A 
HETATM   24  C   UNL     1     -45.231  61.776 -45.888  1.00  0.00     0.001 A 
HETATM   25  C   UNL     1     -44.944  61.093 -47.073  1.00  0.00     0.012 A 
ENDBRANCH  17  20
ENDBRANCH   8  14
BRANCH  12  26
HETATM   26  N   UNL     1     -45.946  57.953 -55.819  1.00  0.00    -0.282 NA
HETATM   27  H   UNL     1     -46.281  57.054 -56.158  1.00  0.00     0.126 HD
HETATM   28  H   UNL     1     -45.640  58.573 -56.566  1.00  0.00     0.126 HD
ENDBRANCH  12  26
TORSDOF 3
ENDMDL
MODEL 10
REMARK VINA RESULT:      -6.9     15.504     18.308
REMARK  3 active torsions:
REMARK  status: ('A' for Active; 'I' for Inactive)
REMARK    1  A    between atoms: C_8  and  C_9 
REMARK    2  A    between atoms: C_12  and  C_13 
REMARK    3  A    between atoms: C_24  and  N_25 
ROOT
HETATM    1  C   UNL     1     -36.700  42.279 -53.739  1.00  0.00     0.073 C 
HETATM    2  C   UNL     1     -35.847  41.274 -53.058  1.00  0.00     0.062 A 
HETATM    3  N   UNL     1     -36.186  40.810 -51.843  1.00  0.00    -0.177 NA
HETATM    4  N   UNL     1     -35.213  39.927 -51.541  1.00  0.00    -0.256 N 
HETATM    5  H   UNL     1     -35.249  39.444 -50.650  1.00  0.00     0.191 HD
HETATM    6  C   UNL     1     -34.280  39.818 -52.520  1.00  0.00     0.175 A 
HETATM    7  C   UNL     1     -34.655  40.670 -53.526  1.00  0.00     0.034 A 
HETATM    8  C   UNL     1     -33.815  40.793 -54.748  1.00  0.00     0.105 A 
HETATM    9  C   UNL     1     -32.577  39.899 -54.640  1.00  0.00     0.080 A 
HETATM   10  C   UNL     1     -31.643  39.975 -55.714  1.00  0.00     0.100 C 
HETATM   11  N   UNL     1     -30.880  40.032 -56.586  1.00  0.00    -0.191 NA
HETATM   12  C   UNL     1     -32.333  39.099 -53.565  1.00  0.00     0.140 A 
HETATM   13  O   UNL     1     -33.215  39.029 -52.470  1.00  0.00    -0.279 OA
ENDROOT
BRANCH   8  14
HETATM   14  C   UNL     1     -34.725  40.443 -55.918  1.00  0.00    -0.044 A 
HETATM   15  C   UNL     1     -35.292  39.161 -55.992  1.00  0.00     0.009 A 
HETATM   16  C   UNL     1     -36.107  38.799 -57.069  1.00  0.00     0.013 A 
HETATM   17  C   UNL     1     -36.390  39.705 -58.104  1.00  0.00    -0.026 A 
HETATM   18  C   UNL     1     -35.841  40.993 -58.013  1.00  0.00     0.013 A 
HETATM   19  C   UNL     1     -35.023  41.360 -56.938  1.00  0.00     0.009 A 
BRANCH  17  20
HETATM   20  C   UNL     1     -37.223  39.310 -59.254  1.00  0.00    -0.026 A 
HETATM   21  C   UNL     1     -38.397  38.557 -59.078  1.00  0.00     0.012 A 
HETATM   22  C   UNL     1     -39.177  38.172 -60.173  1.00  0.00     0.001 A 
HETATM   23  C   UNL     1     -38.797  38.532 -61.462  1.00  0.00     0.000 A 
HETATM   24  C   UNL     1     -37.639  39.280 -61.659  1.00  0.00     0.001 A 
HETATM   25  C   UNL     1     -36.860  39.664 -60.565  1.00  0.00     0.012 A 
ENDBRANCH  17  20
ENDBRANCH   8  14
BRANCH  12  26
HETATM   26  N   UNL     1     -31.233  38.286 -53.408  1.00  0.00    -0.282 NA
HETATM   27  H   UNL     1     -31.102  37.895 -52.478  1.00  0.00     0.126 HD
HETATM   28  H   UNL     1     -30.388  38.708 -53.788  1.00  0.00     0.126 HD
ENDBRANCH  12  26
TORSDOF 3
ENDMDL
