MODEL 1
REMARK VINA RESULT:      -8.8      0.000      0.000
REMARK  4 active torsions:
REMARK  status: ('A' for Active; 'I' for Inactive)
REMARK    1  A    between atoms: C_2  and  C_3 
REMARK    2  A    between atoms: C_10  and  C_11 
REMARK       I    between atoms: C_11  and  N_12 
REMARK    3  A    between atoms: N_12  and  C_13 
REMARK    4  A    between atoms: C_20  and  C_21 
REMARK       I    between atoms: C_21  and  N_22 
ROOT
HETATM    1  C   UNL     1     -42.585  56.621 -56.838  1.00  0.00     0.035 A 
HETATM    2  C   UNL     1     -43.177  55.902 -57.880  1.00  0.00     0.046 A 
HETATM    3  C   UNL     1     -44.324  56.414 -58.529  1.00  0.00     0.030 A 
HETATM    4  C   UNL     1     -44.850  57.628 -58.109  1.00  0.00     0.063 A 
HETATM    5  N   UNL     1     -45.937  57.848 -58.909  1.00  0.00    -0.277 N 
HETATM    6  H   UNL     1     -46.568  58.641 -58.882  1.00  0.00     0.189 HD
HETATM    7  N   UNL     1     -46.161  56.886 -59.820  1.00  0.00    -0.168 NA
HETATM    8  C   UNL     1     -45.170  55.993 -59.599  1.00  0.00     0.156 A 
HETATM    9  C   UNL     1     -44.294  58.376 -57.073  1.00  0.00     0.034 A 
HETATM   10  C   UNL     1     -43.154  57.847 -56.452  1.00  0.00     0.032 A 
ENDROOT
BRANCH   1  11
HETATM   11  N   UNL     1     -41.438  56.228 -56.123  1.00  0.00    -0.324 N 
HETATM   12  C   UNL     1     -41.207  55.744 -54.871  1.00  0.00     0.246 C 
HETATM   13  O   UNL     1     -40.056  55.462 -54.536  1.00  0.00    -0.268 OA
HETATM   14  H   UNL     1     -40.557  56.320 -56.615  1.00  0.00     0.169 HD
BRANCH  12  15
HETATM   15  C   UNL     1     -42.316  55.517 -53.929  1.00  0.00     0.082 C 
HETATM   16  C   UNL     1     -42.410  54.421 -53.154  1.00  0.00    -0.045 C 
HETATM   17  C   UNL     1     -43.566  54.205 -52.217  1.00  0.00     0.049 C 
BRANCH  16  18
HETATM   18  C   UNL     1     -41.394  53.347 -53.163  1.00  0.00    -0.008 A 
HETATM   19  C   UNL     1     -40.456  53.164 -52.133  1.00  0.00     0.044 A 
HETATM   20 CL   UNL     1     -40.395  54.201 -50.750  1.00  0.00    -0.083 Cl
HETATM   21  C   UNL     1     -39.522  52.124 -52.203  1.00  0.00     0.024 A 
HETATM   22  C   UNL     1     -39.513  51.261 -53.299  1.00  0.00     0.002 A 
HETATM   23  C   UNL     1     -40.434  51.437 -54.329  1.00  0.00     0.001 A 
HETATM   24  C   UNL     1     -41.368  52.472 -54.261  1.00  0.00     0.013 A 
ENDBRANCH  16  18
ENDBRANCH  12  15
ENDBRANCH   1  11
BRANCH   8  25
HETATM   25  C   UNL     1     -45.042  54.773 -60.408  1.00  0.00     0.270 C 
HETATM   26  N   UNL     1     -45.091  53.614 -59.682  1.00  0.00    -0.365 N 
HETATM   27  H   UNL     1     -45.211  53.676 -58.678  1.00  0.00     0.159 HD
HETATM   28  H   UNL     1     -45.018  52.725 -60.151  1.00  0.00     0.159 HD
HETATM   29  O   UNL     1     -44.912  54.758 -61.627  1.00  0.00    -0.266 OA
ENDBRANCH   8  25
TORSDOF 4
ENDMDL
MODEL 2
REMARK VINA RESULT:      -8.7      2.460      3.146
REMARK  4 active torsions:
REMARK  status: ('A' for Active; 'I' for Inactive)
REMARK    1  A    between atoms: C_2  and  C_3 
REMARK    2  A    between atoms: C_10  and  C_11 
REMARK       I    between atoms: C_11  and  N_12 
REMARK    3  A    between atoms: N_12  and  C_13 
REMARK    4  A    between atoms: C_20  and  C_21 
REMARK       I    between atoms: C_21  and  N_22 
ROOT
HETATM    1  C   UNL     1     -42.829  57.831 -53.158  1.00  0.00     0.035 A 
HETATM    2  C   UNL     1     -42.814  57.430 -54.498  1.00  0.00     0.046 A 
HETATM    3  C   UNL     1     -43.884  57.782 -55.351  1.00  0.00     0.030 A 
HETATM    4  C   UNL     1     -44.943  58.516 -54.837  1.00  0.00     0.063 A 
HETATM    5  N   UNL     1     -45.807  58.689 -55.883  1.00  0.00    -0.277 N 
HETATM    6  H   UNL     1     -46.695  59.178 -55.871  1.00  0.00     0.189 HD
HETATM    7  N   UNL     1     -45.398  58.139 -57.039  1.00  0.00    -0.168 NA
HETATM    8  C   UNL     1     -44.209  57.575 -56.726  1.00  0.00     0.156 A 
HETATM    9  C   UNL     1     -45.001  58.932 -53.508  1.00  0.00     0.034 A 
HETATM   10  C   UNL     1     -43.924  58.575 -52.686  1.00  0.00     0.032 A 
ENDROOT
BRANCH   1  11
HETATM   11  N   UNL     1     -41.822  57.557 -52.213  1.00  0.00    -0.324 N 
HETATM   12  C   UNL     1     -41.733  56.767 -51.106  1.00  0.00     0.246 C 
HETATM   13  O   UNL     1     -40.674  56.722 -50.480  1.00  0.00    -0.268 OA
HETATM   14  H   UNL     1     -40.946  58.051 -52.344  1.00  0.00     0.169 HD
BRANCH  12  15
HETATM   15  C   UNL     1     -42.871  55.938 -50.674  1.00  0.00     0.082 C 
HETATM   16  C   UNL     1     -43.080  54.685 -51.119  1.00  0.00    -0.045 C 
HETATM   17  C   UNL     1     -44.263  53.870 -50.677  1.00  0.00     0.049 C 
BRANCH  16  18
HETATM   18  C   UNL     1     -42.171  54.016 -52.073  1.00  0.00    -0.008 A 
HETATM   19  C   UNL     1     -40.998  53.348 -51.682  1.00  0.00     0.044 A 
HETATM   20 CL   UNL     1     -40.498  53.260 -50.028  1.00  0.00    -0.083 Cl
HETATM   21  C   UNL     1     -40.183  52.731 -52.637  1.00  0.00     0.024 A 
HETATM   22  C   UNL     1     -40.526  52.777 -53.989  1.00  0.00     0.002 A 
HETATM   23  C   UNL     1     -41.682  53.442 -54.388  1.00  0.00     0.001 A 
HETATM   24  C   UNL     1     -42.499  54.056 -53.437  1.00  0.00     0.013 A 
ENDBRANCH  16  18
ENDBRANCH  12  15
ENDBRANCH   1  11
BRANCH   8  25
HETATM   25  C   UNL     1     -43.407  56.868 -57.734  1.00  0.00     0.270 C 
HETATM   26  N   UNL     1     -43.582  55.510 -57.733  1.00  0.00    -0.365 N 
HETATM   27  H   UNL     1     -44.229  55.105 -57.067  1.00  0.00     0.159 HD
HETATM   28  H   UNL     1     -43.079  54.939 -58.393  1.00  0.00     0.159 HD
HETATM   29  O   UNL     1     -42.647  57.413 -58.527  1.00  0.00    -0.266 OA
ENDBRANCH   8  25
TORSDOF 4
ENDMDL
MODEL 3
REMARK VINA RESULT:      -8.6      3.066      4.377
REMARK  4 active torsions:
REMARK  status: ('A' for Active; 'I' for Inactive)
REMARK    1  A    between atoms: C_2  and  C_3 
REMARK    2  A    between atoms: C_10  and  C_11 
REMARK       I    between atoms: C_11  and  N_12 
REMARK    3  A    between atoms: N_12  and  C_13 
REMARK    4  A    between atoms: C_20  and  C_21 
REMARK       I    between atoms: C_21  and  N_22 
ROOT
HETATM    1  C   UNL     1     -43.216  56.595 -52.818  1.00  0.00     0.035 A 
HETATM    2  C   UNL     1     -43.142  56.928 -54.174  1.00  0.00     0.046 A 
HETATM    3  C   UNL     1     -42.607  58.176 -54.566  1.00  0.00     0.030 A 
HETATM    4  C   UNL     1     -42.172  59.060 -53.588  1.00  0.00     0.063 A 
HETATM    5  N   UNL     1     -41.724  60.160 -54.266  1.00  0.00    -0.277 N 
HETATM    6  H   UNL     1     -41.337  61.009 -53.871  1.00  0.00     0.189 HD
HETATM    7  N   UNL     1     -41.822  60.067 -55.603  1.00  0.00    -0.168 NA
HETATM    8  C   UNL     1     -42.366  58.844 -55.804  1.00  0.00     0.156 A 
HETATM    9  C   UNL     1     -42.231  58.771 -52.226  1.00  0.00     0.034 A 
HETATM   10  C   UNL     1     -42.759  57.523 -51.867  1.00  0.00     0.032 A 
ENDROOT
BRANCH   1  11
HETATM   11  N   UNL     1     -43.713  55.383 -52.301  1.00  0.00    -0.324 N 
HETATM   12  C   UNL     1     -43.340  54.545 -51.293  1.00  0.00     0.246 C 
HETATM   13  O   UNL     1     -44.014  53.540 -51.064  1.00  0.00    -0.268 OA
HETATM   14  H   UNL     1     -44.532  55.007 -52.765  1.00  0.00     0.169 HD
BRANCH  12  15
HETATM   15  C   UNL     1     -42.169  54.844 -50.453  1.00  0.00     0.082 C 
HETATM   16  C   UNL     1     -40.922  54.437 -50.757  1.00  0.00    -0.045 C 
HETATM   17  C   UNL     1     -39.747  54.738 -49.869  1.00  0.00     0.049 C 
BRANCH  16  18
HETATM   18  C   UNL     1     -40.611  53.663 -51.977  1.00  0.00    -0.008 A 
HETATM   19  C   UNL     1     -40.288  52.296 -51.962  1.00  0.00     0.044 A 
HETATM   20 CL   UNL     1     -40.209  51.386 -50.494  1.00  0.00    -0.083 Cl
HETATM   21  C   UNL     1     -40.007  51.621 -53.156  1.00  0.00     0.024 A 
HETATM   22  C   UNL     1     -40.043  52.303 -54.373  1.00  0.00     0.002 A 
HETATM   23  C   UNL     1     -40.356  53.659 -54.399  1.00  0.00     0.001 A 
HETATM   24  C   UNL     1     -40.639  54.334 -53.210  1.00  0.00     0.013 A 
ENDBRANCH  16  18
ENDBRANCH  12  15
ENDBRANCH   1  11
BRANCH   8  25
HETATM   25  C   UNL     1     -42.631  58.336 -57.156  1.00  0.00     0.270 C 
HETATM   26  N   UNL     1     -42.079  57.110 -57.410  1.00  0.00    -0.365 N 
HETATM   27  H   UNL     1     -41.550  56.655 -56.676  1.00  0.00     0.159 HD
HETATM   28  H   UNL     1     -42.212  56.676 -58.310  1.00  0.00     0.159 HD
HETATM   29  O   UNL     1     -43.292  58.926 -58.004  1.00  0.00    -0.266 OA
ENDBRANCH   8  25
TORSDOF 4
ENDMDL
MODEL 4
REMARK VINA RESULT:      -8.6      3.264      4.441
REMARK  4 active torsions:
REMARK  status: ('A' for Active; 'I' for Inactive)
REMARK    1  A    between atoms: C_2  and  C_3 
REMARK    2  A    between atoms: C_10  and  C_11 
REMARK       I    between atoms: C_11  and  N_12 
REMARK    3  A    between atoms: N_12  and  C_13 
REMARK    4  A    between atoms: C_20  and  C_21 
REMARK       I    between atoms: C_21  and  N_22 
ROOT
HETATM    1  C   UNL     1     -43.447  55.137 -54.146  1.00  0.00     0.035 A 
HETATM    2  C   UNL     1     -43.124  56.497 -54.165  1.00  0.00     0.046 A 
HETATM    3  C   UNL     1     -42.699  57.105 -55.369  1.00  0.00     0.030 A 
HETATM    4  C   UNL     1     -42.602  56.331 -56.517  1.00  0.00     0.063 A 
HETATM    5  N   UNL     1     -42.168  57.183 -57.494  1.00  0.00    -0.277 N 
HETATM    6  H   UNL     1     -41.982  56.960 -58.465  1.00  0.00     0.189 HD
HETATM    7  N   UNL     1     -41.983  58.450 -57.085  1.00  0.00    -0.168 NA
HETATM    8  C   UNL     1     -42.308  58.417 -55.772  1.00  0.00     0.156 A 
HETATM    9  C   UNL     1     -42.911  54.972 -56.542  1.00  0.00     0.034 A 
HETATM   10  C   UNL     1     -43.335  54.398 -55.336  1.00  0.00     0.032 A 
ENDROOT
BRANCH   1  11
HETATM   11  N   UNL     1     -43.893  54.420 -53.019  1.00  0.00    -0.324 N 
HETATM   12  C   UNL     1     -43.602  54.446 -51.689  1.00  0.00     0.246 C 
HETATM   13  O   UNL     1     -44.197  53.684 -50.926  1.00  0.00    -0.268 OA
HETATM   14  H   UNL     1     -44.584  53.700 -53.198  1.00  0.00     0.169 HD
BRANCH  12  15
HETATM   15  C   UNL     1     -42.617  55.397 -51.147  1.00  0.00     0.082 C 
HETATM   16  C   UNL     1     -41.301  55.126 -51.065  1.00  0.00    -0.045 C 
HETATM   17  C   UNL     1     -40.321  56.108 -50.487  1.00  0.00     0.049 C 
BRANCH  16  18
HETATM   18  C   UNL     1     -40.719  53.850 -51.532  1.00  0.00    -0.008 A 
HETATM   19  C   UNL     1     -40.368  52.800 -50.666  1.00  0.00     0.044 A 
HETATM   20 CL   UNL     1     -40.574  52.914 -48.953  1.00  0.00    -0.083 Cl
HETATM   21  C   UNL     1     -39.823  51.616 -51.174  1.00  0.00     0.024 A 
HETATM   22  C   UNL     1     -39.621  51.467 -52.547  1.00  0.00     0.002 A 
HETATM   23  C   UNL     1     -39.960  52.503 -53.413  1.00  0.00     0.001 A 
HETATM   24  C   UNL     1     -40.505  53.686 -52.910  1.00  0.00     0.013 A 
ENDBRANCH  16  18
ENDBRANCH  12  15
ENDBRANCH   1  11
BRANCH   8  25
HETATM   25  C   UNL     1     -42.253  59.625 -54.939  1.00  0.00     0.270 C 
HETATM   26  N   UNL     1     -43.370  60.412 -55.021  1.00  0.00    -0.365 N 
HETATM   27  H   UNL     1     -44.128  60.116 -55.624  1.00  0.00     0.159 HD
HETATM   28  H   UNL     1     -43.428  61.260 -54.480  1.00  0.00     0.159 HD
HETATM   29  O   UNL     1     -41.311  59.928 -54.214  1.00  0.00    -0.266 OA
ENDBRANCH   8  25
TORSDOF 4
ENDMDL
MODEL 5
REMARK VINA RESULT:      -8.5      3.692      7.936
REMARK  4 active torsions:
REMARK  status: ('A' for Active; 'I' for Inactive)
REMARK    1  A    between atoms: C_2  and  C_3 
REMARK    2  A    between atoms: C_10  and  C_11 
REMARK       I    between atoms: C_11  and  N_12 
REMARK    3  A    between atoms: N_12  and  C_13 
REMARK    4  A    between atoms: C_20  and  C_21 
REMARK       I    between atoms: C_21  and  N_22 
ROOT
HETATM    1  C   UNL     1     -43.651  55.360 -54.090  1.00  0.00     0.035 A 
HETATM    2  C   UNL     1     -43.163  55.388 -52.780  1.00  0.00     0.046 A 
HETATM    3  C   UNL     1     -42.067  54.573 -52.417  1.00  0.00     0.030 A 
HETATM    4  C   UNL     1     -41.495  53.747 -53.374  1.00  0.00     0.063 A 
HETATM    5  N   UNL     1     -40.482  53.092 -52.730  1.00  0.00    -0.277 N 
HETATM    6  H   UNL     1     -39.849  52.404 -53.122  1.00  0.00     0.189 HD
HETATM    7  N   UNL     1     -40.337  53.428 -51.437  1.00  0.00    -0.168 NA
HETATM    8  C   UNL     1     -41.309  54.344 -51.229  1.00  0.00     0.156 A 
HETATM    9  C   UNL     1     -41.951  53.685 -54.689  1.00  0.00     0.034 A 
HETATM   10  C   UNL     1     -43.035  54.508 -55.023  1.00  0.00     0.032 A 
ENDROOT
BRANCH   1  11
HETATM   11  N   UNL     1     -44.724  56.129 -54.579  1.00  0.00    -0.324 N 
HETATM   12  C   UNL     1     -44.829  57.264 -55.325  1.00  0.00     0.246 C 
HETATM   13  O   UNL     1     -45.946  57.693 -55.618  1.00  0.00    -0.268 OA
HETATM   14  H   UNL     1     -45.651  55.802 -54.332  1.00  0.00     0.169 HD
BRANCH  12  15
HETATM   15  C   UNL     1     -43.629  57.962 -55.817  1.00  0.00     0.082 C 
HETATM   16  C   UNL     1     -43.185  57.857 -57.083  1.00  0.00    -0.045 C 
HETATM   17  C   UNL     1     -41.944  58.563 -57.552  1.00  0.00     0.049 C 
BRANCH  16  18
HETATM   18  C   UNL     1     -43.874  57.042 -58.106  1.00  0.00    -0.008 A 
HETATM   19  C   UNL     1     -44.956  57.515 -58.868  1.00  0.00     0.044 A 
HETATM   20 CL   UNL     1     -45.595  59.109 -58.666  1.00  0.00    -0.083 Cl
HETATM   21  C   UNL     1     -45.562  56.692 -59.823  1.00  0.00     0.024 A 
HETATM   22  C   UNL     1     -45.099  55.391 -60.025  1.00  0.00     0.002 A 
HETATM   23  C   UNL     1     -44.032  54.910 -59.271  1.00  0.00     0.001 A 
HETATM   24  C   UNL     1     -43.424  55.729 -58.319  1.00  0.00     0.013 A 
ENDBRANCH  16  18
ENDBRANCH  12  15
ENDBRANCH   1  11
BRANCH   8  25
HETATM   25  C   UNL     1     -41.491  54.986 -49.920  1.00  0.00     0.270 C 
HETATM   26  N   UNL     1     -41.429  56.352 -49.955  1.00  0.00    -0.365 N 
HETATM   27  H   UNL     1     -41.272  56.808 -50.846  1.00  0.00     0.159 HD
HETATM   28  H   UNL     1     -41.548  56.882 -49.106  1.00  0.00     0.159 HD
HETATM   29  O   UNL     1     -41.691  54.382 -48.871  1.00  0.00    -0.266 OA
ENDBRANCH   8  25
TORSDOF 4
ENDMDL
MODEL 6
REMARK VINA RESULT:      -8.5      4.468      7.872
REMARK  4 active torsions:
REMARK  status: ('A' for Active; 'I' for Inactive)
REMARK    1  A    between atoms: C_2  and  C_3 
REMARK    2  A    between atoms: C_10  and  C_11 
REMARK       I    between atoms: C_11  and  N_12 
REMARK    3  A    between atoms: N_12  and  C_13 
REMARK    4  A    between atoms: C_20  and  C_21 
REMARK       I    between atoms: C_21  and  N_22 
ROOT
HETATM    1  C   UNL     1     -41.203  55.526 -54.060  1.00  0.00     0.035 A 
HETATM    2  C   UNL     1     -41.210  55.238 -52.692  1.00  0.00     0.046 A 
HETATM    3  C   UNL     1     -40.728  53.992 -52.230  1.00  0.00     0.030 A 
HETATM    4  C   UNL     1     -40.261  53.067 -53.152  1.00  0.00     0.063 A 
HETATM    5  N   UNL     1     -39.877  51.981 -52.414  1.00  0.00    -0.277 N 
HETATM    6  H   UNL     1     -39.490  51.110 -52.760  1.00  0.00     0.189 HD
HETATM    7  N   UNL     1     -40.045  52.122 -51.089  1.00  0.00    -0.168 NA
HETATM    8  C   UNL     1     -40.569  53.362 -50.958  1.00  0.00     0.156 A 
HETATM    9  C   UNL     1     -40.239  53.310 -54.524  1.00  0.00     0.034 A 
HETATM   10  C   UNL     1     -40.717  54.555 -54.953  1.00  0.00     0.032 A 
ENDROOT
BRANCH   1  11
HETATM   11  N   UNL     1     -41.642  56.730 -54.643  1.00  0.00    -0.324 N 
HETATM   12  C   UNL     1     -41.474  58.051 -54.358  1.00  0.00     0.246 C 
HETATM   13  O   UNL     1     -41.982  58.897 -55.096  1.00  0.00    -0.268 OA
HETATM   14  H   UNL     1     -42.231  56.635 -55.463  1.00  0.00     0.169 HD
BRANCH  12  15
HETATM   15  C   UNL     1     -40.663  58.481 -53.207  1.00  0.00     0.082 C 
HETATM   16  C   UNL     1     -41.195  58.803 -52.012  1.00  0.00    -0.045 C 
HETATM   17  C   UNL     1     -40.345  59.260 -50.860  1.00  0.00     0.049 C 
BRANCH  16  18
HETATM   18  C   UNL     1     -42.646  58.736 -51.741  1.00  0.00    -0.008 A 
HETATM   19  C   UNL     1     -43.513  59.829 -51.905  1.00  0.00     0.044 A 
HETATM   20 CL   UNL     1     -42.949  61.377 -52.432  1.00  0.00    -0.083 Cl
HETATM   21  C   UNL     1     -44.879  59.697 -51.634  1.00  0.00     0.024 A 
HETATM   22  C   UNL     1     -45.393  58.477 -51.194  1.00  0.00     0.002 A 
HETATM   23  C   UNL     1     -44.543  57.388 -51.022  1.00  0.00     0.001 A 
HETATM   24  C   UNL     1     -43.179  57.516 -51.294  1.00  0.00     0.013 A 
ENDBRANCH  16  18
ENDBRANCH  12  15
ENDBRANCH   1  11
BRANCH   8  25
HETATM   25  C   UNL     1     -40.895  53.923 -49.640  1.00  0.00     0.270 C 
HETATM   26  N   UNL     1     -39.815  54.066 -48.812  1.00  0.00    -0.365 N 
HETATM   27  H   UNL     1     -38.902  53.791 -49.154  1.00  0.00     0.159 HD
HETATM   28  H   UNL     1     -39.938  54.449 -47.888  1.00  0.00     0.159 HD
HETATM   29  O   UNL     1     -42.021  54.252 -49.284  1.00  0.00    -0.266 OA
ENDBRANCH   8  25
TORSDOF 4
ENDMDL
MODEL 7
REMARK VINA RESULT:      -8.4      4.512      7.424
REMARK  4 active torsions:
REMARK  status: ('A' for Active; 'I' for Inactive)
REMARK    1  A    between atoms: C_2  and  C_3 
REMARK    2  A    between atoms: C_10  and  C_11 
REMARK       I    between atoms: C_11  and  N_12 
REMARK    3  A    between atoms: N_12  and  C_13 
REMARK    4  A    between atoms: C_20  and  C_21 
REMARK       I    between atoms: C_21  and  N_22 
ROOT
HETATM    1  C   UNL     1     -43.393  55.394 -53.064  1.00  0.00     0.035 A 
HETATM    2  C   UNL     1     -42.459  54.728 -52.264  1.00  0.00     0.046 A 
HETATM    3  C   UNL     1     -41.624  53.737 -52.829  1.00  0.00     0.030 A 
HETATM    4  C   UNL     1     -41.755  53.435 -54.177  1.00  0.00     0.063 A 
HETATM    5  N   UNL     1     -40.834  52.453 -54.419  1.00  0.00    -0.277 N 
HETATM    6  H   UNL     1     -40.652  51.987 -55.301  1.00  0.00     0.189 HD
HETATM    7  N   UNL     1     -40.108  52.095 -53.347  1.00  0.00    -0.168 NA
HETATM    8  C   UNL     1     -40.584  52.881 -52.355  1.00  0.00     0.156 A 
HETATM    9  C   UNL     1     -42.673  54.070 -55.010  1.00  0.00     0.034 A 
HETATM   10  C   UNL     1     -43.483  55.053 -54.425  1.00  0.00     0.032 A 
ENDROOT
BRANCH   1  11
HETATM   11  N   UNL     1     -44.269  56.405 -52.627  1.00  0.00    -0.324 N 
HETATM   12  C   UNL     1     -44.496  57.700 -52.985  1.00  0.00     0.246 C 
HETATM   13  O   UNL     1     -45.377  58.339 -52.410  1.00  0.00    -0.268 OA
HETATM   14  H   UNL     1     -44.885  56.155 -51.861  1.00  0.00     0.169 HD
BRANCH  12  15
HETATM   15  C   UNL     1     -43.730  58.330 -54.073  1.00  0.00     0.082 C 
HETATM   16  C   UNL     1     -42.585  59.008 -53.870  1.00  0.00    -0.045 C 
HETATM   17  C   UNL     1     -41.835  59.660 -54.998  1.00  0.00     0.049 C 
BRANCH  16  18
HETATM   18  C   UNL     1     -41.979  59.167 -52.531  1.00  0.00    -0.008 A 
HETATM   19  C   UNL     1     -42.298  60.223 -51.661  1.00  0.00     0.044 A 
HETATM   20 CL   UNL     1     -43.432  61.456 -52.089  1.00  0.00    -0.083 Cl
HETATM   21  C   UNL     1     -41.689  60.312 -50.404  1.00  0.00     0.024 A 
HETATM   22  C   UNL     1     -40.757  59.354 -50.005  1.00  0.00     0.002 A 
HETATM   23  C   UNL     1     -40.428  58.307 -50.862  1.00  0.00     0.001 A 
HETATM   24  C   UNL     1     -41.036  58.213 -52.116  1.00  0.00     0.013 A 
ENDBRANCH  16  18
ENDBRANCH  12  15
ENDBRANCH   1  11
BRANCH   8  25
HETATM   25  C   UNL     1     -40.039  52.813 -50.993  1.00  0.00     0.270 C 
HETATM   26  N   UNL     1     -40.182  51.590 -50.396  1.00  0.00    -0.365 N 
HETATM   27  H   UNL     1     -40.632  50.846 -50.915  1.00  0.00     0.159 HD
HETATM   28  H   UNL     1     -39.833  51.444 -49.462  1.00  0.00     0.159 HD
HETATM   29  O   UNL     1     -39.490  53.745 -50.416  1.00  0.00    -0.266 OA
ENDBRANCH   8  25
TORSDOF 4
ENDMDL
MODEL 8
REMARK VINA RESULT:      -8.4      2.926      4.038
REMARK  4 active torsions:
REMARK  status: ('A' for Active; 'I' for Inactive)
REMARK    1  A    between atoms: C_2  and  C_3 
REMARK    2  A    between atoms: C_10  and  C_11 
REMARK       I    between atoms: C_11  and  N_12 
REMARK    3  A    between atoms: N_12  and  C_13 
REMARK    4  A    between atoms: C_20  and  C_21 
REMARK       I    between atoms: C_21  and  N_22 
ROOT
HETATM    1  C   UNL     1     -43.409  56.689 -57.193  1.00  0.00     0.035 A 
HETATM    2  C   UNL     1     -43.006  58.008 -57.421  1.00  0.00     0.046 A 
HETATM    3  C   UNL     1     -42.478  58.377 -58.680  1.00  0.00     0.030 A 
HETATM    4  C   UNL     1     -42.359  57.412 -59.670  1.00  0.00     0.063 A 
HETATM    5  N   UNL     1     -41.821  58.061 -60.746  1.00  0.00    -0.277 N 
HETATM    6  H   UNL     1     -41.591  57.664 -61.650  1.00  0.00     0.189 HD
HETATM    7  N   UNL     1     -41.587  59.369 -60.547  1.00  0.00    -0.168 NA
HETATM    8  C   UNL     1     -41.990  59.580 -59.273  1.00  0.00     0.156 A 
HETATM    9  C   UNL     1     -42.744  56.086 -59.484  1.00  0.00     0.034 A 
HETATM   10  C   UNL     1     -43.270  55.750 -58.229  1.00  0.00     0.032 A 
ENDROOT
BRANCH   1  11
HETATM   11  N   UNL     1     -43.960  56.200 -55.993  1.00  0.00    -0.324 N 
HETATM   12  C   UNL     1     -43.724  56.418 -54.669  1.00  0.00     0.246 C 
HETATM   13  O   UNL     1     -44.412  55.837 -53.830  1.00  0.00    -0.268 OA
HETATM   14  H   UNL     1     -44.701  55.515 -56.094  1.00  0.00     0.169 HD
BRANCH  12  15
HETATM   15  C   UNL     1     -42.686  57.367 -54.231  1.00  0.00     0.082 C 
HETATM   16  C   UNL     1     -41.460  56.982 -53.831  1.00  0.00    -0.045 C 
HETATM   17  C   UNL     1     -40.427  57.972 -53.368  1.00  0.00     0.049 C 
BRANCH  16  18
HETATM   18  C   UNL     1     -41.034  55.567 -53.813  1.00  0.00    -0.008 A 
HETATM   19  C   UNL     1     -41.088  54.760 -52.663  1.00  0.00     0.044 A 
HETATM   20 CL   UNL     1     -41.651  55.363 -51.143  1.00  0.00    -0.083 Cl
HETATM   21  C   UNL     1     -40.672  53.426 -52.715  1.00  0.00     0.024 A 
HETATM   22  C   UNL     1     -40.197  52.883 -53.910  1.00  0.00     0.002 A 
HETATM   23  C   UNL     1     -40.133  53.675 -55.054  1.00  0.00     0.001 A 
HETATM   24  C   UNL     1     -40.550  55.007 -55.006  1.00  0.00     0.013 A 
ENDBRANCH  16  18
ENDBRANCH  12  15
ENDBRANCH   1  11
BRANCH   8  25
HETATM   25  C   UNL     1     -41.913  60.911 -58.655  1.00  0.00     0.270 C 
HETATM   26  N   UNL     1     -43.020  61.688 -58.864  1.00  0.00    -0.365 N 
HETATM   27  H   UNL     1     -43.786  61.304 -59.405  1.00  0.00     0.159 HD
HETATM   28  H   UNL     1     -43.064  62.615 -58.473  1.00  0.00     0.159 HD
HETATM   29  O   UNL     1     -40.963  61.318 -57.996  1.00  0.00    -0.266 OA
ENDBRANCH   8  25
TORSDOF 4
ENDMDL
MODEL 9
REMARK VINA RESULT:      -8.4      4.673      5.843
REMARK  4 active torsions:
REMARK  status: ('A' for Active; 'I' for Inactive)
REMARK    1  A    between atoms: C_2  and  C_3 
REMARK    2  A    between atoms: C_10  and  C_11 
REMARK       I    between atoms: C_11  and  N_12 
REMARK    3  A    between atoms: N_12  and  C_13 
REMARK    4  A    between atoms: C_20  and  C_21 
REMARK       I    between atoms: C_21  and  N_22 
ROOT
HETATM    1  C   UNL     1     -44.297  57.008 -51.656  1.00  0.00     0.035 A 
HETATM    2  C   UNL     1     -43.476  57.752 -52.509  1.00  0.00     0.046 A 
HETATM    3  C   UNL     1     -43.513  59.165 -52.470  1.00  0.00     0.030 A 
HETATM    4  C   UNL     1     -44.379  59.792 -51.585  1.00  0.00     0.063 A 
HETATM    5  N   UNL     1     -44.194  61.132 -51.785  1.00  0.00    -0.277 N 
HETATM    6  H   UNL     1     -44.665  61.894 -51.311  1.00  0.00     0.189 HD
HETATM    7  N   UNL     1     -43.275  61.434 -52.718  1.00  0.00    -0.168 NA
HETATM    8  C   UNL     1     -42.844  60.227 -53.150  1.00  0.00     0.156 A 
HETATM    9  C   UNL     1     -45.217  59.090 -50.721  1.00  0.00     0.034 A 
HETATM   10  C   UNL     1     -45.154  57.691 -50.776  1.00  0.00     0.032 A 
ENDROOT
BRANCH   1  11
HETATM   11  N   UNL     1     -44.344  55.602 -51.589  1.00  0.00    -0.324 N 
HETATM   12  C   UNL     1     -43.568  54.643 -51.011  1.00  0.00     0.246 C 
HETATM   13  O   UNL     1     -43.894  53.460 -51.114  1.00  0.00    -0.268 OA
HETATM   14  H   UNL     1     -45.113  55.162 -52.080  1.00  0.00     0.169 HD
BRANCH  12  15
HETATM   15  C   UNL     1     -42.369  55.004 -50.235  1.00  0.00     0.082 C 
HETATM   16  C   UNL     1     -41.115  54.816 -50.688  1.00  0.00    -0.045 C 
HETATM   17  C   UNL     1     -39.910  55.173 -49.865  1.00  0.00     0.049 C 
BRANCH  16  18
HETATM   18  C   UNL     1     -40.826  54.244 -52.020  1.00  0.00    -0.008 A 
HETATM   19  C   UNL     1     -40.416  52.914 -52.216  1.00  0.00     0.044 A 
HETATM   20 CL   UNL     1     -40.197  51.816 -50.898  1.00  0.00    -0.083 Cl
HETATM   21  C   UNL     1     -40.162  52.434 -53.505  1.00  0.00     0.024 A 
HETATM   22  C   UNL     1     -40.310  53.274 -54.610  1.00  0.00     0.002 A 
HETATM   23  C   UNL     1     -40.709  54.596 -54.427  1.00  0.00     0.001 A 
HETATM   24  C   UNL     1     -40.966  55.077 -53.141  1.00  0.00     0.013 A 
ENDBRANCH  16  18
ENDBRANCH  12  15
ENDBRANCH   1  11
BRANCH   8  25
HETATM   25  C   UNL     1     -41.806  60.108 -54.183  1.00  0.00     0.270 C 
HETATM   26  N   UNL     1     -42.124  60.718 -55.366  1.00  0.00    -0.365 N 
HETATM   27  H   UNL     1     -43.016  61.193 -55.442  1.00  0.00     0.159 HD
HETATM   28  H   UNL     1     -41.471  60.696 -56.133  1.00  0.00     0.159 HD
HETATM   29  O   UNL     1     -40.735  59.530 -54.030  1.00  0.00    -0.266 OA
ENDBRANCH   8  25
TORSDOF 4
ENDMDL
MODEL 10
REMARK VINA RESULT:      -8.3      4.795      7.590
REMARK  4 active torsions:
REMARK  status: ('A' for Active; 'I' for Inactive)
REMARK    1  A    between atoms: C_2  and  C_3 
REMARK    2  A    between atoms: C_10  and  C_11 
REMARK       I    between atoms: C_11  and  N_12 
REMARK    3  A    between atoms: N_12  and  C_13 
REMARK    4  A    between atoms: C_20  and  C_21 
REMARK       I    between atoms: C_21  and  N_22 
ROOT
HETATM    1  C   UNL     1     -42.657  55.297 -50.614  1.00  0.00     0.035 A 
HETATM    2  C   UNL     1     -42.358  54.516 -51.734  1.00  0.00     0.046 A 
HETATM    3  C   UNL     1     -41.194  53.714 -51.745  1.00  0.00     0.030 A 
HETATM    4  C   UNL     1     -40.357  53.725 -50.638  1.00  0.00     0.063 A 
HETATM    5  N   UNL     1     -39.334  52.872 -50.947  1.00  0.00    -0.277 N 
HETATM    6  H   UNL     1     -38.535  52.637 -50.369  1.00  0.00     0.189 HD
HETATM    7  N   UNL     1     -39.436  52.298 -52.158  1.00  0.00    -0.168 NA
HETATM    8  C   UNL     1     -40.582  52.808 -52.664  1.00  0.00     0.156 A 
HETATM    9  C   UNL     1     -40.615  54.491 -49.503  1.00  0.00     0.034 A 
HETATM   10  C   UNL     1     -41.779  55.271 -49.517  1.00  0.00     0.032 A 
ENDROOT
BRANCH   1  11
HETATM   11  N   UNL     1     -43.787  56.125 -50.474  1.00  0.00    -0.324 N 
HETATM   12  C   UNL     1     -44.461  56.976 -51.297  1.00  0.00     0.246 C 
HETATM   13  O   UNL     1     -45.461  57.558 -50.876  1.00  0.00    -0.268 OA
HETATM   14  H   UNL     1     -44.225  56.125 -49.560  1.00  0.00     0.169 HD
BRANCH  12  15
HETATM   15  C   UNL     1     -44.033  57.179 -52.692  1.00  0.00     0.082 C 
HETATM   16  C   UNL     1     -42.980  57.944 -53.034  1.00  0.00    -0.045 C 
HETATM   17  C   UNL     1     -42.580  58.151 -54.468  1.00  0.00     0.049 C 
BRANCH  16  18
HETATM   18  C   UNL     1     -42.141  58.640 -52.036  1.00  0.00    -0.008 A 
HETATM   19  C   UNL     1     -42.536  59.821 -51.385  1.00  0.00     0.044 A 
HETATM   20 CL   UNL     1     -44.053  60.585 -51.709  1.00  0.00    -0.083 Cl
HETATM   21  C   UNL     1     -41.694  60.427 -50.446  1.00  0.00     0.024 A 
HETATM   22  C   UNL     1     -40.452  59.865 -50.150  1.00  0.00     0.002 A 
HETATM   23  C   UNL     1     -40.047  58.699 -50.793  1.00  0.00     0.001 A 
HETATM   24  C   UNL     1     -40.886  58.090 -51.729  1.00  0.00     0.013 A 
ENDBRANCH  16  18
ENDBRANCH  12  15
ENDBRANCH   1  11
BRANCH   8  25
HETATM   25  C   UNL     1     -41.073  52.420 -53.992  1.00  0.00     0.270 C 
HETATM   26  N   UNL     1     -40.648  51.187 -54.406  1.00  0.00    -0.365 N 
HETATM   27  H   UNL     1     -40.050  50.648 -53.790  1.00  0.00     0.159 HD
HETATM   28  H   UNL     1     -40.938  50.831 -55.303  1.00  0.00     0.159 HD
HETATM   29  O   UNL     1     -41.809  53.109 -54.691  1.00  0.00    -0.266 OA
ENDBRANCH   8  25
TORSDOF 4
ENDMDL
