MODEL 1
REMARK VINA RESULT:      -8.6      0.000      0.000
REMARK  8 active torsions:
REMARK  status: ('A' for Active; 'I' for Inactive)
REMARK    1  A    between atoms: C_2  and  C_3 
REMARK    2  A    between atoms: C_5  and  C_6 
REMARK       I    between atoms: C_6  and  N_7 
REMARK    3  A    between atoms: N_7  and  C_8 
REMARK    4  A    between atoms: C_8  and  C_9 
REMARK    5  A    between atoms: C_9  and  N_10 
REMARK    6  A    between atoms: C_9  and  C_20 
REMARK       I    between atoms: N_10  and  C_11 
REMARK    7  A    between atoms: C_11  and  C_12 
REMARK    8  A    between atoms: C_14  and  C_15 
ROOT
HETATM    1  C   UNL     1     -41.949  55.187 -54.271  1.00  0.00     0.136 C 
ENDROOT
BRANCH   1   2
HETATM    2  C   UNL     1     -41.354  55.557 -55.654  1.00  0.00     0.153 C 
BRANCH   2   3
HETATM    3  N   UNL     1     -42.312  55.469 -56.740  1.00  0.00    -0.353 N 
HETATM    4  C   UNL     1     -42.832  56.583 -57.362  1.00  0.00     0.275 C 
HETATM    5  O   UNL     1     -42.552  57.722 -56.997  1.00  0.00    -0.265 OA
HETATM    6  H   UNL     1     -42.485  54.564 -57.166  1.00  0.00     0.162 HD
BRANCH   4   7
HETATM    7  C   UNL     1     -43.712  56.289 -58.473  1.00  0.00     0.143 A 
HETATM    8  O   UNL     1     -44.924  56.922 -58.565  1.00  0.00    -0.310 OA
HETATM    9  C   UNL     1     -45.529  56.477 -59.701  1.00  0.00     0.053 A 
HETATM   10  C   UNL     1     -44.726  55.556 -60.337  1.00  0.00     0.036 A 
HETATM   11  C   UNL     1     -43.558  55.434 -59.548  1.00  0.00     0.045 A 
BRANCH   9  12
HETATM   12  C   UNL     1     -46.861  57.052 -60.012  1.00  0.00     0.060 C 
HETATM   13  C   UNL     1     -47.434  56.472 -61.294  1.00  0.00     0.012 C 
ENDBRANCH   9  12
ENDBRANCH   4   7
ENDBRANCH   2   3
ENDBRANCH   1   2
BRANCH   1  14
HETATM   14  N   UNL     1     -42.065  56.277 -53.306  1.00  0.00    -0.345 N 
HETATM   15  C   UNL     1     -43.113  57.160 -53.200  1.00  0.00     0.276 C 
HETATM   16  O   UNL     1     -44.163  57.040 -53.822  1.00  0.00    -0.265 OA
HETATM   17  H   UNL     1     -41.225  56.534 -52.802  1.00  0.00     0.163 HD
BRANCH  15  18
HETATM   18  C   UNL     1     -42.858  58.250 -52.279  1.00  0.00     0.143 A 
HETATM   19  O   UNL     1     -41.680  58.280 -51.576  1.00  0.00    -0.310 OA
HETATM   20  C   UNL     1     -41.697  59.403 -50.805  1.00  0.00     0.053 A 
HETATM   21  C   UNL     1     -42.870  60.098 -51.002  1.00  0.00     0.036 A 
HETATM   22  C   UNL     1     -43.617  59.357 -51.949  1.00  0.00     0.045 A 
BRANCH  20  23
HETATM   23  C   UNL     1     -40.504  59.640 -49.954  1.00  0.00     0.060 C 
HETATM   24  C   UNL     1     -39.215  59.432 -50.732  1.00  0.00     0.012 C 
ENDBRANCH  20  23
ENDBRANCH  15  18
ENDBRANCH   1  14
BRANCH   1  25
HETATM   25  C   UNL     1     -41.247  53.987 -53.653  1.00  0.00    -0.031 A 
HETATM   26  C   UNL     1     -41.086  52.783 -54.360  1.00  0.00     0.049 A 
HETATM   27  C   UNL     1     -40.434  51.698 -53.771  1.00  0.00     0.102 A 
HETATM   28  C   UNL     1     -39.967  51.787 -52.458  1.00  0.00     0.102 A 
HETATM   29  O   UNL     1     -40.296  50.571 -54.542  1.00  0.00    -0.346 OA
HETATM   30  O   UNL     1     -39.351  50.750 -51.805  1.00  0.00    -0.346 OA
HETATM   31  C   UNL     1     -40.111  52.976 -51.748  1.00  0.00     0.040 A 
HETATM   32  C   UNL     1     -39.561  49.509 -52.486  1.00  0.00     0.202 C 
HETATM   33  C   UNL     1     -39.334  49.673 -53.980  1.00  0.00     0.202 C 
HETATM   34  C   UNL     1     -40.747  54.069 -52.342  1.00  0.00     0.012 A 
ENDBRANCH   1  25
TORSDOF 8
ENDMDL
MODEL 2
REMARK VINA RESULT:      -8.4      0.879      1.453
REMARK  8 active torsions:
REMARK  status: ('A' for Active; 'I' for Inactive)
REMARK    1  A    between atoms: C_2  and  C_3 
REMARK    2  A    between atoms: C_5  and  C_6 
REMARK       I    between atoms: C_6  and  N_7 
REMARK    3  A    between atoms: N_7  and  C_8 
REMARK    4  A    between atoms: C_8  and  C_9 
REMARK    5  A    between atoms: C_9  and  N_10 
REMARK    6  A    between atoms: C_9  and  C_20 
REMARK       I    between atoms: N_10  and  C_11 
REMARK    7  A    between atoms: C_11  and  C_12 
REMARK    8  A    between atoms: C_14  and  C_15 
ROOT
HETATM    1  C   UNL     1     -41.473  55.421 -53.840  1.00  0.00     0.136 C 
ENDROOT
BRANCH   1   2
HETATM    2  C   UNL     1     -40.880  55.797 -55.223  1.00  0.00     0.153 C 
BRANCH   2   3
HETATM    3  N   UNL     1     -41.826  55.668 -56.315  1.00  0.00    -0.353 N 
HETATM    4  C   UNL     1     -42.579  56.726 -56.772  1.00  0.00     0.275 C 
HETATM    5  O   UNL     1     -42.532  57.835 -56.245  1.00  0.00    -0.265 OA
HETATM    6  H   UNL     1     -41.819  54.816 -56.868  1.00  0.00     0.162 HD
BRANCH   4   7
HETATM    7  C   UNL     1     -43.407  56.417 -57.918  1.00  0.00     0.143 A 
HETATM    8  O   UNL     1     -44.542  57.149 -58.154  1.00  0.00    -0.310 OA
HETATM    9  C   UNL     1     -45.110  56.662 -59.292  1.00  0.00     0.053 A 
HETATM   10  C   UNL     1     -44.361  55.616 -59.787  1.00  0.00     0.036 A 
HETATM   11  C   UNL     1     -43.268  55.458 -58.904  1.00  0.00     0.045 A 
BRANCH   9  12
HETATM   12  C   UNL     1     -46.355  57.328 -59.750  1.00  0.00     0.060 C 
HETATM   13  C   UNL     1     -47.238  56.378 -60.540  1.00  0.00     0.012 C 
ENDBRANCH   9  12
ENDBRANCH   4   7
ENDBRANCH   2   3
ENDBRANCH   1   2
BRANCH   1  14
HETATM   14  N   UNL     1     -41.426  56.460 -52.815  1.00  0.00    -0.345 N 
HETATM   15  C   UNL     1     -42.474  57.254 -52.415  1.00  0.00     0.276 C 
HETATM   16  O   UNL     1     -43.632  57.078 -52.778  1.00  0.00    -0.265 OA
HETATM   17  H   UNL     1     -40.509  56.762 -52.510  1.00  0.00     0.163 HD
BRANCH  15  18
HETATM   18  C   UNL     1     -42.079  58.324 -51.520  1.00  0.00     0.143 A 
HETATM   19  O   UNL     1     -42.813  59.483 -51.486  1.00  0.00    -0.310 OA
HETATM   20  C   UNL     1     -42.235  60.302 -50.563  1.00  0.00     0.053 A 
HETATM   21  C   UNL     1     -41.138  59.686 -50.002  1.00  0.00     0.036 A 
HETATM   22  C   UNL     1     -41.037  58.416 -50.617  1.00  0.00     0.045 A 
BRANCH  20  23
HETATM   23  C   UNL     1     -42.877  61.625 -50.358  1.00  0.00     0.060 C 
HETATM   24  C   UNL     1     -44.070  61.526 -49.422  1.00  0.00     0.012 C 
ENDBRANCH  20  23
ENDBRANCH  15  18
ENDBRANCH   1  14
BRANCH   1  25
HETATM   25  C   UNL     1     -40.904  54.113 -53.314  1.00  0.00    -0.031 A 
HETATM   26  C   UNL     1     -40.784  52.978 -54.134  1.00  0.00     0.049 A 
HETATM   27  C   UNL     1     -40.254  51.791 -53.627  1.00  0.00     0.102 A 
HETATM   28  C   UNL     1     -39.870  51.708 -52.287  1.00  0.00     0.102 A 
HETATM   29  O   UNL     1     -40.148  50.741 -54.504  1.00  0.00    -0.346 OA
HETATM   30  O   UNL     1     -39.376  50.564 -51.714  1.00  0.00    -0.346 OA
HETATM   31  C   UNL     1     -39.974  52.826 -51.465  1.00  0.00     0.040 A 
HETATM   32  C   UNL     1     -39.631  49.419 -52.534  1.00  0.00     0.202 C 
HETATM   33  C   UNL     1     -39.294  49.715 -53.987  1.00  0.00     0.202 C 
HETATM   34  C   UNL     1     -40.487  54.021 -51.974  1.00  0.00     0.012 A 
ENDBRANCH   1  25
TORSDOF 8
ENDMDL
MODEL 3
REMARK VINA RESULT:      -8.2      2.089      6.730
REMARK  8 active torsions:
REMARK  status: ('A' for Active; 'I' for Inactive)
REMARK    1  A    between atoms: C_2  and  C_3 
REMARK    2  A    between atoms: C_5  and  C_6 
REMARK       I    between atoms: C_6  and  N_7 
REMARK    3  A    between atoms: N_7  and  C_8 
REMARK    4  A    between atoms: C_8  and  C_9 
REMARK    5  A    between atoms: C_9  and  N_10 
REMARK    6  A    between atoms: C_9  and  C_20 
REMARK       I    between atoms: N_10  and  C_11 
REMARK    7  A    between atoms: C_11  and  C_12 
REMARK    8  A    between atoms: C_14  and  C_15 
ROOT
HETATM    1  C   UNL     1     -42.147  55.642 -53.608  1.00  0.00     0.136 C 
ENDROOT
BRANCH   1   2
HETATM    2  C   UNL     1     -43.455  55.812 -52.792  1.00  0.00     0.153 C 
BRANCH   2   3
HETATM    3  N   UNL     1     -43.886  57.192 -52.667  1.00  0.00    -0.353 N 
HETATM    4  C   UNL     1     -44.600  57.650 -51.583  1.00  0.00     0.275 C 
HETATM    5  O   UNL     1     -44.962  56.902 -50.678  1.00  0.00    -0.265 OA
HETATM    6  H   UNL     1     -43.514  57.880 -53.316  1.00  0.00     0.162 HD
BRANCH   4   7
HETATM    7  C   UNL     1     -44.870  59.072 -51.605  1.00  0.00     0.143 A 
HETATM    8  O   UNL     1     -44.540  59.843 -50.520  1.00  0.00    -0.310 OA
HETATM    9  C   UNL     1     -44.882  61.128 -50.816  1.00  0.00     0.053 A 
HETATM   10  C   UNL     1     -45.440  61.193 -52.074  1.00  0.00     0.036 A 
HETATM   11  C   UNL     1     -45.433  59.872 -52.581  1.00  0.00     0.045 A 
BRANCH   9  12
HETATM   12  C   UNL     1     -44.593  62.147 -49.777  1.00  0.00     0.060 C 
HETATM   13  C   UNL     1     -44.633  61.549 -48.382  1.00  0.00     0.012 C 
ENDBRANCH   9  12
ENDBRANCH   4   7
ENDBRANCH   2   3
ENDBRANCH   1   2
BRANCH   1  14
HETATM   14  N   UNL     1     -42.275  55.744 -55.059  1.00  0.00    -0.345 N 
HETATM   15  C   UNL     1     -42.340  56.906 -55.791  1.00  0.00     0.276 C 
HETATM   16  O   UNL     1     -42.145  58.018 -55.311  1.00  0.00    -0.265 OA
HETATM   17  H   UNL     1     -42.537  54.901 -55.556  1.00  0.00     0.163 HD
BRANCH  15  18
HETATM   18  C   UNL     1     -42.661  56.692 -57.188  1.00  0.00     0.143 A 
HETATM   19  O   UNL     1     -43.360  55.571 -57.557  1.00  0.00    -0.310 OA
HETATM   20  C   UNL     1     -43.532  55.627 -58.907  1.00  0.00     0.053 A 
HETATM   21  C   UNL     1     -42.953  56.770 -59.413  1.00  0.00     0.036 A 
HETATM   22  C   UNL     1     -42.392  57.454 -58.309  1.00  0.00     0.045 A 
BRANCH  20  23
HETATM   23  C   UNL     1     -44.275  54.501 -59.527  1.00  0.00     0.060 C 
HETATM   24  C   UNL     1     -44.895  54.908 -60.854  1.00  0.00     0.012 C 
ENDBRANCH  20  23
ENDBRANCH  15  18
ENDBRANCH   1  14
BRANCH   1  25
HETATM   25  C   UNL     1     -41.392  54.382 -53.216  1.00  0.00    -0.031 A 
HETATM   26  C   UNL     1     -41.321  53.269 -54.073  1.00  0.00     0.049 A 
HETATM   27  C   UNL     1     -40.618  52.126 -53.691  1.00  0.00     0.102 A 
HETATM   28  C   UNL     1     -40.007  52.062 -52.436  1.00  0.00     0.102 A 
HETATM   29  O   UNL     1     -40.577  51.097 -54.598  1.00  0.00    -0.346 OA
HETATM   30  O   UNL     1     -39.331  50.959 -51.982  1.00  0.00    -0.346 OA
HETATM   31  C   UNL     1     -40.061  53.160 -51.582  1.00  0.00     0.040 A 
HETATM   32  C   UNL     1     -39.627  49.805 -52.775  1.00  0.00     0.202 C 
HETATM   33  C   UNL     1     -39.566  50.143 -54.256  1.00  0.00     0.202 C 
HETATM   34  C   UNL     1     -40.749  54.312 -51.969  1.00  0.00     0.012 A 
ENDBRANCH   1  25
TORSDOF 8
ENDMDL
MODEL 4
REMARK VINA RESULT:      -8.0      2.169      8.717
REMARK  8 active torsions:
REMARK  status: ('A' for Active; 'I' for Inactive)
REMARK    1  A    between atoms: C_2  and  C_3 
REMARK    2  A    between atoms: C_5  and  C_6 
REMARK       I    between atoms: C_6  and  N_7 
REMARK    3  A    between atoms: N_7  and  C_8 
REMARK    4  A    between atoms: C_8  and  C_9 
REMARK    5  A    between atoms: C_9  and  N_10 
REMARK    6  A    between atoms: C_9  and  C_20 
REMARK       I    between atoms: N_10  and  C_11 
REMARK    7  A    between atoms: C_11  and  C_12 
REMARK    8  A    between atoms: C_14  and  C_15 
ROOT
HETATM    1  C   UNL     1     -43.168  57.194 -52.402  1.00  0.00     0.136 C 
ENDROOT
BRANCH   1   2
HETATM    2  C   UNL     1     -41.695  57.071 -51.934  1.00  0.00     0.153 C 
BRANCH   2   3
HETATM    3  N   UNL     1     -41.123  55.757 -52.160  1.00  0.00    -0.353 N 
HETATM    4  C   UNL     1     -41.076  54.791 -51.180  1.00  0.00     0.275 C 
HETATM    5  O   UNL     1     -41.470  55.003 -50.035  1.00  0.00    -0.265 OA
HETATM    6  H   UNL     1     -40.896  55.481 -53.110  1.00  0.00     0.162 HD
BRANCH   4   7
HETATM    7  C   UNL     1     -40.538  53.521 -51.620  1.00  0.00     0.143 A 
HETATM    8  O   UNL     1     -40.688  53.137 -52.927  1.00  0.00    -0.310 OA
HETATM    9  C   UNL     1     -40.078  51.926 -53.066  1.00  0.00     0.053 A 
HETATM   10  C   UNL     1     -39.548  51.520 -51.861  1.00  0.00     0.036 A 
HETATM   11  C   UNL     1     -39.844  52.544 -50.931  1.00  0.00     0.045 A 
BRANCH   9  12
HETATM   12  C   UNL     1     -40.103  51.323 -54.422  1.00  0.00     0.060 C 
HETATM   13  C   UNL     1     -39.651  49.873 -54.396  1.00  0.00     0.012 C 
ENDBRANCH   9  12
ENDBRANCH   4   7
ENDBRANCH   2   3
ENDBRANCH   1   2
BRANCH   1  14
HETATM   14  N   UNL     1     -43.379  57.324 -53.841  1.00  0.00    -0.345 N 
HETATM   15  C   UNL     1     -43.299  56.313 -54.769  1.00  0.00     0.276 C 
HETATM   16  O   UNL     1     -43.182  55.129 -54.470  1.00  0.00    -0.265 OA
HETATM   17  H   UNL     1     -43.390  58.263 -54.220  1.00  0.00     0.163 HD
BRANCH  15  18
HETATM   18  C   UNL     1     -43.364  56.780 -56.140  1.00  0.00     0.143 A 
HETATM   19  O   UNL     1     -43.125  55.901 -57.165  1.00  0.00    -0.310 OA
HETATM   20  C   UNL     1     -43.262  56.592 -58.331  1.00  0.00     0.053 A 
HETATM   21  C   UNL     1     -43.586  57.906 -58.071  1.00  0.00     0.036 A 
HETATM   22  C   UNL     1     -43.651  58.027 -56.662  1.00  0.00     0.045 A 
BRANCH  20  23
HETATM   23  C   UNL     1     -43.047  55.826 -59.585  1.00  0.00     0.060 C 
HETATM   24  C   UNL     1     -44.356  55.581 -60.318  1.00  0.00     0.012 C 
ENDBRANCH  20  23
ENDBRANCH  15  18
ENDBRANCH   1  14
BRANCH   1  25
HETATM   25  C   UNL     1     -43.917  58.279 -51.644  1.00  0.00    -0.031 A 
HETATM   26  C   UNL     1     -43.274  59.451 -51.207  1.00  0.00     0.049 A 
HETATM   27  C   UNL     1     -43.986  60.433 -50.517  1.00  0.00     0.102 A 
HETATM   28  C   UNL     1     -45.338  60.245 -50.221  1.00  0.00     0.102 A 
HETATM   29  O   UNL     1     -43.287  61.556 -50.152  1.00  0.00    -0.346 OA
HETATM   30  O   UNL     1     -46.088  61.151 -49.516  1.00  0.00    -0.346 OA
HETATM   31  C   UNL     1     -45.990  59.095 -50.656  1.00  0.00     0.040 A 
HETATM   32  C   UNL     1     -45.257  62.102 -48.842  1.00  0.00     0.202 C 
HETATM   33  C   UNL     1     -44.169  62.617 -49.771  1.00  0.00     0.202 C 
HETATM   34  C   UNL     1     -45.285  58.118 -51.362  1.00  0.00     0.012 A 
ENDBRANCH   1  25
TORSDOF 8
ENDMDL
MODEL 5
REMARK VINA RESULT:      -7.8      2.075      5.732
REMARK  8 active torsions:
REMARK  status: ('A' for Active; 'I' for Inactive)
REMARK    1  A    between atoms: C_2  and  C_3 
REMARK    2  A    between atoms: C_5  and  C_6 
REMARK       I    between atoms: C_6  and  N_7 
REMARK    3  A    between atoms: N_7  and  C_8 
REMARK    4  A    between atoms: C_8  and  C_9 
REMARK    5  A    between atoms: C_9  and  N_10 
REMARK    6  A    between atoms: C_9  and  C_20 
REMARK       I    between atoms: N_10  and  C_11 
REMARK    7  A    between atoms: C_11  and  C_12 
REMARK    8  A    between atoms: C_14  and  C_15 
ROOT
HETATM    1  C   UNL     1     -41.646  55.597 -52.973  1.00  0.00     0.136 C 
ENDROOT
BRANCH   1   2
HETATM    2  C   UNL     1     -42.686  55.968 -51.885  1.00  0.00     0.153 C 
BRANCH   2   3
HETATM    3  N   UNL     1     -43.471  57.145 -52.209  1.00  0.00    -0.353 N 
HETATM    4  C   UNL     1     -44.576  57.522 -51.480  1.00  0.00     0.275 C 
HETATM    5  O   UNL     1     -44.996  56.853 -50.539  1.00  0.00    -0.265 OA
HETATM    6  H   UNL     1     -43.105  57.801 -52.892  1.00  0.00     0.162 HD
BRANCH   4   7
HETATM    7  C   UNL     1     -45.178  58.766 -51.912  1.00  0.00     0.143 A 
HETATM    8  O   UNL     1     -44.978  59.209 -53.194  1.00  0.00    -0.310 OA
HETATM    9  C   UNL     1     -45.665  60.376 -53.332  1.00  0.00     0.053 A 
HETATM   10  C   UNL     1     -46.298  60.698 -52.150  1.00  0.00     0.036 A 
HETATM   11  C   UNL     1     -45.984  59.664 -51.238  1.00  0.00     0.045 A 
BRANCH   9  12
HETATM   12  C   UNL     1     -45.603  61.030 -54.663  1.00  0.00     0.060 C 
HETATM   13  C   UNL     1     -46.295  62.381 -54.654  1.00  0.00     0.012 C 
ENDBRANCH   9  12
ENDBRANCH   4   7
ENDBRANCH   2   3
ENDBRANCH   1   2
BRANCH   1  14
HETATM   14  N   UNL     1     -42.093  55.711 -54.358  1.00  0.00    -0.345 N 
HETATM   15  C   UNL     1     -42.180  56.870 -55.092  1.00  0.00     0.276 C 
HETATM   16  O   UNL     1     -41.742  57.949 -54.705  1.00  0.00    -0.265 OA
HETATM   17  H   UNL     1     -42.566  54.908 -54.755  1.00  0.00     0.163 HD
BRANCH  15  18
HETATM   18  C   UNL     1     -42.840  56.697 -56.370  1.00  0.00     0.143 A 
HETATM   19  O   UNL     1     -43.680  57.677 -56.835  1.00  0.00    -0.310 OA
HETATM   20  C   UNL     1     -44.150  57.267 -58.046  1.00  0.00     0.053 A 
HETATM   21  C   UNL     1     -43.623  56.036 -58.369  1.00  0.00     0.036 A 
HETATM   22  C   UNL     1     -42.783  55.668 -57.291  1.00  0.00     0.045 A 
BRANCH  20  23
HETATM   23  C   UNL     1     -45.085  58.188 -58.741  1.00  0.00     0.060 C 
HETATM   24  C   UNL     1     -46.517  57.686 -58.668  1.00  0.00     0.012 C 
ENDBRANCH  20  23
ENDBRANCH  15  18
ENDBRANCH   1  14
BRANCH   1  25
HETATM   25  C   UNL     1     -41.015  54.237 -52.716  1.00  0.00    -0.031 A 
HETATM   26  C   UNL     1     -40.958  53.251 -53.716  1.00  0.00     0.049 A 
HETATM   27  C   UNL     1     -40.370  52.012 -53.456  1.00  0.00     0.102 A 
HETATM   28  C   UNL     1     -39.863  51.728 -52.186  1.00  0.00     0.102 A 
HETATM   29  O   UNL     1     -40.333  51.118 -54.497  1.00  0.00    -0.346 OA
HETATM   30  O   UNL     1     -39.304  50.521 -51.851  1.00  0.00    -0.346 OA
HETATM   31  C   UNL     1     -39.903  52.698 -51.189  1.00  0.00     0.040 A 
HETATM   32  C   UNL     1     -39.620  49.514 -52.819  1.00  0.00     0.202 C 
HETATM   33  C   UNL     1     -39.422  50.047 -54.229  1.00  0.00     0.202 C 
HETATM   34  C   UNL     1     -40.475  53.944 -51.452  1.00  0.00     0.012 A 
ENDBRANCH   1  25
TORSDOF 8
ENDMDL
MODEL 6
REMARK VINA RESULT:      -7.8      2.087      8.611
REMARK  8 active torsions:
REMARK  status: ('A' for Active; 'I' for Inactive)
REMARK    1  A    between atoms: C_2  and  C_3 
REMARK    2  A    between atoms: C_5  and  C_6 
REMARK       I    between atoms: C_6  and  N_7 
REMARK    3  A    between atoms: N_7  and  C_8 
REMARK    4  A    between atoms: C_8  and  C_9 
REMARK    5  A    between atoms: C_9  and  N_10 
REMARK    6  A    between atoms: C_9  and  C_20 
REMARK       I    between atoms: N_10  and  C_11 
REMARK    7  A    between atoms: C_11  and  C_12 
REMARK    8  A    between atoms: C_14  and  C_15 
ROOT
HETATM    1  C   UNL     1     -43.311  57.255 -52.394  1.00  0.00     0.136 C 
ENDROOT
BRANCH   1   2
HETATM    2  C   UNL     1     -41.905  56.842 -51.887  1.00  0.00     0.153 C 
BRANCH   2   3
HETATM    3  N   UNL     1     -41.549  55.474 -52.213  1.00  0.00    -0.353 N 
HETATM    4  C   UNL     1     -40.800  55.147 -53.322  1.00  0.00     0.275 C 
HETATM    5  O   UNL     1     -40.431  55.995 -54.131  1.00  0.00    -0.265 OA
HETATM    6  H   UNL     1     -41.716  54.749 -51.523  1.00  0.00     0.162 HD
BRANCH   4   7
HETATM    7  C   UNL     1     -40.483  53.739 -53.433  1.00  0.00     0.143 A 
HETATM    8  O   UNL     1     -40.133  53.031 -52.313  1.00  0.00    -0.310 OA
HETATM    9  C   UNL     1     -39.910  51.744 -52.701  1.00  0.00     0.053 A 
HETATM   10  C   UNL     1     -40.102  51.617 -54.059  1.00  0.00     0.036 A 
HETATM   11  C   UNL     1     -40.469  52.899 -54.530  1.00  0.00     0.045 A 
BRANCH   9  12
HETATM   12  C   UNL     1     -39.532  50.786 -51.633  1.00  0.00     0.060 C 
HETATM   13  C   UNL     1     -39.544  49.354 -52.137  1.00  0.00     0.012 C 
ENDBRANCH   9  12
ENDBRANCH   4   7
ENDBRANCH   2   3
ENDBRANCH   1   2
BRANCH   1  14
HETATM   14  N   UNL     1     -43.448  57.438 -53.836  1.00  0.00    -0.345 N 
HETATM   15  C   UNL     1     -43.720  56.456 -54.758  1.00  0.00     0.276 C 
HETATM   16  O   UNL     1     -44.031  55.309 -54.452  1.00  0.00    -0.265 OA
HETATM   17  H   UNL     1     -43.124  58.317 -54.220  1.00  0.00     0.163 HD
BRANCH  15  18
HETATM   18  C   UNL     1     -43.604  56.904 -56.132  1.00  0.00     0.143 A 
HETATM   19  O   UNL     1     -43.315  55.994 -57.117  1.00  0.00    -0.310 OA
HETATM   20  C   UNL     1     -43.275  56.674 -58.297  1.00  0.00     0.053 A 
HETATM   21  C   UNL     1     -43.536  58.010 -58.085  1.00  0.00     0.036 A 
HETATM   22  C   UNL     1     -43.746  58.158 -56.693  1.00  0.00     0.045 A 
BRANCH  20  23
HETATM   23  C   UNL     1     -42.978  55.875 -59.512  1.00  0.00     0.060 C 
HETATM   24  C   UNL     1     -44.123  54.935 -59.854  1.00  0.00     0.012 C 
ENDBRANCH  20  23
ENDBRANCH  15  18
ENDBRANCH   1  14
BRANCH   1  25
HETATM   25  C   UNL     1     -43.857  58.457 -51.640  1.00  0.00    -0.031 A 
HETATM   26  C   UNL     1     -43.055  59.577 -51.359  1.00  0.00     0.049 A 
HETATM   27  C   UNL     1     -43.582  60.670 -50.669  1.00  0.00     0.102 A 
HETATM   28  C   UNL     1     -44.904  60.646 -50.218  1.00  0.00     0.102 A 
HETATM   29  O   UNL     1     -42.738  61.732 -50.461  1.00  0.00    -0.346 OA
HETATM   30  O   UNL     1     -45.476  61.667 -49.504  1.00  0.00    -0.346 OA
HETATM   31  C   UNL     1     -45.713  59.548 -50.497  1.00  0.00     0.040 A 
HETATM   32  C   UNL     1     -44.483  62.563 -48.992  1.00  0.00     0.202 C 
HETATM   33  C   UNL     1     -43.462  62.902 -50.066  1.00  0.00     0.202 C 
HETATM   34  C   UNL     1     -45.193  58.461 -51.203  1.00  0.00     0.012 A 
ENDBRANCH   1  25
TORSDOF 8
ENDMDL
MODEL 7
REMARK VINA RESULT:      -7.8      2.054      8.469
REMARK  8 active torsions:
REMARK  status: ('A' for Active; 'I' for Inactive)
REMARK    1  A    between atoms: C_2  and  C_3 
REMARK    2  A    between atoms: C_5  and  C_6 
REMARK       I    between atoms: C_6  and  N_7 
REMARK    3  A    between atoms: N_7  and  C_8 
REMARK    4  A    between atoms: C_8  and  C_9 
REMARK    5  A    between atoms: C_9  and  N_10 
REMARK    6  A    between atoms: C_9  and  C_20 
REMARK       I    between atoms: N_10  and  C_11 
REMARK    7  A    between atoms: C_11  and  C_12 
REMARK    8  A    between atoms: C_14  and  C_15 
ROOT
HETATM    1  C   UNL     1     -42.238  56.671 -54.305  1.00  0.00     0.136 C 
ENDROOT
BRANCH   1   2
HETATM    2  C   UNL     1     -40.745  56.319 -54.079  1.00  0.00     0.153 C 
BRANCH   2   3
HETATM    3  N   UNL     1     -40.465  54.898 -54.166  1.00  0.00    -0.353 N 
HETATM    4  C   UNL     1     -40.578  54.052 -53.086  1.00  0.00     0.275 C 
HETATM    5  O   UNL     1     -40.876  54.461 -51.966  1.00  0.00    -0.265 OA
HETATM    6  H   UNL     1     -40.337  54.482 -55.084  1.00  0.00     0.162 HD
BRANCH   4   7
HETATM    7  C   UNL     1     -40.331  52.659 -53.391  1.00  0.00     0.143 A 
HETATM    8  O   UNL     1     -39.965  51.798 -52.388  1.00  0.00    -0.310 OA
HETATM    9  C   UNL     1     -39.818  50.565 -52.947  1.00  0.00     0.053 A 
HETATM   10  C   UNL     1     -40.074  50.621 -54.300  1.00  0.00     0.036 A 
HETATM   11  C   UNL     1     -40.403  51.967 -54.585  1.00  0.00     0.045 A 
BRANCH   9  12
HETATM   12  C   UNL     1     -39.437  49.463 -52.029  1.00  0.00     0.060 C 
HETATM   13  C   UNL     1     -39.770  49.798 -50.586  1.00  0.00     0.012 C 
ENDBRANCH   9  12
ENDBRANCH   4   7
ENDBRANCH   2   3
ENDBRANCH   1   2
BRANCH   1  14
HETATM   14  N   UNL     1     -42.663  56.816 -55.695  1.00  0.00    -0.345 N 
HETATM   15  C   UNL     1     -42.926  55.794 -56.575  1.00  0.00     0.276 C 
HETATM   16  O   UNL     1     -42.978  54.614 -56.244  1.00  0.00    -0.265 OA
HETATM   17  H   UNL     1     -42.567  57.734 -56.110  1.00  0.00     0.163 HD
BRANCH  15  18
HETATM   18  C   UNL     1     -43.138  56.243 -57.937  1.00  0.00     0.143 A 
HETATM   19  O   UNL     1     -43.067  57.583 -58.225  1.00  0.00    -0.310 OA
HETATM   20  C   UNL     1     -43.291  57.722 -59.561  1.00  0.00     0.053 A 
HETATM   21  C   UNL     1     -43.504  56.490 -60.139  1.00  0.00     0.036 A 
HETATM   22  C   UNL     1     -43.407  55.539 -59.095  1.00  0.00     0.045 A 
BRANCH  20  23
HETATM   23  C   UNL     1     -43.257  59.106 -60.098  1.00  0.00     0.060 C 
HETATM   24  C   UNL     1     -41.959  59.384 -60.839  1.00  0.00     0.012 C 
ENDBRANCH  20  23
ENDBRANCH  15  18
ENDBRANCH   1  14
BRANCH   1  25
HETATM   25  C   UNL     1     -42.671  57.871 -53.478  1.00  0.00    -0.031 A 
HETATM   26  C   UNL     1     -43.867  57.865 -52.740  1.00  0.00     0.049 A 
HETATM   27  C   UNL     1     -44.239  58.978 -51.985  1.00  0.00     0.102 A 
HETATM   28  C   UNL     1     -43.443  60.125 -51.984  1.00  0.00     0.102 A 
HETATM   29  O   UNL     1     -45.409  58.876 -51.274  1.00  0.00    -0.346 OA
HETATM   30  O   UNL     1     -43.765  61.266 -51.295  1.00  0.00    -0.346 OA
HETATM   31  C   UNL     1     -42.250  60.143 -52.702  1.00  0.00     0.040 A 
HETATM   32  C   UNL     1     -45.138  61.257 -50.888  1.00  0.00     0.202 C 
HETATM   33  C   UNL     1     -45.511  59.910 -50.290  1.00  0.00     0.202 C 
HETATM   34  C   UNL     1     -41.867  59.024 -53.444  1.00  0.00     0.012 A 
ENDBRANCH   1  25
TORSDOF 8
ENDMDL
MODEL 8
REMARK VINA RESULT:      -7.8      1.745      2.598
REMARK  8 active torsions:
REMARK  status: ('A' for Active; 'I' for Inactive)
REMARK    1  A    between atoms: C_2  and  C_3 
REMARK    2  A    between atoms: C_5  and  C_6 
REMARK       I    between atoms: C_6  and  N_7 
REMARK    3  A    between atoms: N_7  and  C_8 
REMARK    4  A    between atoms: C_8  and  C_9 
REMARK    5  A    between atoms: C_9  and  N_10 
REMARK    6  A    between atoms: C_9  and  C_20 
REMARK       I    between atoms: N_10  and  C_11 
REMARK    7  A    between atoms: C_11  and  C_12 
REMARK    8  A    between atoms: C_14  and  C_15 
ROOT
HETATM    1  C   UNL     1     -41.566  55.030 -53.981  1.00  0.00     0.136 C 
ENDROOT
BRANCH   1   2
HETATM    2  C   UNL     1     -41.047  55.386 -55.397  1.00  0.00     0.153 C 
BRANCH   2   3
HETATM    3  N   UNL     1     -42.054  55.988 -56.251  1.00  0.00    -0.353 N 
HETATM    4  C   UNL     1     -42.380  57.324 -56.183  1.00  0.00     0.275 C 
HETATM    5  O   UNL     1     -41.872  58.078 -55.357  1.00  0.00    -0.265 OA
HETATM    6  H   UNL     1     -42.417  55.450 -57.031  1.00  0.00     0.162 HD
BRANCH   4   7
HETATM    7  C   UNL     1     -43.352  57.751 -57.168  1.00  0.00     0.143 A 
HETATM    8  O   UNL     1     -42.932  58.128 -58.418  1.00  0.00    -0.310 OA
HETATM    9  C   UNL     1     -44.041  58.459 -59.135  1.00  0.00     0.053 A 
HETATM   10  C   UNL     1     -45.171  58.311 -58.360  1.00  0.00     0.036 A 
HETATM   11  C   UNL     1     -44.728  57.857 -57.095  1.00  0.00     0.045 A 
BRANCH   9  12
HETATM   12  C   UNL     1     -43.820  58.884 -60.539  1.00  0.00     0.060 C 
HETATM   13  C   UNL     1     -42.451  59.513 -60.724  1.00  0.00     0.012 C 
ENDBRANCH   9  12
ENDBRANCH   4   7
ENDBRANCH   2   3
ENDBRANCH   1   2
BRANCH   1  14
HETATM   14  N   UNL     1     -41.400  56.056 -52.956  1.00  0.00    -0.345 N 
HETATM   15  C   UNL     1     -42.409  56.711 -52.290  1.00  0.00     0.276 C 
HETATM   16  O   UNL     1     -43.591  56.397 -52.377  1.00  0.00    -0.265 OA
HETATM   17  H   UNL     1     -40.479  56.467 -52.863  1.00  0.00     0.163 HD
BRANCH  15  18
HETATM   18  C   UNL     1     -41.941  57.813 -51.473  1.00  0.00     0.143 A 
HETATM   19  O   UNL     1     -42.624  59.003 -51.488  1.00  0.00    -0.310 OA
HETATM   20  C   UNL     1     -41.984  59.848 -50.633  1.00  0.00     0.053 A 
HETATM   21  C   UNL     1     -40.897  59.219 -50.066  1.00  0.00     0.036 A 
HETATM   22  C   UNL     1     -40.869  57.911 -50.606  1.00  0.00     0.045 A 
BRANCH  20  23
HETATM   23  C   UNL     1     -42.561  61.209 -50.490  1.00  0.00     0.060 C 
HETATM   24  C   UNL     1     -43.822  61.192 -49.641  1.00  0.00     0.012 C 
ENDBRANCH  20  23
ENDBRANCH  15  18
ENDBRANCH   1  14
BRANCH   1  25
HETATM   25  C   UNL     1     -41.031  53.690 -53.499  1.00  0.00    -0.031 A 
HETATM   26  C   UNL     1     -40.947  53.379 -52.131  1.00  0.00     0.049 A 
HETATM   27  C   UNL     1     -40.456  52.141 -51.715  1.00  0.00     0.102 A 
HETATM   28  C   UNL     1     -40.008  51.210 -52.656  1.00  0.00     0.102 A 
HETATM   29  O   UNL     1     -40.433  51.910 -50.363  1.00  0.00    -0.346 OA
HETATM   30  O   UNL     1     -39.481  49.990 -52.318  1.00  0.00    -0.346 OA
HETATM   31  C   UNL     1     -40.095  51.500 -54.015  1.00  0.00     0.040 A 
HETATM   32  C   UNL     1     -39.130  49.942 -50.931  1.00  0.00     0.202 C 
HETATM   33  C   UNL     1     -40.246  50.520 -50.076  1.00  0.00     0.202 C 
HETATM   34  C   UNL     1     -40.602  52.732 -54.434  1.00  0.00     0.012 A 
ENDBRANCH   1  25
TORSDOF 8
ENDMDL
MODEL 9
REMARK VINA RESULT:      -7.7      2.379      7.695
REMARK  8 active torsions:
REMARK  status: ('A' for Active; 'I' for Inactive)
REMARK    1  A    between atoms: C_2  and  C_3 
REMARK    2  A    between atoms: C_5  and  C_6 
REMARK       I    between atoms: C_6  and  N_7 
REMARK    3  A    between atoms: N_7  and  C_8 
REMARK    4  A    between atoms: C_8  and  C_9 
REMARK    5  A    between atoms: C_9  and  N_10 
REMARK    6  A    between atoms: C_9  and  C_20 
REMARK       I    between atoms: N_10  and  C_11 
REMARK    7  A    between atoms: C_11  and  C_12 
REMARK    8  A    between atoms: C_14  and  C_15 
ROOT
HETATM    1  C   UNL     1     -43.230  55.907 -55.845  1.00  0.00     0.136 C 
ENDROOT
BRANCH   1   2
HETATM    2  C   UNL     1     -42.825  54.413 -55.937  1.00  0.00     0.153 C 
BRANCH   2   3
HETATM    3  N   UNL     1     -42.272  53.885 -54.704  1.00  0.00    -0.353 N 
HETATM    4  C   UNL     1     -40.922  53.683 -54.524  1.00  0.00     0.275 C 
HETATM    5  O   UNL     1     -40.107  53.890 -55.420  1.00  0.00    -0.265 OA
HETATM    6  H   UNL     1     -42.875  53.813 -53.890  1.00  0.00     0.162 HD
BRANCH   4   7
HETATM    7  C   UNL     1     -40.559  53.223 -53.201  1.00  0.00     0.143 A 
HETATM    8  O   UNL     1     -40.189  51.916 -53.013  1.00  0.00    -0.310 OA
HETATM    9  C   UNL     1     -39.886  51.766 -51.693  1.00  0.00     0.053 A 
HETATM   10  C   UNL     1     -40.068  52.958 -51.025  1.00  0.00     0.036 A 
HETATM   11  C   UNL     1     -40.501  53.894 -51.993  1.00  0.00     0.045 A 
BRANCH   9  12
HETATM   12  C   UNL     1     -39.438  50.418 -51.264  1.00  0.00     0.060 C 
HETATM   13  C   UNL     1     -39.598  49.397 -52.377  1.00  0.00     0.012 C 
ENDBRANCH   9  12
ENDBRANCH   4   7
ENDBRANCH   2   3
ENDBRANCH   1   2
BRANCH   1  14
HETATM   14  N   UNL     1     -42.781  56.765 -56.938  1.00  0.00    -0.345 N 
HETATM   15  C   UNL     1     -43.515  57.753 -57.551  1.00  0.00     0.276 C 
HETATM   16  O   UNL     1     -44.606  58.135 -57.142  1.00  0.00    -0.265 OA
HETATM   17  H   UNL     1     -41.936  56.487 -57.422  1.00  0.00     0.163 HD
BRANCH  15  18
HETATM   18  C   UNL     1     -42.874  58.301 -58.730  1.00  0.00     0.143 A 
HETATM   19  O   UNL     1     -42.703  59.658 -58.836  1.00  0.00    -0.310 OA
HETATM   20  C   UNL     1     -42.074  59.896 -60.021  1.00  0.00     0.053 A 
HETATM   21  C   UNL     1     -41.838  58.709 -60.680  1.00  0.00     0.036 A 
HETATM   22  C   UNL     1     -42.353  57.685 -59.851  1.00  0.00     0.045 A 
BRANCH  20  23
HETATM   23  C   UNL     1     -41.783  61.315 -60.344  1.00  0.00     0.060 C 
HETATM   24  C   UNL     1     -40.847  61.938 -59.321  1.00  0.00     0.012 C 
ENDBRANCH  20  23
ENDBRANCH  15  18
ENDBRANCH   1  14
BRANCH   1  25
HETATM   25  C   UNL     1     -42.870  56.512 -54.497  1.00  0.00    -0.031 A 
HETATM   26  C   UNL     1     -41.656  57.190 -54.294  1.00  0.00     0.049 A 
HETATM   27  C   UNL     1     -41.352  57.741 -53.048  1.00  0.00     0.102 A 
HETATM   28  C   UNL     1     -42.238  57.591 -51.979  1.00  0.00     0.102 A 
HETATM   29  O   UNL     1     -40.158  58.409 -52.945  1.00  0.00    -0.346 OA
HETATM   30  O   UNL     1     -41.988  58.074 -50.720  1.00  0.00    -0.346 OA
HETATM   31  C   UNL     1     -43.449  56.931 -52.167  1.00  0.00     0.040 A 
HETATM   32  C   UNL     1     -40.607  58.418 -50.559  1.00  0.00     0.202 C 
HETATM   33  C   UNL     1     -40.110  59.208 -51.759  1.00  0.00     0.202 C 
HETATM   34  C   UNL     1     -43.763  56.395 -53.418  1.00  0.00     0.012 A 
ENDBRANCH   1  25
TORSDOF 8
ENDMDL
MODEL 10
REMARK VINA RESULT:      -7.7      2.488      7.803
REMARK  8 active torsions:
REMARK  status: ('A' for Active; 'I' for Inactive)
REMARK    1  A    between atoms: C_2  and  C_3 
REMARK    2  A    between atoms: C_5  and  C_6 
REMARK       I    between atoms: C_6  and  N_7 
REMARK    3  A    between atoms: N_7  and  C_8 
REMARK    4  A    between atoms: C_8  and  C_9 
REMARK    5  A    between atoms: C_9  and  N_10 
REMARK    6  A    between atoms: C_9  and  C_20 
REMARK       I    between atoms: N_10  and  C_11 
REMARK    7  A    between atoms: C_11  and  C_12 
REMARK    8  A    between atoms: C_14  and  C_15 
ROOT
HETATM    1  C   UNL     1     -42.568  56.080 -55.581  1.00  0.00     0.136 C 
ENDROOT
BRANCH   1   2
HETATM    2  C   UNL     1     -42.899  54.565 -55.578  1.00  0.00     0.153 C 
BRANCH   2   3
HETATM    3  N   UNL     1     -42.258  53.833 -54.502  1.00  0.00    -0.353 N 
HETATM    4  C   UNL     1     -40.913  53.540 -54.503  1.00  0.00     0.275 C 
HETATM    5  O   UNL     1     -40.182  53.839 -55.445  1.00  0.00    -0.265 OA
HETATM    6  H   UNL     1     -42.779  53.670 -53.646  1.00  0.00     0.162 HD
BRANCH   4   7
HETATM    7  C   UNL     1     -40.447  52.871 -53.307  1.00  0.00     0.143 A 
HETATM    8  O   UNL     1     -40.714  53.416 -52.077  1.00  0.00    -0.310 OA
HETATM    9  C   UNL     1     -40.184  52.580 -51.141  1.00  0.00     0.053 A 
HETATM   10  C   UNL     1     -39.568  51.510 -51.752  1.00  0.00     0.036 A 
HETATM   11  C   UNL     1     -39.737  51.697 -53.144  1.00  0.00     0.045 A 
BRANCH   9  12
HETATM   12  C   UNL     1     -40.373  52.970 -49.721  1.00  0.00     0.060 C 
HETATM   13  C   UNL     1     -39.682  54.285 -49.406  1.00  0.00     0.012 C 
ENDBRANCH   9  12
ENDBRANCH   4   7
ENDBRANCH   2   3
ENDBRANCH   1   2
BRANCH   1  14
HETATM   14  N   UNL     1     -43.266  56.894 -54.590  1.00  0.00    -0.345 N 
HETATM   15  C   UNL     1     -42.981  56.962 -53.247  1.00  0.00     0.276 C 
HETATM   16  O   UNL     1     -41.991  56.445 -52.739  1.00  0.00    -0.265 OA
HETATM   17  H   UNL     1     -44.155  57.291 -54.867  1.00  0.00     0.163 HD
BRANCH  15  18
HETATM   18  C   UNL     1     -43.966  57.703 -52.484  1.00  0.00     0.143 A 
HETATM   19  O   UNL     1     -44.501  58.853 -53.007  1.00  0.00    -0.310 OA
HETATM   20  C   UNL     1     -45.395  59.334 -52.100  1.00  0.00     0.053 A 
HETATM   21  C   UNL     1     -45.445  58.508 -50.997  1.00  0.00     0.036 A 
HETATM   22  C   UNL     1     -44.526  57.461 -51.244  1.00  0.00     0.045 A 
BRANCH  20  23
HETATM   23  C   UNL     1     -46.103  60.586 -52.466  1.00  0.00     0.060 C 
HETATM   24  C   UNL     1     -46.347  61.464 -51.250  1.00  0.00     0.012 C 
ENDBRANCH  20  23
ENDBRANCH  15  18
ENDBRANCH   1  14
BRANCH   1  25
HETATM   25  C   UNL     1     -42.695  56.687 -56.969  1.00  0.00    -0.031 A 
HETATM   26  C   UNL     1     -42.439  58.049 -57.204  1.00  0.00     0.049 A 
HETATM   27  C   UNL     1     -42.558  58.581 -58.488  1.00  0.00     0.102 A 
HETATM   28  C   UNL     1     -42.968  57.771 -59.549  1.00  0.00     0.102 A 
HETATM   29  O   UNL     1     -42.264  59.914 -58.632  1.00  0.00    -0.346 OA
HETATM   30  O   UNL     1     -43.141  58.234 -60.828  1.00  0.00    -0.346 OA
HETATM   31  C   UNL     1     -43.216  56.418 -59.335  1.00  0.00     0.040 A 
HETATM   32  C   UNL     1     -43.194  59.665 -60.861  1.00  0.00     0.202 C 
HETATM   33  C   UNL     1     -42.085  60.261 -60.010  1.00  0.00     0.202 C 
HETATM   34  C   UNL     1     -43.080  55.879 -58.053  1.00  0.00     0.012 A 
ENDBRANCH   1  25
TORSDOF 8
ENDMDL
