MODEL 1
REMARK VINA RESULT:      -8.1      0.000      0.000
REMARK  7 active torsions:
REMARK  status: ('A' for Active; 'I' for Inactive)
REMARK    1  A    between atoms: C_7  and  C_8 
REMARK    2  A    between atoms: C_8  and  N_9 
REMARK       I    between atoms: N_9  and  C_10 
REMARK       I    between atoms: C_10  and  N_11 
REMARK    3  A    between atoms: N_11  and  C_12 
REMARK    4  A    between atoms: C_12  and  C_13 
REMARK    5  A    between atoms: C_13  and  C_14 
REMARK    6  A    between atoms: C_14  and  O_15 
REMARK    7  A    between atoms: C_14  and  C_16 
ROOT
HETATM    1  N   UNL     1     -41.055  55.603 -54.489  1.00  0.00    -0.337 N 
HETATM    2  C   UNL     1     -42.202  55.972 -55.145  1.00  0.00     0.316 C 
HETATM    3  N   UNL     1     -41.940  56.653 -56.294  1.00  0.00    -0.339 N 
HETATM    4  O   UNL     1     -43.323  55.689 -54.736  1.00  0.00    -0.247 OA
HETATM    5  H   UNL     1     -40.217  56.048 -54.836  1.00  0.00     0.164 HD
HETATM    6  H   UNL     1     -40.995  56.989 -56.462  1.00  0.00     0.164 HD
ENDROOT
BRANCH   1   7
HETATM    7  C   UNL     1     -41.071  55.279 -53.076  1.00  0.00     0.183 C 
BRANCH   7   8
HETATM    8  C   UNL     1     -40.747  53.856 -52.810  1.00  0.00     0.044 A 
HETATM    9  N   UNL     1     -40.570  53.337 -51.535  1.00  0.00    -0.343 N 
HETATM   10  C   UNL     1     -40.240  52.055 -51.580  1.00  0.00     0.112 A 
HETATM   11  H   UNL     1     -40.680  53.907 -50.687  1.00  0.00     0.167 HD
HETATM   12  N   UNL     1     -40.162  51.699 -52.879  1.00  0.00    -0.311 N 
HETATM   13  C   UNL     1     -39.961  51.091 -50.491  1.00  0.00     0.049 A 
HETATM   14  C   UNL     1     -39.793  50.418 -53.285  1.00  0.00     0.014 A 
HETATM   15  C   UNL     1     -40.490  52.799 -53.659  1.00  0.00     0.125 A 
HETATM   16  C   UNL     1     -39.685  50.068 -54.739  1.00  0.00     0.068 C 
HETATM   17  C   UNL     1     -39.533  49.531 -52.298  1.00  0.00     0.025 A 
HETATM   18  C   UNL     1     -39.618  49.850 -50.877  1.00  0.00     0.006 A 
ENDBRANCH   7   8
ENDBRANCH   1   7
BRANCH   3  19
HETATM   19  C   UNL     1     -42.959  57.353 -57.069  1.00  0.00     0.085 C 
HETATM   20  C   UNL     1     -43.343  58.676 -56.407  1.00  0.00     0.032 C 
BRANCH  19  21
HETATM   21  C   UNL     1     -42.512  57.512 -58.537  1.00  0.00     0.063 C 
BRANCH  21  22
HETATM   22  C   UNL     1     -42.272  56.230 -59.352  1.00  0.00     0.177 C 
BRANCH  22  23
HETATM   23  O   UNL     1     -41.446  56.509 -60.494  1.00  0.00    -0.389 OA
HETATM   24  H   UNL     1     -40.794  55.780 -60.515  1.00  0.00     0.210 HD
ENDBRANCH  22  23
BRANCH  22  25
HETATM   25  C   UNL     1     -43.517  55.552 -59.821  1.00  0.00     0.081 A 
HETATM   26  O   UNL     1     -44.061  55.998 -60.994  1.00  0.00    -0.324 OA
HETATM   27  C   UNL     1     -45.154  55.233 -61.244  1.00  0.00     0.142 A 
HETATM   28  C   UNL     1     -45.316  54.290 -60.259  1.00  0.00     0.027 A 
HETATM   29  C   UNL     1     -44.255  54.488 -59.342  1.00  0.00     0.037 A 
ENDBRANCH  22  25
ENDBRANCH  21  22
ENDBRANCH  19  21
ENDBRANCH   3  19
TORSDOF 7
ENDMDL
MODEL 2
REMARK VINA RESULT:      -8.1      1.618      2.132
REMARK  7 active torsions:
REMARK  status: ('A' for Active; 'I' for Inactive)
REMARK    1  A    between atoms: C_7  and  C_8 
REMARK    2  A    between atoms: C_8  and  N_9 
REMARK       I    between atoms: N_9  and  C_10 
REMARK       I    between atoms: C_10  and  N_11 
REMARK    3  A    between atoms: N_11  and  C_12 
REMARK    4  A    between atoms: C_12  and  C_13 
REMARK    5  A    between atoms: C_13  and  C_14 
REMARK    6  A    between atoms: C_14  and  O_15 
REMARK    7  A    between atoms: C_14  and  C_16 
ROOT
HETATM    1  N   UNL     1     -41.302  55.047 -55.893  1.00  0.00    -0.337 N 
HETATM    2  C   UNL     1     -42.481  55.608 -56.313  1.00  0.00     0.316 C 
HETATM    3  N   UNL     1     -42.541  55.723 -57.667  1.00  0.00    -0.339 N 
HETATM    4  O   UNL     1     -43.374  55.937 -55.539  1.00  0.00    -0.247 OA
HETATM    5  H   UNL     1     -40.591  54.988 -56.610  1.00  0.00     0.164 HD
HETATM    6  H   UNL     1     -41.692  55.587 -58.211  1.00  0.00     0.164 HD
ENDROOT
BRANCH   1   7
HETATM    7  C   UNL     1     -40.828  55.225 -54.535  1.00  0.00     0.183 C 
BRANCH   7   8
HETATM    8  C   UNL     1     -40.582  53.938 -53.838  1.00  0.00     0.044 A 
HETATM    9  N   UNL     1     -40.545  53.810 -52.457  1.00  0.00    -0.343 N 
HETATM   10  C   UNL     1     -40.259  52.568 -52.097  1.00  0.00     0.112 A 
HETATM   11  H   UNL     1     -40.714  54.602 -51.825  1.00  0.00     0.167 HD
HETATM   12  N   UNL     1     -40.072  51.850 -53.224  1.00  0.00    -0.311 N 
HETATM   13  C   UNL     1     -40.119  51.960 -50.755  1.00  0.00     0.049 A 
HETATM   14  C   UNL     1     -39.713  50.503 -53.205  1.00  0.00     0.014 A 
HETATM   15  C   UNL     1     -40.285  52.679 -54.317  1.00  0.00     0.125 A 
HETATM   16  C   UNL     1     -39.481  49.746 -54.478  1.00  0.00     0.068 C 
HETATM   17  C   UNL     1     -39.578  49.939 -51.984  1.00  0.00     0.025 A 
HETATM   18  C   UNL     1     -39.786  50.658 -50.731  1.00  0.00     0.006 A 
ENDBRANCH   7   8
ENDBRANCH   1   7
BRANCH   3  19
HETATM   19  C   UNL     1     -43.572  56.481 -58.369  1.00  0.00     0.085 C 
HETATM   20  C   UNL     1     -43.357  57.985 -58.207  1.00  0.00     0.032 C 
BRANCH  19  21
HETATM   21  C   UNL     1     -43.668  56.033 -59.843  1.00  0.00     0.063 C 
BRANCH  21  22
HETATM   22  C   UNL     1     -44.981  55.380 -60.304  1.00  0.00     0.177 C 
BRANCH  22  23
HETATM   23  O   UNL     1     -44.740  54.501 -61.415  1.00  0.00    -0.389 OA
HETATM   24  H   UNL     1     -45.568  53.988 -61.512  1.00  0.00     0.210 HD
ENDBRANCH  22  23
BRANCH  22  25
HETATM   25  C   UNL     1     -46.054  56.346 -60.686  1.00  0.00     0.081 A 
HETATM   26  O   UNL     1     -47.005  55.900 -61.562  1.00  0.00    -0.324 OA
HETATM   27  C   UNL     1     -47.886  56.916 -61.747  1.00  0.00     0.142 A 
HETATM   28  C   UNL     1     -47.527  58.006 -60.992  1.00  0.00     0.027 A 
HETATM   29  C   UNL     1     -46.348  57.638 -60.299  1.00  0.00     0.037 A 
ENDBRANCH  22  25
ENDBRANCH  21  22
ENDBRANCH  19  21
ENDBRANCH   3  19
TORSDOF 7
ENDMDL
MODEL 3
REMARK VINA RESULT:      -7.9      1.337      2.373
REMARK  7 active torsions:
REMARK  status: ('A' for Active; 'I' for Inactive)
REMARK    1  A    between atoms: C_7  and  C_8 
REMARK    2  A    between atoms: C_8  and  N_9 
REMARK       I    between atoms: N_9  and  C_10 
REMARK       I    between atoms: C_10  and  N_11 
REMARK    3  A    between atoms: N_11  and  C_12 
REMARK    4  A    between atoms: C_12  and  C_13 
REMARK    5  A    between atoms: C_13  and  C_14 
REMARK    6  A    between atoms: C_14  and  O_15 
REMARK    7  A    between atoms: C_14  and  C_16 
ROOT
HETATM    1  N   UNL     1     -42.206  57.589 -54.701  1.00  0.00    -0.337 N 
HETATM    2  C   UNL     1     -42.845  57.364 -55.894  1.00  0.00     0.316 C 
HETATM    3  N   UNL     1     -42.639  58.373 -56.785  1.00  0.00    -0.339 N 
HETATM    4  O   UNL     1     -43.500  56.352 -56.117  1.00  0.00    -0.247 OA
HETATM    5  H   UNL     1     -41.854  58.530 -54.590  1.00  0.00     0.164 HD
HETATM    6  H   UNL     1     -42.231  59.244 -56.456  1.00  0.00     0.164 HD
ENDROOT
BRANCH   1   7
HETATM    7  C   UNL     1     -42.621  56.912 -53.489  1.00  0.00     0.183 C 
BRANCH   7   8
HETATM    8  C   UNL     1     -41.831  55.686 -53.216  1.00  0.00     0.044 A 
HETATM    9  N   UNL     1     -41.516  54.746 -54.187  1.00  0.00    -0.343 N 
HETATM   10  C   UNL     1     -40.849  53.726 -53.670  1.00  0.00     0.112 A 
HETATM   11  H   UNL     1     -41.791  54.857 -55.172  1.00  0.00     0.167 HD
HETATM   12  N   UNL     1     -40.728  53.947 -52.345  1.00  0.00    -0.311 N 
HETATM   13  C   UNL     1     -40.304  52.506 -54.309  1.00  0.00     0.049 A 
HETATM   14  C   UNL     1     -40.109  53.040 -51.486  1.00  0.00     0.014 A 
HETATM   15  C   UNL     1     -41.317  55.168 -52.045  1.00  0.00     0.125 A 
HETATM   16  C   UNL     1     -40.024  53.305 -50.013  1.00  0.00     0.068 C 
HETATM   17  C   UNL     1     -39.612  51.921 -52.058  1.00  0.00     0.025 A 
HETATM   18  C   UNL     1     -39.694  51.635 -53.487  1.00  0.00     0.006 A 
ENDBRANCH   7   8
ENDBRANCH   1   7
BRANCH   3  19
HETATM   19  C   UNL     1     -43.373  58.505 -58.039  1.00  0.00     0.085 C 
HETATM   20  C   UNL     1     -44.001  59.892 -58.167  1.00  0.00     0.032 C 
BRANCH  19  21
HETATM   21  C   UNL     1     -42.475  58.128 -59.237  1.00  0.00     0.063 C 
BRANCH  21  22
HETATM   22  C   UNL     1     -42.186  56.636 -59.469  1.00  0.00     0.177 C 
BRANCH  22  23
HETATM   23  O   UNL     1     -41.211  56.470 -60.511  1.00  0.00    -0.389 OA
HETATM   24  H   UNL     1     -41.724  56.167 -61.287  1.00  0.00     0.210 HD
ENDBRANCH  22  23
BRANCH  22  25
HETATM   25  C   UNL     1     -43.388  55.817 -59.808  1.00  0.00     0.081 A 
HETATM   26  O   UNL     1     -43.976  56.054 -61.021  1.00  0.00    -0.324 OA
HETATM   27  C   UNL     1     -45.018  55.192 -61.135  1.00  0.00     0.142 A 
HETATM   28  C   UNL     1     -45.103  54.391 -60.021  1.00  0.00     0.027 A 
HETATM   29  C   UNL     1     -44.046  54.787 -59.166  1.00  0.00     0.037 A 
ENDBRANCH  22  25
ENDBRANCH  21  22
ENDBRANCH  19  21
ENDBRANCH   3  19
TORSDOF 7
ENDMDL
MODEL 4
REMARK VINA RESULT:      -7.8      3.428      7.821
REMARK  7 active torsions:
REMARK  status: ('A' for Active; 'I' for Inactive)
REMARK    1  A    between atoms: C_7  and  C_8 
REMARK    2  A    between atoms: C_8  and  N_9 
REMARK       I    between atoms: N_9  and  C_10 
REMARK       I    between atoms: C_10  and  N_11 
REMARK    3  A    between atoms: N_11  and  C_12 
REMARK    4  A    between atoms: C_12  and  C_13 
REMARK    5  A    between atoms: C_13  and  C_14 
REMARK    6  A    between atoms: C_14  and  O_15 
REMARK    7  A    between atoms: C_14  and  C_16 
ROOT
HETATM    1  N   UNL     1     -42.544  56.662 -50.574  1.00  0.00    -0.337 N 
HETATM    2  C   UNL     1     -42.146  55.459 -50.050  1.00  0.00     0.316 C 
HETATM    3  N   UNL     1     -40.798  55.397 -49.874  1.00  0.00    -0.339 N 
HETATM    4  O   UNL     1     -42.935  54.566 -49.759  1.00  0.00    -0.247 OA
HETATM    5  H   UNL     1     -41.788  57.232 -50.928  1.00  0.00     0.164 HD
HETATM    6  H   UNL     1     -40.212  56.110 -50.301  1.00  0.00     0.164 HD
ENDROOT
BRANCH   1   7
HETATM    7  C   UNL     1     -43.821  56.802 -51.247  1.00  0.00     0.183 C 
BRANCH   7   8
HETATM    8  C   UNL     1     -43.713  56.660 -52.720  1.00  0.00     0.044 A 
HETATM    9  N   UNL     1     -43.314  55.490 -53.350  1.00  0.00    -0.343 N 
HETATM   10  C   UNL     1     -43.255  55.648 -54.663  1.00  0.00     0.112 A 
HETATM   11  H   UNL     1     -43.091  54.632 -52.830  1.00  0.00     0.167 HD
HETATM   12  N   UNL     1     -43.584  56.927 -54.936  1.00  0.00    -0.311 N 
HETATM   13  C   UNL     1     -42.891  54.693 -55.734  1.00  0.00     0.049 A 
HETATM   14  C   UNL     1     -43.581  57.443 -56.231  1.00  0.00     0.014 A 
HETATM   15  C   UNL     1     -43.889  57.569 -53.743  1.00  0.00     0.125 A 
HETATM   16  C   UNL     1     -43.920  58.881 -56.491  1.00  0.00     0.068 C 
HETATM   17  C   UNL     1     -43.246  56.581 -57.216  1.00  0.00     0.025 A 
HETATM   18  C   UNL     1     -42.900  55.182 -56.986  1.00  0.00     0.006 A 
ENDBRANCH   7   8
ENDBRANCH   1   7
BRANCH   3  19
HETATM   19  C   UNL     1     -40.082  54.169 -49.546  1.00  0.00     0.085 C 
HETATM   20  C   UNL     1     -40.301  53.775 -48.085  1.00  0.00     0.032 C 
BRANCH  19  21
HETATM   21  C   UNL     1     -40.444  53.046 -50.541  1.00  0.00     0.063 C 
BRANCH  21  22
HETATM   22  C   UNL     1     -39.877  53.148 -51.967  1.00  0.00     0.177 C 
BRANCH  22  23
HETATM   23  O   UNL     1     -40.608  54.124 -52.727  1.00  0.00    -0.389 OA
HETATM   24  H   UNL     1     -40.850  53.664 -53.556  1.00  0.00     0.210 HD
ENDBRANCH  22  23
BRANCH  22  25
HETATM   25  C   UNL     1     -39.872  51.862 -52.726  1.00  0.00     0.081 A 
HETATM   26  O   UNL     1     -39.565  50.729 -52.022  1.00  0.00    -0.324 OA
HETATM   27  C   UNL     1     -39.645  49.687 -52.888  1.00  0.00     0.142 A 
HETATM   28  C   UNL     1     -40.015  50.127 -54.137  1.00  0.00     0.027 A 
HETATM   29  C   UNL     1     -40.170  51.531 -54.033  1.00  0.00     0.037 A 
ENDBRANCH  22  25
ENDBRANCH  21  22
ENDBRANCH  19  21
ENDBRANCH   3  19
TORSDOF 7
ENDMDL
MODEL 5
REMARK VINA RESULT:      -7.7      2.916      8.256
REMARK  7 active torsions:
REMARK  status: ('A' for Active; 'I' for Inactive)
REMARK    1  A    between atoms: C_7  and  C_8 
REMARK    2  A    between atoms: C_8  and  N_9 
REMARK       I    between atoms: N_9  and  C_10 
REMARK       I    between atoms: C_10  and  N_11 
REMARK    3  A    between atoms: N_11  and  C_12 
REMARK    4  A    between atoms: C_12  and  C_13 
REMARK    5  A    between atoms: C_13  and  C_14 
REMARK    6  A    between atoms: C_14  and  O_15 
REMARK    7  A    between atoms: C_14  and  C_16 
ROOT
HETATM    1  N   UNL     1     -44.665  56.223 -54.295  1.00  0.00    -0.337 N 
HETATM    2  C   UNL     1     -43.517  56.106 -53.553  1.00  0.00     0.316 C 
HETATM    3  N   UNL     1     -43.594  55.094 -52.646  1.00  0.00    -0.339 N 
HETATM    4  O   UNL     1     -42.538  56.825 -53.723  1.00  0.00    -0.247 OA
HETATM    5  H   UNL     1     -45.447  55.692 -53.937  1.00  0.00     0.164 HD
HETATM    6  H   UNL     1     -44.498  54.668 -52.459  1.00  0.00     0.164 HD
ENDROOT
BRANCH   1   7
HETATM    7  C   UNL     1     -44.989  57.456 -54.984  1.00  0.00     0.183 C 
BRANCH   7   8
HETATM    8  C   UNL     1     -44.293  57.586 -56.289  1.00  0.00     0.044 A 
HETATM    9  N   UNL     1     -44.004  56.508 -57.113  1.00  0.00    -0.343 N 
HETATM   10  C   UNL     1     -43.336  56.892 -58.190  1.00  0.00     0.112 A 
HETATM   11  H   UNL     1     -44.282  55.546 -56.881  1.00  0.00     0.167 HD
HETATM   12  N   UNL     1     -43.140  58.224 -58.094  1.00  0.00    -0.311 N 
HETATM   13  C   UNL     1     -42.824  56.111 -59.338  1.00  0.00     0.049 A 
HETATM   14  C   UNL     1     -42.427  58.947 -59.049  1.00  0.00     0.014 A 
HETATM   15  C   UNL     1     -43.742  58.677 -56.929  1.00  0.00     0.125 A 
HETATM   16  C   UNL     1     -42.201  60.422 -58.892  1.00  0.00     0.068 C 
HETATM   17  C   UNL     1     -41.952  58.242 -60.100  1.00  0.00     0.025 A 
HETATM   18  C   UNL     1     -42.148  56.806 -60.268  1.00  0.00     0.006 A 
ENDBRANCH   7   8
ENDBRANCH   1   7
BRANCH   3  19
HETATM   19  C   UNL     1     -42.616  54.886 -51.583  1.00  0.00     0.085 C 
HETATM   20  C   UNL     1     -43.248  55.084 -50.206  1.00  0.00     0.032 C 
BRANCH  19  21
HETATM   21  C   UNL     1     -41.920  53.518 -51.744  1.00  0.00     0.063 C 
BRANCH  21  22
HETATM   22  C   UNL     1     -40.579  53.486 -52.496  1.00  0.00     0.177 C 
BRANCH  22  23
HETATM   23  O   UNL     1     -40.555  54.494 -53.520  1.00  0.00    -0.389 OA
HETATM   24  H   UNL     1     -39.668  54.901 -53.448  1.00  0.00     0.210 HD
ENDBRANCH  22  23
BRANCH  22  25
HETATM   25  C   UNL     1     -40.249  52.169 -53.119  1.00  0.00     0.081 A 
HETATM   26  O   UNL     1     -39.747  51.202 -52.291  1.00  0.00    -0.324 OA
HETATM   27  C   UNL     1     -39.547  50.093 -53.048  1.00  0.00     0.142 A 
HETATM   28  C   UNL     1     -39.926  50.324 -54.349  1.00  0.00     0.027 A 
HETATM   29  C   UNL     1     -40.387  51.663 -54.395  1.00  0.00     0.037 A 
ENDBRANCH  22  25
ENDBRANCH  21  22
ENDBRANCH  19  21
ENDBRANCH   3  19
TORSDOF 7
ENDMDL
MODEL 6
REMARK VINA RESULT:      -7.7      3.455      4.801
REMARK  7 active torsions:
REMARK  status: ('A' for Active; 'I' for Inactive)
REMARK    1  A    between atoms: C_7  and  C_8 
REMARK    2  A    between atoms: C_8  and  N_9 
REMARK       I    between atoms: N_9  and  C_10 
REMARK       I    between atoms: C_10  and  N_11 
REMARK    3  A    between atoms: N_11  and  C_12 
REMARK    4  A    between atoms: C_12  and  C_13 
REMARK    5  A    between atoms: C_13  and  C_14 
REMARK    6  A    between atoms: C_14  and  O_15 
REMARK    7  A    between atoms: C_14  and  C_16 
ROOT
HETATM    1  N   UNL     1     -40.835  56.363 -50.419  1.00  0.00    -0.337 N 
HETATM    2  C   UNL     1     -42.046  56.845 -50.848  1.00  0.00     0.316 C 
HETATM    3  N   UNL     1     -42.025  58.193 -51.034  1.00  0.00    -0.339 N 
HETATM    4  O   UNL     1     -43.014  56.121 -51.056  1.00  0.00    -0.247 OA
HETATM    5  H   UNL     1     -40.185  57.078 -50.122  1.00  0.00     0.164 HD
HETATM    6  H   UNL     1     -41.238  58.728 -50.674  1.00  0.00     0.164 HD
ENDROOT
BRANCH   1   7
HETATM    7  C   UNL     1     -40.733  55.084 -49.746  1.00  0.00     0.183 C 
BRANCH   7   8
HETATM    8  C   UNL     1     -40.446  53.965 -50.678  1.00  0.00     0.044 A 
HETATM    9  N   UNL     1     -40.607  54.054 -52.053  1.00  0.00    -0.343 N 
HETATM   10  C   UNL     1     -40.331  52.901 -52.645  1.00  0.00     0.112 A 
HETATM   11  H   UNL     1     -40.913  54.918 -52.518  1.00  0.00     0.167 HD
HETATM   12  N   UNL     1     -40.009  52.015 -51.680  1.00  0.00    -0.311 N 
HETATM   13  C   UNL     1     -40.355  52.521 -54.075  1.00  0.00     0.049 A 
HETATM   14  C   UNL     1     -39.702  50.684 -51.956  1.00  0.00     0.014 A 
HETATM   15  C   UNL     1     -40.058  52.660 -50.452  1.00  0.00     0.125 A 
HETATM   16  C   UNL     1     -39.381  49.719 -50.854  1.00  0.00     0.068 C 
HETATM   17  C   UNL     1     -39.724  50.324 -53.259  1.00  0.00     0.025 A 
HETATM   18  C   UNL     1     -40.046  51.241 -54.348  1.00  0.00     0.006 A 
ENDBRANCH   7   8
ENDBRANCH   1   7
BRANCH   3  19
HETATM   19  C   UNL     1     -43.221  58.995 -51.268  1.00  0.00     0.085 C 
HETATM   20  C   UNL     1     -43.135  60.339 -50.547  1.00  0.00     0.032 C 
BRANCH  19  21
HETATM   21  C   UNL     1     -43.497  59.130 -52.781  1.00  0.00     0.063 C 
BRANCH  21  22
HETATM   22  C   UNL     1     -44.376  58.056 -53.443  1.00  0.00     0.177 C 
BRANCH  22  23
HETATM   23  O   UNL     1     -45.206  57.414 -52.463  1.00  0.00    -0.389 OA
HETATM   24  H   UNL     1     -44.814  57.663 -51.602  1.00  0.00     0.210 HD
ENDBRANCH  22  23
BRANCH  22  25
HETATM   25  C   UNL     1     -43.617  57.005 -54.185  1.00  0.00     0.081 A 
HETATM   26  O   UNL     1     -42.370  57.343 -54.635  1.00  0.00    -0.324 OA
HETATM   27  C   UNL     1     -41.856  56.247 -55.248  1.00  0.00     0.142 A 
HETATM   28  C   UNL     1     -42.745  55.201 -55.187  1.00  0.00     0.027 A 
HETATM   29  C   UNL     1     -43.881  55.686 -54.494  1.00  0.00     0.037 A 
ENDBRANCH  22  25
ENDBRANCH  21  22
ENDBRANCH  19  21
ENDBRANCH   3  19
TORSDOF 7
ENDMDL
MODEL 7
REMARK VINA RESULT:      -7.6      2.346      4.271
REMARK  7 active torsions:
REMARK  status: ('A' for Active; 'I' for Inactive)
REMARK    1  A    between atoms: C_7  and  C_8 
REMARK    2  A    between atoms: C_8  and  N_9 
REMARK       I    between atoms: N_9  and  C_10 
REMARK       I    between atoms: C_10  and  N_11 
REMARK    3  A    between atoms: N_11  and  C_12 
REMARK    4  A    between atoms: C_12  and  C_13 
REMARK    5  A    between atoms: C_13  and  C_14 
REMARK    6  A    between atoms: C_14  and  O_15 
REMARK    7  A    between atoms: C_14  and  C_16 
ROOT
HETATM    1  N   UNL     1     -43.466  56.758 -56.568  1.00  0.00    -0.337 N 
HETATM    2  C   UNL     1     -43.296  56.498 -57.904  1.00  0.00     0.316 C 
HETATM    3  N   UNL     1     -44.269  55.684 -58.397  1.00  0.00    -0.339 N 
HETATM    4  O   UNL     1     -42.378  56.976 -58.564  1.00  0.00    -0.247 OA
HETATM    5  H   UNL     1     -44.149  56.168 -56.114  1.00  0.00     0.164 HD
HETATM    6  H   UNL     1     -44.883  55.201 -57.745  1.00  0.00     0.164 HD
ENDROOT
BRANCH   1   7
HETATM    7  C   UNL     1     -42.361  57.211 -55.746  1.00  0.00     0.183 C 
BRANCH   7   8
HETATM    8  C   UNL     1     -41.767  56.122 -54.931  1.00  0.00     0.044 A 
HETATM    9  N   UNL     1     -41.294  54.933 -55.470  1.00  0.00    -0.343 N 
HETATM   10  C   UNL     1     -40.863  54.115 -54.522  1.00  0.00     0.112 A 
HETATM   11  H   UNL     1     -41.302  54.744 -56.480  1.00  0.00     0.167 HD
HETATM   12  N   UNL     1     -41.063  54.724 -53.335  1.00  0.00    -0.311 N 
HETATM   13  C   UNL     1     -40.274  52.760 -54.612  1.00  0.00     0.049 A 
HETATM   14  C   UNL     1     -40.756  54.116 -52.119  1.00  0.00     0.014 A 
HETATM   15  C   UNL     1     -41.609  55.979 -53.568  1.00  0.00     0.125 A 
HETATM   16  C   UNL     1     -41.024  54.811 -50.817  1.00  0.00     0.068 C 
HETATM   17  C   UNL     1     -40.222  52.876 -52.189  1.00  0.00     0.025 A 
HETATM   18  C   UNL     1     -39.964  52.174 -53.443  1.00  0.00     0.006 A 
ENDBRANCH   7   8
ENDBRANCH   1   7
BRANCH   3  19
HETATM   19  C   UNL     1     -44.214  55.069 -59.719  1.00  0.00     0.085 C 
HETATM   20  C   UNL     1     -44.780  53.650 -59.690  1.00  0.00     0.032 C 
BRANCH  19  21
HETATM   21  C   UNL     1     -44.892  55.975 -60.769  1.00  0.00     0.063 C 
BRANCH  21  22
HETATM   22  C   UNL     1     -46.416  56.152 -60.679  1.00  0.00     0.177 C 
BRANCH  22  23
HETATM   23  O   UNL     1     -47.002  56.120 -61.991  1.00  0.00    -0.389 OA
HETATM   24  H   UNL     1     -46.793  55.229 -62.337  1.00  0.00     0.210 HD
ENDBRANCH  22  23
BRANCH  22  25
HETATM   25  C   UNL     1     -46.857  57.403 -59.993  1.00  0.00     0.081 A 
HETATM   26  O   UNL     1     -46.812  57.407 -58.625  1.00  0.00    -0.324 OA
HETATM   27  C   UNL     1     -47.222  58.635 -58.216  1.00  0.00     0.142 A 
HETATM   28  C   UNL     1     -47.516  59.429 -59.298  1.00  0.00     0.027 A 
HETATM   29  C   UNL     1     -47.273  58.638 -60.448  1.00  0.00     0.037 A 
ENDBRANCH  22  25
ENDBRANCH  21  22
ENDBRANCH  19  21
ENDBRANCH   3  19
TORSDOF 7
ENDMDL
MODEL 8
REMARK VINA RESULT:      -7.5      1.997      3.736
REMARK  7 active torsions:
REMARK  status: ('A' for Active; 'I' for Inactive)
REMARK    1  A    between atoms: C_7  and  C_8 
REMARK    2  A    between atoms: C_8  and  N_9 
REMARK       I    between atoms: N_9  and  C_10 
REMARK       I    between atoms: C_10  and  N_11 
REMARK    3  A    between atoms: N_11  and  C_12 
REMARK    4  A    between atoms: C_12  and  C_13 
REMARK    5  A    between atoms: C_13  and  C_14 
REMARK    6  A    between atoms: C_14  and  O_15 
REMARK    7  A    between atoms: C_14  and  C_16 
ROOT
HETATM    1  N   UNL     1     -43.427  56.253 -55.141  1.00  0.00    -0.337 N 
HETATM    2  C   UNL     1     -43.059  56.523 -56.434  1.00  0.00     0.316 C 
HETATM    3  N   UNL     1     -43.773  55.794 -57.335  1.00  0.00    -0.339 N 
HETATM    4  O   UNL     1     -42.200  57.350 -56.723  1.00  0.00    -0.247 OA
HETATM    5  H   UNL     1     -44.012  55.435 -55.039  1.00  0.00     0.164 HD
HETATM    6  H   UNL     1     -44.336  55.015 -57.002  1.00  0.00     0.164 HD
ENDROOT
BRANCH   1   7
HETATM    7  C   UNL     1     -42.545  56.553 -54.032  1.00  0.00     0.183 C 
BRANCH   7   8
HETATM    8  C   UNL     1     -41.756  55.376 -53.590  1.00  0.00     0.044 A 
HETATM    9  N   UNL     1     -41.470  54.294 -54.410  1.00  0.00    -0.343 N 
HETATM   10  C   UNL     1     -40.796  53.360 -53.757  1.00  0.00     0.112 A 
HETATM   11  H   UNL     1     -41.767  54.254 -55.393  1.00  0.00     0.167 HD
HETATM   12  N   UNL     1     -40.643  53.783 -52.485  1.00  0.00    -0.311 N 
HETATM   13  C   UNL     1     -40.273  52.052 -54.210  1.00  0.00     0.049 A 
HETATM   14  C   UNL     1     -40.009  53.015 -51.510  1.00  0.00     0.014 A 
HETATM   15  C   UNL     1     -41.217  55.041 -52.365  1.00  0.00     0.125 A 
HETATM   16  C   UNL     1     -39.887  53.504 -50.097  1.00  0.00     0.068 C 
HETATM   17  C   UNL     1     -39.531  51.816 -51.912  1.00  0.00     0.025 A 
HETATM   18  C   UNL     1     -39.648  51.313 -53.277  1.00  0.00     0.006 A 
ENDBRANCH   7   8
ENDBRANCH   1   7
BRANCH   3  19
HETATM   19  C   UNL     1     -43.441  55.714 -58.753  1.00  0.00     0.085 C 
HETATM   20  C   UNL     1     -44.192  54.569 -59.432  1.00  0.00     0.032 C 
BRANCH  19  21
HETATM   21  C   UNL     1     -43.660  57.079 -59.441  1.00  0.00     0.063 C 
BRANCH  21  22
HETATM   22  C   UNL     1     -42.594  57.549 -60.443  1.00  0.00     0.177 C 
BRANCH  22  23
HETATM   23  O   UNL     1     -41.395  56.770 -60.303  1.00  0.00    -0.389 OA
HETATM   24  H   UNL     1     -40.670  57.427 -60.287  1.00  0.00     0.210 HD
ENDBRANCH  22  23
BRANCH  22  25
HETATM   25  C   UNL     1     -42.236  58.995 -60.335  1.00  0.00     0.081 A 
HETATM   26  O   UNL     1     -42.189  59.529 -59.076  1.00  0.00    -0.324 OA
HETATM   27  C   UNL     1     -41.821  60.828 -59.206  1.00  0.00     0.142 A 
HETATM   28  C   UNL     1     -41.614  61.139 -60.529  1.00  0.00     0.027 A 
HETATM   29  C   UNL     1     -41.873  59.954 -61.260  1.00  0.00     0.037 A 
ENDBRANCH  22  25
ENDBRANCH  21  22
ENDBRANCH  19  21
ENDBRANCH   3  19
TORSDOF 7
ENDMDL
MODEL 9
REMARK VINA RESULT:      -7.4      2.975      5.144
REMARK  7 active torsions:
REMARK  status: ('A' for Active; 'I' for Inactive)
REMARK    1  A    between atoms: C_7  and  C_8 
REMARK    2  A    between atoms: C_8  and  N_9 
REMARK       I    between atoms: N_9  and  C_10 
REMARK       I    between atoms: C_10  and  N_11 
REMARK    3  A    between atoms: N_11  and  C_12 
REMARK    4  A    between atoms: C_12  and  C_13 
REMARK    5  A    between atoms: C_13  and  C_14 
REMARK    6  A    between atoms: C_14  and  O_15 
REMARK    7  A    between atoms: C_14  and  C_16 
ROOT
HETATM    1  N   UNL     1     -43.767  55.845 -55.153  1.00  0.00    -0.337 N 
HETATM    2  C   UNL     1     -43.381  57.109 -55.519  1.00  0.00     0.316 C 
HETATM    3  N   UNL     1     -44.382  58.017 -55.364  1.00  0.00    -0.339 N 
HETATM    4  O   UNL     1     -42.249  57.371 -55.915  1.00  0.00    -0.247 OA
HETATM    5  H   UNL     1     -44.762  55.738 -55.017  1.00  0.00     0.164 HD
HETATM    6  H   UNL     1     -45.328  57.683 -55.197  1.00  0.00     0.164 HD
ENDROOT
BRANCH   1   7
HETATM    7  C   UNL     1     -43.056  54.676 -55.632  1.00  0.00     0.183 C 
BRANCH   7   8
HETATM    8  C   UNL     1     -42.237  54.029 -54.576  1.00  0.00     0.044 A 
HETATM    9  N   UNL     1     -42.061  54.564 -53.308  1.00  0.00    -0.343 N 
HETATM   10  C   UNL     1     -41.246  53.816 -52.580  1.00  0.00     0.112 A 
HETATM   11  H   UNL     1     -42.515  55.437 -53.010  1.00  0.00     0.167 HD
HETATM   12  N   UNL     1     -40.840  52.787 -53.351  1.00  0.00    -0.311 N 
HETATM   13  C   UNL     1     -40.774  53.979 -51.186  1.00  0.00     0.049 A 
HETATM   14  C   UNL     1     -39.936  51.825 -52.903  1.00  0.00     0.014 A 
HETATM   15  C   UNL     1     -41.457  52.891 -54.590  1.00  0.00     0.125 A 
HETATM   16  C   UNL     1     -39.481  50.713 -53.801  1.00  0.00     0.068 C 
HETATM   17  C   UNL     1     -39.495  51.966 -51.633  1.00  0.00     0.025 A 
HETATM   18  C   UNL     1     -39.913  53.046 -50.745  1.00  0.00     0.006 A 
ENDBRANCH   7   8
ENDBRANCH   1   7
BRANCH   3  19
HETATM   19  C   UNL     1     -44.324  59.381 -55.880  1.00  0.00     0.085 C 
HETATM   20  C   UNL     1     -45.621  59.756 -56.596  1.00  0.00     0.032 C 
BRANCH  19  21
HETATM   21  C   UNL     1     -43.937  60.370 -54.760  1.00  0.00     0.063 C 
BRANCH  21  22
HETATM   22  C   UNL     1     -42.443  60.677 -54.566  1.00  0.00     0.177 C 
BRANCH  22  23
HETATM   23  O   UNL     1     -41.708  60.365 -55.761  1.00  0.00    -0.389 OA
HETATM   24  H   UNL     1     -40.786  60.239 -55.461  1.00  0.00     0.210 HD
ENDBRANCH  22  23
BRANCH  22  25
HETATM   25  C   UNL     1     -41.808  59.963 -53.418  1.00  0.00     0.081 A 
HETATM   26  O   UNL     1     -40.602  59.362 -53.654  1.00  0.00    -0.324 OA
HETATM   27  C   UNL     1     -40.197  58.805 -52.485  1.00  0.00     0.142 A 
HETATM   28  C   UNL     1     -41.115  59.051 -51.492  1.00  0.00     0.027 A 
HETATM   29  C   UNL     1     -42.153  59.806 -52.091  1.00  0.00     0.037 A 
ENDBRANCH  22  25
ENDBRANCH  21  22
ENDBRANCH  19  21
ENDBRANCH   3  19
TORSDOF 7
ENDMDL
MODEL 10
REMARK VINA RESULT:      -7.3      3.191      8.529
REMARK  7 active torsions:
REMARK  status: ('A' for Active; 'I' for Inactive)
REMARK    1  A    between atoms: C_7  and  C_8 
REMARK    2  A    between atoms: C_8  and  N_9 
REMARK       I    between atoms: N_9  and  C_10 
REMARK       I    between atoms: C_10  and  N_11 
REMARK    3  A    between atoms: N_11  and  C_12 
REMARK    4  A    between atoms: C_12  and  C_13 
REMARK    5  A    between atoms: C_13  and  C_14 
REMARK    6  A    between atoms: C_14  and  O_15 
REMARK    7  A    between atoms: C_14  and  C_16 
ROOT
HETATM    1  N   UNL     1     -44.715  56.400 -54.292  1.00  0.00    -0.337 N 
HETATM    2  C   UNL     1     -43.589  56.278 -53.518  1.00  0.00     0.316 C 
HETATM    3  N   UNL     1     -43.633  55.176 -52.720  1.00  0.00    -0.339 N 
HETATM    4  O   UNL     1     -42.654  57.068 -53.575  1.00  0.00    -0.247 OA
HETATM    5  H   UNL     1     -45.474  55.789 -54.022  1.00  0.00     0.164 HD
HETATM    6  H   UNL     1     -44.514  54.679 -52.614  1.00  0.00     0.164 HD
ENDROOT
BRANCH   1   7
HETATM    7  C   UNL     1     -45.094  57.675 -54.869  1.00  0.00     0.183 C 
BRANCH   7   8
HETATM    8  C   UNL     1     -44.614  57.841 -56.263  1.00  0.00     0.044 A 
HETATM    9  N   UNL     1     -43.272  57.862 -56.614  1.00  0.00    -0.343 N 
HETATM   10  C   UNL     1     -43.118  58.072 -57.912  1.00  0.00     0.112 A 
HETATM   11  H   UNL     1     -42.520  57.736 -55.925  1.00  0.00     0.167 HD
HETATM   12  N   UNL     1     -44.346  58.223 -58.450  1.00  0.00    -0.311 N 
HETATM   13  C   UNL     1     -41.891  58.168 -58.736  1.00  0.00     0.049 A 
HETATM   14  C   UNL     1     -44.545  58.502 -59.801  1.00  0.00     0.014 A 
HETATM   15  C   UNL     1     -45.291  58.066 -57.445  1.00  0.00     0.125 A 
HETATM   16  C   UNL     1     -45.925  58.696 -60.356  1.00  0.00     0.068 C 
HETATM   17  C   UNL     1     -43.431  58.595 -60.561  1.00  0.00     0.025 A 
HETATM   18  C   UNL     1     -42.078  58.423 -60.042  1.00  0.00     0.006 A 
ENDBRANCH   7   8
ENDBRANCH   1   7
BRANCH   3  19
HETATM   19  C   UNL     1     -42.682  54.921 -51.643  1.00  0.00     0.085 C 
HETATM   20  C   UNL     1     -43.346  55.070 -50.275  1.00  0.00     0.032 C 
BRANCH  19  21
HETATM   21  C   UNL     1     -41.990  53.555 -51.841  1.00  0.00     0.063 C 
BRANCH  21  22
HETATM   22  C   UNL     1     -40.635  53.542 -52.567  1.00  0.00     0.177 C 
BRANCH  22  23
HETATM   23  O   UNL     1     -40.618  54.528 -53.613  1.00  0.00    -0.389 OA
HETATM   24  H   UNL     1     -40.621  54.011 -54.443  1.00  0.00     0.210 HD
ENDBRANCH  22  23
BRANCH  22  25
HETATM   25  C   UNL     1     -40.259  52.222 -53.154  1.00  0.00     0.081 A 
HETATM   26  O   UNL     1     -39.765  51.280 -52.293  1.00  0.00    -0.324 OA
HETATM   27  C   UNL     1     -39.518  50.162 -53.022  1.00  0.00     0.142 A 
HETATM   28  C   UNL     1     -39.859  50.361 -54.338  1.00  0.00     0.027 A 
HETATM   29  C   UNL     1     -40.346  51.689 -54.424  1.00  0.00     0.037 A 
ENDBRANCH  22  25
ENDBRANCH  21  22
ENDBRANCH  19  21
ENDBRANCH   3  19
TORSDOF 7
ENDMDL
