MODEL 1
REMARK VINA RESULT:      -8.8      0.000      0.000
REMARK  9 active torsions:
REMARK  status: ('A' for Active; 'I' for Inactive)
REMARK    1  A    between atoms: C_2  and  O_3 
REMARK    2  A    between atoms: O_3  and  C_4 
REMARK    3  A    between atoms: C_4  and  C_5 
REMARK    4  A    between atoms: C_8  and  N_9 
REMARK       I    between atoms: N_9  and  C_10 
REMARK    5  A    between atoms: C_10  and  C_11 
REMARK    6  A    between atoms: C_11  and  C_12 
REMARK    7  A    between atoms: N_13  and  C_14 
REMARK    8  A    between atoms: C_14  and  C_15 
REMARK    9  A    between atoms: N_23  and  C_24 
ROOT
HETATM    1  C   UNL     1     -42.071  57.024 -53.524  1.00  0.00     0.191 A 
HETATM    2  N   UNL     1     -42.801  56.473 -52.401  1.00  0.00    -0.315 N 
HETATM    3  C   UNL     1     -42.456  55.154 -52.139  1.00  0.00     0.333 A 
HETATM    4  O   UNL     1     -42.977  54.510 -51.239  1.00  0.00    -0.246 OA
HETATM    5  N   UNL     1     -41.491  54.761 -53.042  1.00  0.00    -0.232 N 
HETATM    6  C   UNL     1     -41.180  55.824 -53.864  1.00  0.00     0.256 A 
HETATM    7  O   UNL     1     -40.332  55.887 -54.751  1.00  0.00    -0.270 OA
ENDROOT
BRANCH   1   8
HETATM    8  C   UNL     1     -42.871  57.368 -54.775  1.00  0.00     0.138 C 
BRANCH   8   9
HETATM    9  C   UNL     1     -42.234  58.398 -55.663  1.00  0.00     0.224 C 
HETATM   10  N   UNL     1     -42.297  58.383 -57.017  1.00  0.00    -0.327 N 
HETATM   11  H   UNL     1     -41.672  59.092 -57.390  1.00  0.00     0.169 HD
HETATM   12  O   UNL     1     -41.548  59.290 -55.152  1.00  0.00    -0.273 OA
BRANCH  10  13
HETATM   13  C   UNL     1     -43.012  57.664 -57.986  1.00  0.00     0.034 A 
HETATM   14  C   UNL     1     -42.734  56.368 -58.414  1.00  0.00     0.030 A 
HETATM   15  C   UNL     1     -43.565  55.742 -59.359  1.00  0.00     0.020 A 
HETATM   16  C   UNL     1     -44.684  56.402 -59.885  1.00  0.00     0.039 A 
HETATM   17  C   UNL     1     -44.959  57.703 -59.463  1.00  0.00     0.020 A 
HETATM   18  C   UNL     1     -44.134  58.319 -58.518  1.00  0.00     0.030 A 
BRANCH  16  19
HETATM   19  C   UNL     1     -45.557  55.679 -60.850  1.00  0.00     0.293 C 
HETATM   20  O   UNL     1     -45.132  54.926 -61.711  1.00  0.00    -0.259 OA
BRANCH  19  21
HETATM   21  O   UNL     1     -46.862  55.959 -60.605  1.00  0.00    -0.318 OA
BRANCH  21  22
HETATM   22  C   UNL     1     -47.613  56.488 -61.707  1.00  0.00     0.174 C 
HETATM   23  C   UNL     1     -47.947  57.948 -61.474  1.00  0.00     0.034 C 
ENDBRANCH  21  22
ENDBRANCH  19  21
ENDBRANCH  16  19
ENDBRANCH  10  13
ENDBRANCH   8   9
ENDBRANCH   1   8
BRANCH   2  24
HETATM   24  C   UNL     1     -43.740  57.212 -51.567  1.00  0.00     0.168 C 
BRANCH  24  25
HETATM   25  C   UNL     1     -43.297  58.606 -51.217  1.00  0.00    -0.023 A 
HETATM   26  C   UNL     1     -44.224  59.644 -51.202  1.00  0.00     0.125 A 
HETATM   27  N   UNL     1     -43.930  60.927 -50.892  1.00  0.00    -0.273 NA
HETATM   28  C   UNL     1     -42.651  61.187 -50.547  1.00  0.00     0.116 A 
HETATM   29  C   UNL     1     -41.658  60.225 -50.495  1.00  0.00     0.020 A 
HETATM   30  C   UNL     1     -41.992  58.914 -50.824  1.00  0.00     0.012 A 
ENDBRANCH  24  25
ENDBRANCH   2  24
BRANCH   5  31
HETATM   31  C   UNL     1     -40.923  53.452 -53.112  1.00  0.00     0.047 A 
HETATM   32  C   UNL     1     -40.139  52.934 -52.068  1.00  0.00     0.031 A 
HETATM   33  C   UNL     1     -39.615  51.636 -52.111  1.00  0.00     0.009 A 
HETATM   34  C   UNL     1     -39.854  50.811 -53.208  1.00  0.00    -0.062 A 
HETATM   35  C   UNL     1     -39.343  49.401 -53.225  1.00  0.00     0.048 C 
HETATM   36  C   UNL     1     -40.634  51.305 -54.254  1.00  0.00     0.009 A 
HETATM   37  C   UNL     1     -41.151  52.609 -54.210  1.00  0.00     0.031 A 
ENDBRANCH   5  31
TORSDOF 9
ENDMDL
MODEL 2
REMARK VINA RESULT:      -8.8      4.014      8.325
REMARK  9 active torsions:
REMARK  status: ('A' for Active; 'I' for Inactive)
REMARK    1  A    between atoms: C_2  and  O_3 
REMARK    2  A    between atoms: O_3  and  C_4 
REMARK    3  A    between atoms: C_4  and  C_5 
REMARK    4  A    between atoms: C_8  and  N_9 
REMARK       I    between atoms: N_9  and  C_10 
REMARK    5  A    between atoms: C_10  and  C_11 
REMARK    6  A    between atoms: C_11  and  C_12 
REMARK    7  A    between atoms: N_13  and  C_14 
REMARK    8  A    between atoms: C_14  and  C_15 
REMARK    9  A    between atoms: N_23  and  C_24 
ROOT
HETATM    1  C   UNL     1     -43.573  56.898 -51.445  1.00  0.00     0.191 A 
HETATM    2  N   UNL     1     -42.255  57.497 -51.413  1.00  0.00    -0.315 N 
HETATM    3  C   UNL     1     -42.299  58.867 -51.192  1.00  0.00     0.333 A 
HETATM    4  O   UNL     1     -41.288  59.555 -51.148  1.00  0.00    -0.246 OA
HETATM    5  N   UNL     1     -43.616  59.251 -51.054  1.00  0.00    -0.232 N 
HETATM    6  C   UNL     1     -44.425  58.137 -51.148  1.00  0.00     0.256 A 
HETATM    7  O   UNL     1     -45.644  58.060 -51.020  1.00  0.00    -0.270 OA
ENDROOT
BRANCH   1   8
HETATM    8  C   UNL     1     -44.046  56.326 -52.777  1.00  0.00     0.138 C 
BRANCH   8   9
HETATM    9  C   UNL     1     -43.360  56.897 -53.984  1.00  0.00     0.224 C 
HETATM   10  N   UNL     1     -42.314  56.312 -54.617  1.00  0.00    -0.327 N 
HETATM   11  H   UNL     1     -41.935  56.956 -55.305  1.00  0.00     0.169 HD
HETATM   12  O   UNL     1     -43.713  58.004 -54.407  1.00  0.00    -0.273 OA
BRANCH  10  13
HETATM   13  C   UNL     1     -41.671  55.067 -54.563  1.00  0.00     0.034 A 
HETATM   14  C   UNL     1     -40.307  54.842 -54.732  1.00  0.00     0.030 A 
HETATM   15  C   UNL     1     -39.782  53.544 -54.601  1.00  0.00     0.020 A 
HETATM   16  C   UNL     1     -40.614  52.458 -54.297  1.00  0.00     0.039 A 
HETATM   17  C   UNL     1     -41.982  52.681 -54.135  1.00  0.00     0.020 A 
HETATM   18  C   UNL     1     -42.497  53.974 -54.259  1.00  0.00     0.030 A 
BRANCH  16  19
HETATM   19  C   UNL     1     -40.003  51.111 -54.125  1.00  0.00     0.293 C 
HETATM   20  O   UNL     1     -39.983  50.264 -55.002  1.00  0.00    -0.259 OA
BRANCH  19  21
HETATM   21  O   UNL     1     -39.462  50.995 -52.886  1.00  0.00    -0.318 OA
BRANCH  21  22
HETATM   22  C   UNL     1     -39.558  49.700 -52.273  1.00  0.00     0.174 C 
HETATM   23  C   UNL     1     -39.681  49.831 -50.767  1.00  0.00     0.034 C 
ENDBRANCH  21  22
ENDBRANCH  19  21
ENDBRANCH  16  19
ENDBRANCH  10  13
ENDBRANCH   8   9
ENDBRANCH   1   8
BRANCH   2  24
HETATM   24  C   UNL     1     -40.998  56.767 -51.519  1.00  0.00     0.168 C 
BRANCH  24  25
HETATM   25  C   UNL     1     -40.880  55.594 -50.585  1.00  0.00    -0.023 A 
HETATM   26  C   UNL     1     -41.093  55.772 -49.220  1.00  0.00     0.125 A 
HETATM   27  N   UNL     1     -41.022  54.783 -48.301  1.00  0.00    -0.273 NA
HETATM   28  C   UNL     1     -40.755  53.544 -48.766  1.00  0.00     0.116 A 
HETATM   29  C   UNL     1     -40.562  53.250 -50.105  1.00  0.00     0.020 A 
HETATM   30  C   UNL     1     -40.638  54.291 -51.026  1.00  0.00     0.012 A 
ENDBRANCH  24  25
ENDBRANCH   2  24
BRANCH   5  31
HETATM   31  C   UNL     1     -44.059  60.595 -50.860  1.00  0.00     0.047 A 
HETATM   32  C   UNL     1     -44.604  61.348 -51.913  1.00  0.00     0.031 A 
HETATM   33  C   UNL     1     -45.080  62.651 -51.720  1.00  0.00     0.009 A 
HETATM   34  C   UNL     1     -45.020  63.250 -50.463  1.00  0.00    -0.062 A 
HETATM   35  C   UNL     1     -45.585  64.621 -50.246  1.00  0.00     0.048 C 
HETATM   36  C   UNL     1     -44.485  62.517 -49.403  1.00  0.00     0.009 A 
HETATM   37  C   UNL     1     -44.003  61.215 -49.602  1.00  0.00     0.031 A 
ENDBRANCH   5  31
TORSDOF 9
ENDMDL
MODEL 3
REMARK VINA RESULT:      -8.7      3.455      8.084
REMARK  9 active torsions:
REMARK  status: ('A' for Active; 'I' for Inactive)
REMARK    1  A    between atoms: C_2  and  O_3 
REMARK    2  A    between atoms: O_3  and  C_4 
REMARK    3  A    between atoms: C_4  and  C_5 
REMARK    4  A    between atoms: C_8  and  N_9 
REMARK       I    between atoms: N_9  and  C_10 
REMARK    5  A    between atoms: C_10  and  C_11 
REMARK    6  A    between atoms: C_11  and  C_12 
REMARK    7  A    between atoms: N_13  and  C_14 
REMARK    8  A    between atoms: C_14  and  C_15 
REMARK    9  A    between atoms: N_23  and  C_24 
ROOT
HETATM    1  C   UNL     1     -43.586  58.493 -52.711  1.00  0.00     0.191 A 
HETATM    2  N   UNL     1     -42.356  58.463 -51.946  1.00  0.00    -0.315 N 
HETATM    3  C   UNL     1     -42.302  59.467 -50.988  1.00  0.00     0.333 A 
HETATM    4  O   UNL     1     -41.336  59.617 -50.254  1.00  0.00    -0.246 OA
HETATM    5  N   UNL     1     -43.468  60.199 -51.049  1.00  0.00    -0.232 N 
HETATM    6  C   UNL     1     -44.295  59.658 -52.012  1.00  0.00     0.256 A 
HETATM    7  O   UNL     1     -45.436  59.991 -52.321  1.00  0.00    -0.270 OA
ENDROOT
BRANCH   1   8
HETATM    8  C   UNL     1     -43.478  58.845 -54.191  1.00  0.00     0.138 C 
BRANCH   8   9
HETATM    9  C   UNL     1     -44.283  57.967 -55.104  1.00  0.00     0.224 C 
HETATM   10  N   UNL     1     -43.937  56.703 -55.450  1.00  0.00    -0.327 N 
HETATM   11  H   UNL     1     -44.557  56.374 -56.185  1.00  0.00     0.169 HD
HETATM   12  O   UNL     1     -45.300  58.427 -55.637  1.00  0.00    -0.273 OA
BRANCH  10  13
HETATM   13  C   UNL     1     -42.977  55.770 -55.034  1.00  0.00     0.034 A 
HETATM   14  C   UNL     1     -41.602  55.863 -55.237  1.00  0.00     0.030 A 
HETATM   15  C   UNL     1     -40.742  54.879 -54.720  1.00  0.00     0.020 A 
HETATM   16  C   UNL     1     -41.245  53.792 -53.991  1.00  0.00     0.039 A 
HETATM   17  C   UNL     1     -42.623  53.693 -53.794  1.00  0.00     0.020 A 
HETATM   18  C   UNL     1     -43.473  54.678 -54.304  1.00  0.00     0.030 A 
BRANCH  16  19
HETATM   19  C   UNL     1     -40.288  52.801 -53.427  1.00  0.00     0.293 C 
HETATM   20  O   UNL     1     -39.968  52.768 -52.251  1.00  0.00    -0.259 OA
BRANCH  19  21
HETATM   21  O   UNL     1     -39.870  51.947 -54.395  1.00  0.00    -0.318 OA
BRANCH  21  22
HETATM   22  C   UNL     1     -40.467  50.642 -54.389  1.00  0.00     0.174 C 
HETATM   23  C   UNL     1     -39.546  49.636 -53.727  1.00  0.00     0.034 C 
ENDBRANCH  21  22
ENDBRANCH  19  21
ENDBRANCH  16  19
ENDBRANCH  10  13
ENDBRANCH   8   9
ENDBRANCH   1   8
BRANCH   2  24
HETATM   24  C   UNL     1     -41.306  57.462 -52.083  1.00  0.00     0.168 C 
BRANCH  24  25
HETATM   25  C   UNL     1     -41.398  56.328 -51.099  1.00  0.00    -0.023 A 
HETATM   26  C   UNL     1     -42.608  55.660 -50.923  1.00  0.00     0.125 A 
HETATM   27  N   UNL     1     -42.792  54.625 -50.074  1.00  0.00    -0.273 NA
HETATM   28  C   UNL     1     -41.709  54.208 -49.385  1.00  0.00     0.116 A 
HETATM   29  C   UNL     1     -40.453  54.776 -49.510  1.00  0.00     0.020 A 
HETATM   30  C   UNL     1     -40.296  55.844 -50.389  1.00  0.00     0.012 A 
ENDBRANCH  24  25
ENDBRANCH   2  24
BRANCH   5  31
HETATM   31  C   UNL     1     -43.756  61.345 -50.245  1.00  0.00     0.047 A 
HETATM   32  C   UNL     1     -44.550  61.252 -49.090  1.00  0.00     0.031 A 
HETATM   33  C   UNL     1     -44.801  62.362 -48.273  1.00  0.00     0.009 A 
HETATM   34  C   UNL     1     -44.267  63.609 -48.590  1.00  0.00    -0.062 A 
HETATM   35  C   UNL     1     -44.487  64.782 -47.682  1.00  0.00     0.048 C 
HETATM   36  C   UNL     1     -43.472  63.723 -49.731  1.00  0.00     0.009 A 
HETATM   37  C   UNL     1     -43.230  62.610 -50.550  1.00  0.00     0.031 A 
ENDBRANCH   5  31
TORSDOF 9
ENDMDL
MODEL 4
REMARK VINA RESULT:      -8.5      2.671      7.331
REMARK  9 active torsions:
REMARK  status: ('A' for Active; 'I' for Inactive)
REMARK    1  A    between atoms: C_2  and  O_3 
REMARK    2  A    between atoms: O_3  and  C_4 
REMARK    3  A    between atoms: C_4  and  C_5 
REMARK    4  A    between atoms: C_8  and  N_9 
REMARK       I    between atoms: N_9  and  C_10 
REMARK    5  A    between atoms: C_10  and  C_11 
REMARK    6  A    between atoms: C_11  and  C_12 
REMARK    7  A    between atoms: N_13  and  C_14 
REMARK    8  A    between atoms: C_14  and  C_15 
REMARK    9  A    between atoms: N_23  and  C_24 
ROOT
HETATM    1  C   UNL     1     -43.981  58.876 -52.990  1.00  0.00     0.191 A 
HETATM    2  N   UNL     1     -43.152  59.800 -53.736  1.00  0.00    -0.315 N 
HETATM    3  C   UNL     1     -43.005  59.427 -55.065  1.00  0.00     0.333 A 
HETATM    4  O   UNL     1     -42.328  60.071 -55.853  1.00  0.00    -0.246 OA
HETATM    5  N   UNL     1     -43.720  58.268 -55.281  1.00  0.00    -0.232 N 
HETATM    6  C   UNL     1     -44.359  57.905 -54.113  1.00  0.00     0.256 A 
HETATM    7  O   UNL     1     -45.131  56.970 -53.918  1.00  0.00    -0.270 OA
ENDROOT
BRANCH   1   8
HETATM    8  C   UNL     1     -43.304  58.063 -51.891  1.00  0.00     0.138 C 
BRANCH   8   9
HETATM    9  C   UNL     1     -44.188  57.047 -51.229  1.00  0.00     0.224 C 
HETATM   10  N   UNL     1     -43.985  55.708 -51.279  1.00  0.00    -0.327 N 
HETATM   11  H   UNL     1     -44.791  55.230 -50.884  1.00  0.00     0.169 HD
HETATM   12  O   UNL     1     -45.211  57.429 -50.647  1.00  0.00    -0.273 OA
BRANCH  10  13
HETATM   13  C   UNL     1     -42.955  54.859 -51.711  1.00  0.00     0.034 A 
HETATM   14  C   UNL     1     -41.944  54.328 -50.915  1.00  0.00     0.030 A 
HETATM   15  C   UNL     1     -40.999  53.445 -51.467  1.00  0.00     0.020 A 
HETATM   16  C   UNL     1     -41.057  53.080 -52.819  1.00  0.00     0.039 A 
HETATM   17  C   UNL     1     -42.066  53.618 -53.620  1.00  0.00     0.020 A 
HETATM   18  C   UNL     1     -43.006  54.490 -53.065  1.00  0.00     0.030 A 
BRANCH  16  19
HETATM   19  C   UNL     1     -40.060  52.107 -53.344  1.00  0.00     0.293 C 
HETATM   20  O   UNL     1     -39.925  51.856 -54.530  1.00  0.00    -0.259 OA
BRANCH  19  21
HETATM   21  O   UNL     1     -39.330  51.586 -52.326  1.00  0.00    -0.318 OA
BRANCH  21  22
HETATM   22  C   UNL     1     -39.488  50.179 -52.090  1.00  0.00     0.174 C 
HETATM   23  C   UNL     1     -39.843  49.917 -50.640  1.00  0.00     0.034 C 
ENDBRANCH  21  22
ENDBRANCH  19  21
ENDBRANCH  16  19
ENDBRANCH  10  13
ENDBRANCH   8   9
ENDBRANCH   1   8
BRANCH   2  24
HETATM   24  C   UNL     1     -42.583  61.033 -53.208  1.00  0.00     0.168 C 
BRANCH  24  25
HETATM   25  C   UNL     1     -43.413  61.692 -52.140  1.00  0.00    -0.023 A 
HETATM   26  C   UNL     1     -44.606  62.323 -52.481  1.00  0.00     0.125 A 
HETATM   27  N   UNL     1     -45.427  62.934 -51.597  1.00  0.00    -0.273 NA
HETATM   28  C   UNL     1     -45.058  62.889 -50.300  1.00  0.00     0.116 A 
HETATM   29  C   UNL     1     -43.913  62.259 -49.847  1.00  0.00     0.020 A 
HETATM   30  C   UNL     1     -43.086  61.642 -50.782  1.00  0.00     0.012 A 
ENDBRANCH  24  25
ENDBRANCH   2  24
BRANCH   5  31
HETATM   31  C   UNL     1     -43.770  57.558 -56.520  1.00  0.00     0.047 A 
HETATM   32  C   UNL     1     -42.991  56.411 -56.742  1.00  0.00     0.031 A 
HETATM   33  C   UNL     1     -43.067  55.685 -57.938  1.00  0.00     0.009 A 
HETATM   34  C   UNL     1     -43.924  56.089 -58.959  1.00  0.00    -0.062 A 
HETATM   35  C   UNL     1     -44.049  55.278 -60.213  1.00  0.00     0.048 C 
HETATM   36  C   UNL     1     -44.710  57.225 -58.757  1.00  0.00     0.009 A 
HETATM   37  C   UNL     1     -44.625  57.953 -57.561  1.00  0.00     0.031 A 
ENDBRANCH   5  31
TORSDOF 9
ENDMDL
MODEL 5
REMARK VINA RESULT:      -8.4      2.097      2.714
REMARK  9 active torsions:
REMARK  status: ('A' for Active; 'I' for Inactive)
REMARK    1  A    between atoms: C_2  and  O_3 
REMARK    2  A    between atoms: O_3  and  C_4 
REMARK    3  A    between atoms: C_4  and  C_5 
REMARK    4  A    between atoms: C_8  and  N_9 
REMARK       I    between atoms: N_9  and  C_10 
REMARK    5  A    between atoms: C_10  and  C_11 
REMARK    6  A    between atoms: C_11  and  C_12 
REMARK    7  A    between atoms: N_13  and  C_14 
REMARK    8  A    between atoms: C_14  and  C_15 
REMARK    9  A    between atoms: N_23  and  C_24 
ROOT
HETATM    1  C   UNL     1     -41.972  57.508 -52.231  1.00  0.00     0.191 A 
HETATM    2  N   UNL     1     -43.017  56.708 -52.837  1.00  0.00    -0.315 N 
HETATM    3  C   UNL     1     -42.790  55.345 -52.699  1.00  0.00     0.333 A 
HETATM    4  O   UNL     1     -43.551  54.506 -53.160  1.00  0.00    -0.246 OA
HETATM    5  N   UNL     1     -41.616  55.161 -51.999  1.00  0.00    -0.232 N 
HETATM    6  C   UNL     1     -41.098  56.391 -51.650  1.00  0.00     0.256 A 
HETATM    7  O   UNL     1     -40.102  56.642 -50.977  1.00  0.00    -0.270 OA
ENDROOT
BRANCH   1   8
HETATM    8  C   UNL     1     -41.097  58.335 -53.165  1.00  0.00     0.138 C 
BRANCH   8   9
HETATM    9  C   UNL     1     -41.729  59.607 -53.653  1.00  0.00     0.224 C 
HETATM   10  N   UNL     1     -42.078  59.841 -54.941  1.00  0.00    -0.327 N 
HETATM   11  H   UNL     1     -42.346  60.816 -55.045  1.00  0.00     0.169 HD
HETATM   12  O   UNL     1     -41.893  60.540 -52.858  1.00  0.00    -0.273 OA
BRANCH  10  13
HETATM   13  C   UNL     1     -42.174  59.080 -56.115  1.00  0.00     0.034 A 
HETATM   14  C   UNL     1     -42.389  57.705 -56.185  1.00  0.00     0.030 A 
HETATM   15  C   UNL     1     -42.517  57.072 -57.433  1.00  0.00     0.020 A 
HETATM   16  C   UNL     1     -42.435  57.804 -58.625  1.00  0.00     0.039 A 
HETATM   17  C   UNL     1     -42.212  59.180 -58.557  1.00  0.00     0.020 A 
HETATM   18  C   UNL     1     -42.093  59.807 -57.314  1.00  0.00     0.030 A 
BRANCH  16  19
HETATM   19  C   UNL     1     -42.622  57.093 -59.920  1.00  0.00     0.293 C 
HETATM   20  O   UNL     1     -41.775  56.372 -60.420  1.00  0.00    -0.259 OA
BRANCH  19  21
HETATM   21  O   UNL     1     -43.858  57.344 -60.420  1.00  0.00    -0.318 OA
BRANCH  21  22
HETATM   22  C   UNL     1     -44.910  56.474 -59.975  1.00  0.00     0.174 C 
HETATM   23  C   UNL     1     -45.139  55.358 -60.975  1.00  0.00     0.034 C 
ENDBRANCH  21  22
ENDBRANCH  19  21
ENDBRANCH  16  19
ENDBRANCH  10  13
ENDBRANCH   8   9
ENDBRANCH   1   8
BRANCH   2  24
HETATM   24  C   UNL     1     -44.223  57.235 -53.461  1.00  0.00     0.168 C 
BRANCH  24  25
HETATM   25  C   UNL     1     -44.950  58.263 -52.638  1.00  0.00    -0.023 A 
HETATM   26  C   UNL     1     -45.278  57.984 -51.314  1.00  0.00     0.125 A 
HETATM   27  N   UNL     1     -45.919  58.841 -50.488  1.00  0.00    -0.273 NA
HETATM   28  C   UNL     1     -46.225  60.054 -50.996  1.00  0.00     0.116 A 
HETATM   29  C   UNL     1     -45.914  60.448 -52.286  1.00  0.00     0.020 A 
HETATM   30  C   UNL     1     -45.257  59.541 -53.112  1.00  0.00     0.012 A 
ENDBRANCH  24  25
ENDBRANCH   2  24
BRANCH   5  31
HETATM   31  C   UNL     1     -41.033  53.890 -51.703  1.00  0.00     0.047 A 
HETATM   32  C   UNL     1     -41.066  53.351 -50.406  1.00  0.00     0.031 A 
HETATM   33  C   UNL     1     -40.535  52.088 -50.117  1.00  0.00     0.009 A 
HETATM   34  C   UNL     1     -39.945  51.321 -51.119  1.00  0.00    -0.062 A 
HETATM   35  C   UNL     1     -39.431  49.944 -50.821  1.00  0.00     0.048 C 
HETATM   36  C   UNL     1     -39.905  51.837 -52.415  1.00  0.00     0.009 A 
HETATM   37  C   UNL     1     -40.432  53.106 -52.699  1.00  0.00     0.031 A 
ENDBRANCH   5  31
TORSDOF 9
ENDMDL
MODEL 6
REMARK VINA RESULT:      -8.4      3.377      8.656
REMARK  9 active torsions:
REMARK  status: ('A' for Active; 'I' for Inactive)
REMARK    1  A    between atoms: C_2  and  O_3 
REMARK    2  A    between atoms: O_3  and  C_4 
REMARK    3  A    between atoms: C_4  and  C_5 
REMARK    4  A    between atoms: C_8  and  N_9 
REMARK       I    between atoms: N_9  and  C_10 
REMARK    5  A    between atoms: C_10  and  C_11 
REMARK    6  A    between atoms: C_11  and  C_12 
REMARK    7  A    between atoms: N_13  and  C_14 
REMARK    8  A    between atoms: C_14  and  C_15 
REMARK    9  A    between atoms: N_23  and  C_24 
ROOT
HETATM    1  C   UNL     1     -43.264  58.413 -58.135  1.00  0.00     0.191 A 
HETATM    2  N   UNL     1     -43.399  59.479 -57.164  1.00  0.00    -0.315 N 
HETATM    3  C   UNL     1     -42.733  60.635 -57.549  1.00  0.00     0.333 A 
HETATM    4  O   UNL     1     -42.715  61.641 -56.853  1.00  0.00    -0.246 OA
HETATM    5  N   UNL     1     -42.140  60.417 -58.774  1.00  0.00    -0.232 N 
HETATM    6  C   UNL     1     -42.446  59.143 -59.206  1.00  0.00     0.256 A 
HETATM    7  O   UNL     1     -42.153  58.600 -60.268  1.00  0.00    -0.270 OA
ENDROOT
BRANCH   1   8
HETATM    8  C   UNL     1     -42.472  57.182 -57.713  1.00  0.00     0.138 C 
BRANCH   8   9
HETATM    9  C   UNL     1     -43.239  55.892 -57.770  1.00  0.00     0.224 C 
HETATM   10  N   UNL     1     -43.148  54.907 -56.843  1.00  0.00    -0.327 N 
HETATM   11  H   UNL     1     -43.645  54.086 -57.176  1.00  0.00     0.169 HD
HETATM   12  O   UNL     1     -43.959  55.665 -58.749  1.00  0.00    -0.273 OA
BRANCH  10  13
HETATM   13  C   UNL     1     -42.571  54.767 -55.573  1.00  0.00     0.034 A 
HETATM   14  C   UNL     1     -41.210  54.810 -55.282  1.00  0.00     0.030 A 
HETATM   15  C   UNL     1     -40.767  54.707 -53.952  1.00  0.00     0.020 A 
HETATM   16  C   UNL     1     -41.678  54.564 -52.897  1.00  0.00     0.039 A 
HETATM   17  C   UNL     1     -43.042  54.514 -53.188  1.00  0.00     0.020 A 
HETATM   18  C   UNL     1     -43.478  54.623 -54.511  1.00  0.00     0.030 A 
BRANCH  16  19
HETATM   19  C   UNL     1     -41.160  54.504 -51.503  1.00  0.00     0.293 C 
HETATM   20  O   UNL     1     -41.725  55.019 -50.552  1.00  0.00    -0.259 OA
BRANCH  19  21
HETATM   21  O   UNL     1     -40.013  53.782 -51.458  1.00  0.00    -0.318 OA
BRANCH  21  22
HETATM   22  C   UNL     1     -40.155  52.386 -51.153  1.00  0.00     0.174 C 
HETATM   23  C   UNL     1     -39.550  51.535 -52.253  1.00  0.00     0.034 C 
ENDBRANCH  21  22
ENDBRANCH  19  21
ENDBRANCH  16  19
ENDBRANCH  10  13
ENDBRANCH   8   9
ENDBRANCH   1   8
BRANCH   2  24
HETATM   24  C   UNL     1     -44.199  59.412 -55.948  1.00  0.00     0.168 C 
BRANCH  24  25
HETATM   25  C   UNL     1     -43.441  58.958 -54.731  1.00  0.00    -0.023 A 
HETATM   26  C   UNL     1     -44.133  58.468 -53.626  1.00  0.00     0.125 A 
HETATM   27  N   UNL     1     -43.546  58.027 -52.490  1.00  0.00    -0.273 NA
HETATM   28  C   UNL     1     -42.197  58.045 -52.462  1.00  0.00     0.116 A 
HETATM   29  C   UNL     1     -41.411  58.478 -53.515  1.00  0.00     0.020 A 
HETATM   30  C   UNL     1     -42.045  58.929 -54.669  1.00  0.00     0.012 A 
ENDBRANCH  24  25
ENDBRANCH   2  24
BRANCH   5  31
HETATM   31  C   UNL     1     -41.329  61.366 -59.469  1.00  0.00     0.047 A 
HETATM   32  C   UNL     1     -40.280  62.046 -58.827  1.00  0.00     0.031 A 
HETATM   33  C   UNL     1     -39.453  62.945 -59.513  1.00  0.00     0.009 A 
HETATM   34  C   UNL     1     -39.652  63.199 -60.868  1.00  0.00    -0.062 A 
HETATM   35  C   UNL     1     -38.729  64.115 -61.613  1.00  0.00     0.048 C 
HETATM   36  C   UNL     1     -40.686  62.531 -61.525  1.00  0.00     0.009 A 
HETATM   37  C   UNL     1     -41.517  61.637 -60.833  1.00  0.00     0.031 A 
ENDBRANCH   5  31
TORSDOF 9
ENDMDL
MODEL 7
REMARK VINA RESULT:      -8.3      3.421      8.163
REMARK  9 active torsions:
REMARK  status: ('A' for Active; 'I' for Inactive)
REMARK    1  A    between atoms: C_2  and  O_3 
REMARK    2  A    between atoms: O_3  and  C_4 
REMARK    3  A    between atoms: C_4  and  C_5 
REMARK    4  A    between atoms: C_8  and  N_9 
REMARK       I    between atoms: N_9  and  C_10 
REMARK    5  A    between atoms: C_10  and  C_11 
REMARK    6  A    between atoms: C_11  and  C_12 
REMARK    7  A    between atoms: N_13  and  C_14 
REMARK    8  A    between atoms: C_14  and  C_15 
REMARK    9  A    between atoms: N_23  and  C_24 
ROOT
HETATM    1  C   UNL     1     -43.914  57.507 -53.966  1.00  0.00     0.191 A 
HETATM    2  N   UNL     1     -44.095  56.903 -52.662  1.00  0.00    -0.315 N 
HETATM    3  C   UNL     1     -44.533  57.814 -51.711  1.00  0.00     0.333 A 
HETATM    4  O   UNL     1     -44.728  57.499 -50.545  1.00  0.00    -0.246 OA
HETATM    5  N   UNL     1     -44.677  59.047 -52.312  1.00  0.00    -0.232 N 
HETATM    6  C   UNL     1     -44.372  58.935 -53.653  1.00  0.00     0.256 A 
HETATM    7  O   UNL     1     -44.436  59.793 -54.529  1.00  0.00    -0.270 OA
ENDROOT
BRANCH   1   8
HETATM    8  C   UNL     1     -42.489  57.591 -54.503  1.00  0.00     0.138 C 
BRANCH   8   9
HETATM    9  C   UNL     1     -42.314  57.062 -55.897  1.00  0.00     0.224 C 
HETATM   10  N   UNL     1     -41.786  55.849 -56.194  1.00  0.00    -0.327 N 
HETATM   11  H   UNL     1     -41.637  55.783 -57.197  1.00  0.00     0.169 HD
HETATM   12  O   UNL     1     -42.602  57.788 -56.856  1.00  0.00    -0.273 OA
BRANCH  10  13
HETATM   13  C   UNL     1     -41.432  54.699 -55.473  1.00  0.00     0.034 A 
HETATM   14  C   UNL     1     -42.299  53.686 -55.069  1.00  0.00     0.030 A 
HETATM   15  C   UNL     1     -41.802  52.558 -54.394  1.00  0.00     0.020 A 
HETATM   16  C   UNL     1     -40.435  52.427 -54.118  1.00  0.00     0.039 A 
HETATM   17  C   UNL     1     -39.566  53.444 -54.515  1.00  0.00     0.020 A 
HETATM   18  C   UNL     1     -40.064  54.561 -55.192  1.00  0.00     0.030 A 
BRANCH  16  19
HETATM   19  C   UNL     1     -39.953  51.192 -53.440  1.00  0.00     0.293 C 
HETATM   20  O   UNL     1     -39.841  50.115 -54.002  1.00  0.00    -0.259 OA
BRANCH  19  21
HETATM   21  O   UNL     1     -39.639  51.457 -52.147  1.00  0.00    -0.318 OA
BRANCH  21  22
HETATM   22  C   UNL     1     -39.638  50.333 -51.253  1.00  0.00     0.174 C 
HETATM   23  C   UNL     1     -40.294  50.698 -49.936  1.00  0.00     0.034 C 
ENDBRANCH  21  22
ENDBRANCH  19  21
ENDBRANCH  16  19
ENDBRANCH  10  13
ENDBRANCH   8   9
ENDBRANCH   1   8
BRANCH   2  24
HETATM   24  C   UNL     1     -43.924  55.487 -52.361  1.00  0.00     0.168 C 
BRANCH  24  25
HETATM   25  C   UNL     1     -42.755  55.179 -51.466  1.00  0.00    -0.023 A 
HETATM   26  C   UNL     1     -42.974  54.631 -50.205  1.00  0.00     0.125 A 
HETATM   27  N   UNL     1     -41.994  54.309 -49.331  1.00  0.00    -0.273 NA
HETATM   28  C   UNL     1     -40.725  54.515 -49.745  1.00  0.00     0.116 A 
HETATM   29  C   UNL     1     -40.394  55.021 -50.989  1.00  0.00     0.020 A 
HETATM   30  C   UNL     1     -41.426  55.346 -51.865  1.00  0.00     0.012 A 
ENDBRANCH  24  25
ENDBRANCH   2  24
BRANCH   5  31
HETATM   31  C   UNL     1     -45.067  60.244 -51.637  1.00  0.00     0.047 A 
HETATM   32  C   UNL     1     -46.389  60.716 -51.683  1.00  0.00     0.031 A 
HETATM   33  C   UNL     1     -46.788  61.865 -50.989  1.00  0.00     0.009 A 
HETATM   34  C   UNL     1     -45.872  62.587 -50.227  1.00  0.00    -0.062 A 
HETATM   35  C   UNL     1     -46.314  63.782 -49.437  1.00  0.00     0.048 C 
HETATM   36  C   UNL     1     -44.554  62.133 -50.165  1.00  0.00     0.009 A 
HETATM   37  C   UNL     1     -44.157  60.986 -50.868  1.00  0.00     0.031 A 
ENDBRANCH   5  31
TORSDOF 9
ENDMDL
MODEL 8
REMARK VINA RESULT:      -8.2      1.382      2.225
REMARK  9 active torsions:
REMARK  status: ('A' for Active; 'I' for Inactive)
REMARK    1  A    between atoms: C_2  and  O_3 
REMARK    2  A    between atoms: O_3  and  C_4 
REMARK    3  A    between atoms: C_4  and  C_5 
REMARK    4  A    between atoms: C_8  and  N_9 
REMARK       I    between atoms: N_9  and  C_10 
REMARK    5  A    between atoms: C_10  and  C_11 
REMARK    6  A    between atoms: C_11  and  C_12 
REMARK    7  A    between atoms: N_13  and  C_14 
REMARK    8  A    between atoms: C_14  and  C_15 
REMARK    9  A    between atoms: N_23  and  C_24 
ROOT
HETATM    1  C   UNL     1     -41.084  57.261 -53.476  1.00  0.00     0.191 A 
HETATM    2  N   UNL     1     -41.392  56.951 -52.095  1.00  0.00    -0.315 N 
HETATM    3  C   UNL     1     -41.194  55.610 -51.795  1.00  0.00     0.333 A 
HETATM    4  O   UNL     1     -41.416  55.149 -50.685  1.00  0.00    -0.246 OA
HETATM    5  N   UNL     1     -40.741  54.966 -52.927  1.00  0.00    -0.232 N 
HETATM    6  C   UNL     1     -40.609  55.883 -53.949  1.00  0.00     0.256 A 
HETATM    7  O   UNL     1     -40.182  55.710 -55.087  1.00  0.00    -0.270 OA
ENDROOT
BRANCH   1   8
HETATM    8  C   UNL     1     -42.245  57.678 -54.372  1.00  0.00     0.138 C 
BRANCH   8   9
HETATM    9  C   UNL     1     -42.114  59.050 -54.968  1.00  0.00     0.224 C 
HETATM   10  N   UNL     1     -42.710  59.442 -56.121  1.00  0.00    -0.327 N 
HETATM   11  H   UNL     1     -42.354  60.356 -56.389  1.00  0.00     0.169 HD
HETATM   12  O   UNL     1     -41.369  59.873 -54.423  1.00  0.00    -0.273 OA
BRANCH  10  13
HETATM   13  C   UNL     1     -43.679  58.915 -56.986  1.00  0.00     0.034 A 
HETATM   14  C   UNL     1     -45.025  58.717 -56.685  1.00  0.00     0.030 A 
HETATM   15  C   UNL     1     -45.904  58.226 -57.666  1.00  0.00     0.020 A 
HETATM   16  C   UNL     1     -45.450  57.931 -58.959  1.00  0.00     0.039 A 
HETATM   17  C   UNL     1     -44.101  58.121 -59.259  1.00  0.00     0.020 A 
HETATM   18  C   UNL     1     -43.232  58.616 -58.283  1.00  0.00     0.030 A 
BRANCH  16  19
HETATM   19  C   UNL     1     -46.430  57.456 -59.974  1.00  0.00     0.293 C 
HETATM   20  O   UNL     1     -47.044  58.202 -60.718  1.00  0.00    -0.259 OA
BRANCH  19  21
HETATM   21  O   UNL     1     -46.503  56.101 -59.959  1.00  0.00    -0.318 OA
BRANCH  21  22
HETATM   22  C   UNL     1     -45.559  55.407 -60.788  1.00  0.00     0.174 C 
HETATM   23  C   UNL     1     -44.735  54.438 -59.963  1.00  0.00     0.034 C 
ENDBRANCH  21  22
ENDBRANCH  19  21
ENDBRANCH  16  19
ENDBRANCH  10  13
ENDBRANCH   8   9
ENDBRANCH   1   8
BRANCH   2  24
HETATM   24  C   UNL     1     -41.792  57.922 -51.085  1.00  0.00     0.168 C 
BRANCH  24  25
HETATM   25  C   UNL     1     -43.216  58.389 -51.202  1.00  0.00    -0.023 A 
HETATM   26  C   UNL     1     -44.260  57.499 -50.963  1.00  0.00     0.125 A 
HETATM   27  N   UNL     1     -45.571  57.821 -51.032  1.00  0.00    -0.273 NA
HETATM   28  C   UNL     1     -45.862  59.106 -51.324  1.00  0.00     0.116 A 
HETATM   29  C   UNL     1     -44.904  60.081 -51.545  1.00  0.00     0.020 A 
HETATM   30  C   UNL     1     -43.563  59.716 -51.471  1.00  0.00     0.012 A 
ENDBRANCH  24  25
ENDBRANCH   2  24
BRANCH   5  31
HETATM   31  C   UNL     1     -40.471  53.566 -53.017  1.00  0.00     0.047 A 
HETATM   32  C   UNL     1     -40.802  52.825 -54.164  1.00  0.00     0.031 A 
HETATM   33  C   UNL     1     -40.500  51.462 -54.276  1.00  0.00     0.009 A 
HETATM   34  C   UNL     1     -39.860  50.789 -53.237  1.00  0.00    -0.062 A 
HETATM   35  C   UNL     1     -39.484  49.345 -53.383  1.00  0.00     0.048 C 
HETATM   36  C   UNL     1     -39.519  51.508 -52.090  1.00  0.00     0.009 A 
HETATM   37  C   UNL     1     -39.830  52.872 -51.979  1.00  0.00     0.031 A 
ENDBRANCH   5  31
TORSDOF 9
ENDMDL
MODEL 9
REMARK VINA RESULT:      -8.2      3.153      5.303
REMARK  9 active torsions:
REMARK  status: ('A' for Active; 'I' for Inactive)
REMARK    1  A    between atoms: C_2  and  O_3 
REMARK    2  A    between atoms: O_3  and  C_4 
REMARK    3  A    between atoms: C_4  and  C_5 
REMARK    4  A    between atoms: C_8  and  N_9 
REMARK       I    between atoms: N_9  and  C_10 
REMARK    5  A    between atoms: C_10  and  C_11 
REMARK    6  A    between atoms: C_11  and  C_12 
REMARK    7  A    between atoms: N_13  and  C_14 
REMARK    8  A    between atoms: C_14  and  C_15 
REMARK    9  A    between atoms: N_23  and  C_24 
ROOT
HETATM    1  C   UNL     1     -42.695  57.908 -54.287  1.00  0.00     0.191 A 
HETATM    2  N   UNL     1     -43.293  57.044 -55.284  1.00  0.00    -0.315 N 
HETATM    3  C   UNL     1     -42.864  55.728 -55.172  1.00  0.00     0.333 A 
HETATM    4  O   UNL     1     -43.243  54.850 -55.935  1.00  0.00    -0.246 OA
HETATM    5  N   UNL     1     -41.986  55.637 -54.113  1.00  0.00    -0.232 N 
HETATM    6  C   UNL     1     -41.869  56.875 -53.513  1.00  0.00     0.256 A 
HETATM    7  O   UNL     1     -41.231  57.186 -52.511  1.00  0.00    -0.270 OA
ENDROOT
BRANCH   1   8
HETATM    8  C   UNL     1     -41.735  58.983 -54.783  1.00  0.00     0.138 C 
BRANCH   8   9
HETATM    9  C   UNL     1     -42.219  60.392 -54.593  1.00  0.00     0.224 C 
HETATM   10  N   UNL     1     -42.489  61.250 -55.606  1.00  0.00    -0.327 N 
HETATM   11  H   UNL     1     -42.656  62.177 -55.225  1.00  0.00     0.169 HD
HETATM   12  O   UNL     1     -42.326  60.840 -53.445  1.00  0.00    -0.273 OA
BRANCH  10  13
HETATM   13  C   UNL     1     -42.608  61.160 -57.000  1.00  0.00     0.034 A 
HETATM   14  C   UNL     1     -43.800  61.092 -57.718  1.00  0.00     0.030 A 
HETATM   15  C   UNL     1     -43.778  61.057 -59.123  1.00  0.00     0.020 A 
HETATM   16  C   UNL     1     -42.567  61.092 -59.827  1.00  0.00     0.039 A 
HETATM   17  C   UNL     1     -41.372  61.153 -59.109  1.00  0.00     0.020 A 
HETATM   18  C   UNL     1     -41.398  61.195 -57.712  1.00  0.00     0.030 A 
BRANCH  16  19
HETATM   19  C   UNL     1     -42.600  61.098 -61.315  1.00  0.00     0.293 C 
HETATM   20  O   UNL     1     -43.619  60.939 -61.967  1.00  0.00    -0.259 OA
BRANCH  19  21
HETATM   21  O   UNL     1     -41.359  61.332 -61.812  1.00  0.00    -0.318 OA
BRANCH  21  22
HETATM   22  C   UNL     1     -41.195  62.552 -62.552  1.00  0.00     0.174 C 
HETATM   23  C   UNL     1     -39.738  62.973 -62.570  1.00  0.00     0.034 C 
ENDBRANCH  21  22
ENDBRANCH  19  21
ENDBRANCH  16  19
ENDBRANCH  10  13
ENDBRANCH   8   9
ENDBRANCH   1   8
BRANCH   2  24
HETATM   24  C   UNL     1     -44.294  57.454 -56.260  1.00  0.00     0.168 C 
BRANCH  24  25
HETATM   25  C   UNL     1     -43.819  57.427 -57.686  1.00  0.00    -0.023 A 
HETATM   26  C   UNL     1     -44.743  57.324 -58.723  1.00  0.00     0.125 A 
HETATM   27  N   UNL     1     -44.420  57.301 -60.035  1.00  0.00    -0.273 NA
HETATM   28  C   UNL     1     -43.110  57.418 -60.337  1.00  0.00     0.116 A 
HETATM   29  C   UNL     1     -42.112  57.560 -59.389  1.00  0.00     0.020 A 
HETATM   30  C   UNL     1     -42.476  57.576 -58.045  1.00  0.00     0.012 A 
ENDBRANCH  24  25
ENDBRANCH   2  24
BRANCH   5  31
HETATM   31  C   UNL     1     -41.301  54.447 -53.719  1.00  0.00     0.047 A 
HETATM   32  C   UNL     1     -41.344  53.978 -52.396  1.00  0.00     0.031 A 
HETATM   33  C   UNL     1     -40.711  52.789 -52.012  1.00  0.00     0.009 A 
HETATM   34  C   UNL     1     -40.005  52.029 -52.942  1.00  0.00    -0.062 A 
HETATM   35  C   UNL     1     -39.380  50.726 -52.543  1.00  0.00     0.048 C 
HETATM   36  C   UNL     1     -39.953  52.475 -54.264  1.00  0.00     0.009 A 
HETATM   37  C   UNL     1     -40.583  53.671 -54.642  1.00  0.00     0.031 A 
ENDBRANCH   5  31
TORSDOF 9
ENDMDL
MODEL 10
REMARK VINA RESULT:      -8.1      2.719      8.834
REMARK  9 active torsions:
REMARK  status: ('A' for Active; 'I' for Inactive)
REMARK    1  A    between atoms: C_2  and  O_3 
REMARK    2  A    between atoms: O_3  and  C_4 
REMARK    3  A    between atoms: C_4  and  C_5 
REMARK    4  A    between atoms: C_8  and  N_9 
REMARK       I    between atoms: N_9  and  C_10 
REMARK    5  A    between atoms: C_10  and  C_11 
REMARK    6  A    between atoms: C_11  and  C_12 
REMARK    7  A    between atoms: N_13  and  C_14 
REMARK    8  A    between atoms: C_14  and  C_15 
REMARK    9  A    between atoms: N_23  and  C_24 
ROOT
HETATM    1  C   UNL     1     -42.576  58.466 -54.976  1.00  0.00     0.191 A 
HETATM    2  N   UNL     1     -43.135  57.283 -55.597  1.00  0.00    -0.315 N 
HETATM    3  C   UNL     1     -43.269  57.417 -56.972  1.00  0.00     0.333 A 
HETATM    4  O   UNL     1     -43.738  56.532 -57.672  1.00  0.00    -0.246 OA
HETATM    5  N   UNL     1     -42.807  58.663 -57.341  1.00  0.00    -0.232 N 
HETATM    6  C   UNL     1     -42.341  59.324 -56.224  1.00  0.00     0.256 A 
HETATM    7  O   UNL     1     -41.803  60.425 -56.151  1.00  0.00    -0.270 OA
ENDROOT
BRANCH   1   8
HETATM    8  C   UNL     1     -43.483  59.257 -54.040  1.00  0.00     0.138 C 
BRANCH   8   9
HETATM    9  C   UNL     1     -42.763  60.009 -52.958  1.00  0.00     0.224 C 
HETATM   10  N   UNL     1     -42.338  59.455 -51.796  1.00  0.00    -0.327 N 
HETATM   11  H   UNL     1     -42.016  60.189 -51.172  1.00  0.00     0.169 HD
HETATM   12  O   UNL     1     -42.594  61.227 -53.083  1.00  0.00    -0.273 OA
BRANCH  10  13
HETATM   13  C   UNL     1     -42.220  58.155 -51.281  1.00  0.00     0.034 A 
HETATM   14  C   UNL     1     -43.206  57.171 -51.309  1.00  0.00     0.030 A 
HETATM   15  C   UNL     1     -42.938  55.888 -50.802  1.00  0.00     0.020 A 
HETATM   16  C   UNL     1     -41.683  55.572 -50.264  1.00  0.00     0.039 A 
HETATM   17  C   UNL     1     -40.697  56.560 -50.229  1.00  0.00     0.020 A 
HETATM   18  C   UNL     1     -40.965  57.832 -50.742  1.00  0.00     0.030 A 
BRANCH  16  19
HETATM   19  C   UNL     1     -41.435  54.186 -49.781  1.00  0.00     0.293 C 
HETATM   20  O   UNL     1     -41.381  53.884 -48.600  1.00  0.00    -0.259 OA
BRANCH  19  21
HETATM   21  O   UNL     1     -41.315  53.336 -50.832  1.00  0.00    -0.318 OA
BRANCH  21  22
HETATM   22  C   UNL     1     -40.035  52.707 -50.993  1.00  0.00     0.174 C 
HETATM   23  C   UNL     1     -40.115  51.235 -50.638  1.00  0.00     0.034 C 
ENDBRANCH  21  22
ENDBRANCH  19  21
ENDBRANCH  16  19
ENDBRANCH  10  13
ENDBRANCH   8   9
ENDBRANCH   1   8
BRANCH   2  24
HETATM   24  C   UNL     1     -43.459  56.043 -54.902  1.00  0.00     0.168 C 
BRANCH  24  25
HETATM   25  C   UNL     1     -42.310  55.081 -54.781  1.00  0.00    -0.023 A 
HETATM   26  C   UNL     1     -42.546  53.765 -54.390  1.00  0.00     0.125 A 
HETATM   27  N   UNL     1     -41.586  52.822 -54.261  1.00  0.00    -0.273 NA
HETATM   28  C   UNL     1     -40.326  53.197 -54.566  1.00  0.00     0.116 A 
HETATM   29  C   UNL     1     -39.985  54.467 -54.998  1.00  0.00     0.020 A 
HETATM   30  C   UNL     1     -40.995  55.417 -55.116  1.00  0.00     0.012 A 
ENDBRANCH  24  25
ENDBRANCH   2  24
BRANCH   5  31
HETATM   31  C   UNL     1     -42.829  59.179 -58.673  1.00  0.00     0.047 A 
HETATM   32  C   UNL     1     -43.748  60.167 -59.064  1.00  0.00     0.031 A 
HETATM   33  C   UNL     1     -43.747  60.709 -60.355  1.00  0.00     0.009 A 
HETATM   34  C   UNL     1     -42.825  60.274 -61.306  1.00  0.00    -0.062 A 
HETATM   35  C   UNL     1     -42.786  60.898 -62.668  1.00  0.00     0.048 C 
HETATM   36  C   UNL     1     -41.901  59.296 -60.937  1.00  0.00     0.009 A 
HETATM   37  C   UNL     1     -41.911  58.751 -59.644  1.00  0.00     0.031 A 
ENDBRANCH   5  31
TORSDOF 9
ENDMDL
