MODEL 1
REMARK VINA RESULT:      -7.5      0.000      0.000
REMARK  6 active torsions:
REMARK  status: ('A' for Active; 'I' for Inactive)
REMARK    1  A    between atoms: C_2  and  N_3 
REMARK    2  A    between atoms: C_2  and  C_21 
REMARK    3  A    between atoms: N_3  and  C_6 
REMARK    4  A    between atoms: C_6  and  C_7 
REMARK       I    between atoms: C_7  and  N_8 
REMARK    5  A    between atoms: N_8  and  C_9 
REMARK    6  A    between atoms: C_16  and  C_17 
REMARK       I    between atoms: C_17  and  N_18 
ROOT
HETATM    1  C   UNL     1     -42.376  55.690 -51.184  1.00  0.00     0.248 C 
HETATM    2  N   UNL     1     -41.203  55.338 -51.806  1.00  0.00    -0.319 N 
HETATM    3  O   UNL     1     -43.249  54.965 -50.708  1.00  0.00    -0.271 OA
HETATM    4  H   UNL     1     -40.513  56.055 -52.040  1.00  0.00     0.169 HD
ENDROOT
BRANCH   2   5
HETATM    5  C   UNL     1     -40.741  54.052 -52.060  1.00  0.00     0.093 A 
HETATM    6  S   UNL     1     -40.200  53.033 -50.801  1.00  0.00    -0.075 SA
HETATM    7  C   UNL     1     -39.897  51.809 -51.890  1.00  0.00    -0.008 A 
HETATM    8  C   UNL     1     -40.184  52.127 -53.191  1.00  0.00    -0.026 A 
HETATM    9  C   UNL     1     -39.370  50.439 -51.690  1.00  0.00     0.047 C 
HETATM   10  C   UNL     1     -39.878  50.973 -54.080  1.00  0.00     0.041 C 
HETATM   11  C   UNL     1     -40.684  53.455 -53.326  1.00  0.00     0.072 A 
HETATM   12  C   UNL     1     -39.685  49.799 -53.072  1.00  0.00     0.010 C 
BRANCH  11  13
HETATM   13  C   UNL     1     -41.092  54.191 -54.524  1.00  0.00     0.252 C 
HETATM   14  N   UNL     1     -40.172  54.345 -55.512  1.00  0.00    -0.366 N 
HETATM   15  H   UNL     1     -39.211  54.051 -55.435  1.00  0.00     0.159 HD
HETATM   16  H   UNL     1     -40.433  54.890 -56.324  1.00  0.00     0.159 HD
HETATM   17  O   UNL     1     -42.216  54.684 -54.632  1.00  0.00    -0.268 OA
ENDBRANCH  11  13
ENDBRANCH   2   5
BRANCH   1  18
HETATM   18  C   UNL     1     -42.546  57.198 -51.007  1.00  0.00     0.335 C 
BRANCH  18  19
HETATM   19  N   UNL     1     -41.285  57.766 -50.426  1.00  0.00    -0.057 N 
HETATM   20  H   UNL     1     -40.492  57.152 -50.674  1.00  0.00     0.278 HD
HETATM   21  H   UNL     1     -41.332  57.658 -49.399  1.00  0.00     0.278 HD
BRANCH  19  22
HETATM   22  C   UNL     1     -40.915  59.156 -50.822  1.00  0.00     0.239 C 
HETATM   23  C   UNL     1     -39.415  59.331 -50.620  1.00  0.00     0.047 C 
BRANCH  22  24
HETATM   24  C   UNL     1     -41.320  59.421 -52.233  1.00  0.00     0.082 A 
HETATM   25  O   UNL     1     -42.289  60.372 -52.413  1.00  0.00    -0.325 OA
HETATM   26  C   UNL     1     -42.500  60.475 -53.750  1.00  0.00     0.142 A 
HETATM   27  C   UNL     1     -41.670  59.620 -54.434  1.00  0.00     0.027 A 
HETATM   28  C   UNL     1     -40.903  58.939 -53.456  1.00  0.00     0.037 A 
ENDBRANCH  22  24
ENDBRANCH  19  22
ENDBRANCH  18  19
ENDBRANCH   1  18
TORSDOF 6
ENDMDL
MODEL 2
REMARK VINA RESULT:      -7.3      1.667      2.128
REMARK  6 active torsions:
REMARK  status: ('A' for Active; 'I' for Inactive)
REMARK    1  A    between atoms: C_2  and  N_3 
REMARK    2  A    between atoms: C_2  and  C_21 
REMARK    3  A    between atoms: N_3  and  C_6 
REMARK    4  A    between atoms: C_6  and  C_7 
REMARK       I    between atoms: C_7  and  N_8 
REMARK    5  A    between atoms: N_8  and  C_9 
REMARK    6  A    between atoms: C_16  and  C_17 
REMARK       I    between atoms: C_17  and  N_18 
ROOT
HETATM    1  C   UNL     1     -43.552  55.266 -51.122  1.00  0.00     0.248 C 
HETATM    2  N   UNL     1     -42.419  55.250 -51.898  1.00  0.00    -0.319 N 
HETATM    3  O   UNL     1     -44.111  54.333 -50.547  1.00  0.00    -0.271 OA
HETATM    4  H   UNL     1     -42.000  56.130 -52.209  1.00  0.00     0.169 HD
ENDROOT
BRANCH   2   5
HETATM    5  C   UNL     1     -41.646  54.145 -52.233  1.00  0.00     0.093 A 
HETATM    6  S   UNL     1     -40.778  53.271 -51.048  1.00  0.00    -0.075 SA
HETATM    7  C   UNL     1     -40.224  52.208 -52.206  1.00  0.00    -0.008 A 
HETATM    8  C   UNL     1     -40.663  52.476 -53.475  1.00  0.00    -0.026 A 
HETATM    9  C   UNL     1     -39.339  51.025 -52.093  1.00  0.00     0.047 C 
HETATM   10  C   UNL     1     -40.112  51.475 -54.429  1.00  0.00     0.041 C 
HETATM   11  C   UNL     1     -41.507  53.624 -53.525  1.00  0.00     0.072 A 
HETATM   12  C   UNL     1     -39.553  50.366 -53.486  1.00  0.00     0.010 C 
BRANCH  11  13
HETATM   13  C   UNL     1     -42.167  54.258 -54.667  1.00  0.00     0.252 C 
HETATM   14  N   UNL     1     -41.378  54.724 -55.672  1.00  0.00    -0.366 N 
HETATM   15  H   UNL     1     -40.371  54.725 -55.640  1.00  0.00     0.159 HD
HETATM   16  H   UNL     1     -41.825  55.203 -56.444  1.00  0.00     0.159 HD
HETATM   17  O   UNL     1     -43.390  54.399 -54.715  1.00  0.00    -0.268 OA
ENDBRANCH  11  13
ENDBRANCH   2   5
BRANCH   1  18
HETATM   18  C   UNL     1     -44.122  56.666 -50.898  1.00  0.00     0.335 C 
BRANCH  18  19
HETATM   19  N   UNL     1     -44.742  57.150 -52.176  1.00  0.00    -0.057 N 
HETATM   20  H   UNL     1     -45.771  57.136 -52.080  1.00  0.00     0.278 HD
HETATM   21  H   UNL     1     -44.581  56.429 -52.900  1.00  0.00     0.278 HD
BRANCH  19  22
HETATM   22  C   UNL     1     -44.356  58.510 -52.652  1.00  0.00     0.239 C 
HETATM   23  C   UNL     1     -44.840  59.533 -51.631  1.00  0.00     0.047 C 
BRANCH  22  24
HETATM   24  C   UNL     1     -42.881  58.590 -52.862  1.00  0.00     0.082 A 
HETATM   25  O   UNL     1     -42.340  57.653 -53.702  1.00  0.00    -0.325 OA
HETATM   26  C   UNL     1     -41.009  57.905 -53.772  1.00  0.00     0.142 A 
HETATM   27  C   UNL     1     -40.686  59.000 -53.006  1.00  0.00     0.027 A 
HETATM   28  C   UNL     1     -41.895  59.447 -52.419  1.00  0.00     0.037 A 
ENDBRANCH  22  24
ENDBRANCH  19  22
ENDBRANCH  18  19
ENDBRANCH   1  18
TORSDOF 6
ENDMDL
MODEL 3
REMARK VINA RESULT:      -7.2      1.979      2.663
REMARK  6 active torsions:
REMARK  status: ('A' for Active; 'I' for Inactive)
REMARK    1  A    between atoms: C_2  and  N_3 
REMARK    2  A    between atoms: C_2  and  C_21 
REMARK    3  A    between atoms: N_3  and  C_6 
REMARK    4  A    between atoms: C_6  and  C_7 
REMARK       I    between atoms: C_7  and  N_8 
REMARK    5  A    between atoms: N_8  and  C_9 
REMARK    6  A    between atoms: C_16  and  C_17 
REMARK       I    between atoms: C_17  and  N_18 
ROOT
HETATM    1  C   UNL     1     -44.171  56.909 -51.368  1.00  0.00     0.248 C 
HETATM    2  N   UNL     1     -43.099  56.762 -52.214  1.00  0.00    -0.319 N 
HETATM    3  O   UNL     1     -44.620  56.115 -50.542  1.00  0.00    -0.271 OA
HETATM    4  H   UNL     1     -42.766  57.560 -52.760  1.00  0.00     0.169 HD
ENDROOT
BRANCH   2   5
HETATM    5  C   UNL     1     -42.277  55.649 -52.343  1.00  0.00     0.093 A 
HETATM    6  S   UNL     1     -41.193  55.191 -51.104  1.00  0.00    -0.075 SA
HETATM    7  C   UNL     1     -40.695  53.875 -51.996  1.00  0.00    -0.008 A 
HETATM    8  C   UNL     1     -41.310  53.751 -53.212  1.00  0.00    -0.026 A 
HETATM    9  C   UNL     1     -39.699  52.819 -51.695  1.00  0.00     0.047 C 
HETATM   10  C   UNL     1     -40.796  52.550 -53.927  1.00  0.00     0.041 C 
HETATM   11  C   UNL     1     -42.254  54.792 -53.450  1.00  0.00     0.072 A 
HETATM   12  C   UNL     1     -40.025  51.784 -52.809  1.00  0.00     0.010 C 
BRANCH  11  13
HETATM   13  C   UNL     1     -43.106  55.043 -54.614  1.00  0.00     0.252 C 
HETATM   14  N   UNL     1     -44.425  54.730 -54.508  1.00  0.00    -0.366 N 
HETATM   15  H   UNL     1     -44.830  54.269 -53.709  1.00  0.00     0.159 HD
HETATM   16  H   UNL     1     -45.011  54.861 -55.323  1.00  0.00     0.159 HD
HETATM   17  O   UNL     1     -42.652  55.493 -55.667  1.00  0.00    -0.268 OA
ENDBRANCH  11  13
ENDBRANCH   2   5
BRANCH   1  18
HETATM   18  C   UNL     1     -44.819  58.291 -51.433  1.00  0.00     0.335 C 
BRANCH  18  19
HETATM   19  N   UNL     1     -44.147  59.191 -50.440  1.00  0.00    -0.057 N 
HETATM   20  H   UNL     1     -43.586  58.618 -49.788  1.00  0.00     0.278 HD
HETATM   21  H   UNL     1     -44.877  59.578 -49.817  1.00  0.00     0.278 HD
BRANCH  19  22
HETATM   22  C   UNL     1     -43.254  60.259 -50.978  1.00  0.00     0.239 C 
HETATM   23  C   UNL     1     -43.374  61.485 -50.082  1.00  0.00     0.047 C 
BRANCH  22  24
HETATM   24  C   UNL     1     -41.848  59.768 -51.062  1.00  0.00     0.082 A 
HETATM   25  O   UNL     1     -41.432  59.340 -52.295  1.00  0.00    -0.325 OA
HETATM   26  C   UNL     1     -40.136  58.955 -52.164  1.00  0.00     0.142 A 
HETATM   27  C   UNL     1     -39.707  59.145 -50.872  1.00  0.00     0.027 A 
HETATM   28  C   UNL     1     -40.810  59.673 -50.158  1.00  0.00     0.037 A 
ENDBRANCH  22  24
ENDBRANCH  19  22
ENDBRANCH  18  19
ENDBRANCH   1  18
TORSDOF 6
ENDMDL
MODEL 4
REMARK VINA RESULT:      -7.1      4.289      6.143
REMARK  6 active torsions:
REMARK  status: ('A' for Active; 'I' for Inactive)
REMARK    1  A    between atoms: C_2  and  N_3 
REMARK    2  A    between atoms: C_2  and  C_21 
REMARK    3  A    between atoms: N_3  and  C_6 
REMARK    4  A    between atoms: C_6  and  C_7 
REMARK       I    between atoms: C_7  and  N_8 
REMARK    5  A    between atoms: N_8  and  C_9 
REMARK    6  A    between atoms: C_16  and  C_17 
REMARK       I    between atoms: C_17  and  N_18 
ROOT
HETATM    1  C   UNL     1     -42.601  55.648 -55.803  1.00  0.00     0.248 C 
HETATM    2  N   UNL     1     -42.795  54.597 -54.940  1.00  0.00    -0.319 N 
HETATM    3  O   UNL     1     -41.942  56.673 -55.639  1.00  0.00    -0.271 OA
HETATM    4  H   UNL     1     -43.270  53.750 -55.264  1.00  0.00     0.169 HD
ENDROOT
BRANCH   2   5
HETATM    5  C   UNL     1     -42.295  54.466 -53.650  1.00  0.00     0.093 A 
HETATM    6  S   UNL     1     -43.078  55.184 -52.312  1.00  0.00    -0.075 SA
HETATM    7  C   UNL     1     -41.935  54.553 -51.276  1.00  0.00    -0.008 A 
HETATM    8  C   UNL     1     -40.963  53.811 -51.892  1.00  0.00    -0.026 A 
HETATM    9  C   UNL     1     -41.794  54.661 -49.805  1.00  0.00     0.047 C 
HETATM   10  C   UNL     1     -39.996  53.298 -50.884  1.00  0.00     0.041 C 
HETATM   11  C   UNL     1     -41.147  53.743 -53.304  1.00  0.00     0.072 A 
HETATM   12  C   UNL     1     -40.728  53.562 -49.532  1.00  0.00     0.010 C 
BRANCH  11  13
HETATM   13  C   UNL     1     -40.340  53.077 -54.327  1.00  0.00     0.252 C 
HETATM   14  N   UNL     1     -40.065  51.757 -54.153  1.00  0.00    -0.366 N 
HETATM   15  H   UNL     1     -40.319  51.235 -53.329  1.00  0.00     0.159 HD
HETATM   16  H   UNL     1     -39.472  51.301 -54.834  1.00  0.00     0.159 HD
HETATM   17  O   UNL     1     -39.893  53.686 -55.301  1.00  0.00    -0.268 OA
ENDBRANCH  11  13
ENDBRANCH   2   5
BRANCH   1  18
HETATM   18  C   UNL     1     -43.242  55.441 -57.174  1.00  0.00     0.335 C 
BRANCH  18  19
HETATM   19  N   UNL     1     -42.367  56.064 -58.220  1.00  0.00    -0.057 N 
HETATM   20  H   UNL     1     -41.992  55.321 -58.835  1.00  0.00     0.278 HD
HETATM   21  H   UNL     1     -41.512  56.412 -57.753  1.00  0.00     0.278 HD
BRANCH  19  22
HETATM   22  C   UNL     1     -42.981  57.101 -59.098  1.00  0.00     0.239 C 
HETATM   23  C   UNL     1     -41.924  57.591 -60.079  1.00  0.00     0.047 C 
BRANCH  22  24
HETATM   24  C   UNL     1     -44.176  56.549 -59.800  1.00  0.00     0.082 A 
HETATM   25  O   UNL     1     -43.937  55.532 -60.687  1.00  0.00    -0.325 OA
HETATM   26  C   UNL     1     -45.139  55.163 -61.199  1.00  0.00     0.142 A 
HETATM   27  C   UNL     1     -46.149  55.912 -60.644  1.00  0.00     0.027 A 
HETATM   28  C   UNL     1     -45.530  56.807 -59.737  1.00  0.00     0.037 A 
ENDBRANCH  22  24
ENDBRANCH  19  22
ENDBRANCH  18  19
ENDBRANCH   1  18
TORSDOF 6
ENDMDL
MODEL 5
REMARK VINA RESULT:      -7.1      4.004      5.893
REMARK  6 active torsions:
REMARK  status: ('A' for Active; 'I' for Inactive)
REMARK    1  A    between atoms: C_2  and  N_3 
REMARK    2  A    between atoms: C_2  and  C_21 
REMARK    3  A    between atoms: N_3  and  C_6 
REMARK    4  A    between atoms: C_6  and  C_7 
REMARK       I    between atoms: C_7  and  N_8 
REMARK    5  A    between atoms: N_8  and  C_9 
REMARK    6  A    between atoms: C_16  and  C_17 
REMARK       I    between atoms: C_17  and  N_18 
ROOT
HETATM    1  C   UNL     1     -42.537  56.533 -55.814  1.00  0.00     0.248 C 
HETATM    2  N   UNL     1     -41.292  56.107 -55.420  1.00  0.00    -0.319 N 
HETATM    3  O   UNL     1     -43.642  56.110 -55.478  1.00  0.00    -0.271 OA
HETATM    4  H   UNL     1     -40.461  56.640 -55.688  1.00  0.00     0.169 HD
ENDROOT
BRANCH   2   5
HETATM    5  C   UNL     1     -40.997  55.064 -54.550  1.00  0.00     0.093 A 
HETATM    6  S   UNL     1     -40.318  53.600 -55.110  1.00  0.00    -0.075 SA
HETATM    7  C   UNL     1     -40.270  53.001 -53.556  1.00  0.00    -0.008 A 
HETATM    8  C   UNL     1     -40.752  53.860 -52.605  1.00  0.00    -0.026 A 
HETATM    9  C   UNL     1     -39.797  51.699 -53.032  1.00  0.00     0.047 C 
HETATM   10  C   UNL     1     -40.668  53.231 -51.258  1.00  0.00     0.041 C 
HETATM   11  C   UNL     1     -41.196  55.094 -53.164  1.00  0.00     0.072 A 
HETATM   12  C   UNL     1     -39.747  51.998 -51.506  1.00  0.00     0.010 C 
BRANCH  11  13
HETATM   13  C   UNL     1     -41.787  56.264 -52.514  1.00  0.00     0.252 C 
HETATM   14  N   UNL     1     -43.115  56.219 -52.222  1.00  0.00    -0.366 N 
HETATM   15  H   UNL     1     -43.723  55.464 -52.494  1.00  0.00     0.159 HD
HETATM   16  H   UNL     1     -43.539  57.041 -51.811  1.00  0.00     0.159 HD
HETATM   17  O   UNL     1     -41.125  57.271 -52.262  1.00  0.00    -0.268 OA
ENDBRANCH  11  13
ENDBRANCH   2   5
BRANCH   1  18
HETATM   18  C   UNL     1     -42.505  57.753 -56.733  1.00  0.00     0.335 C 
BRANCH  18  19
HETATM   19  N   UNL     1     -41.990  57.337 -58.078  1.00  0.00    -0.057 N 
HETATM   20  H   UNL     1     -41.810  56.319 -58.072  1.00  0.00     0.278 HD
HETATM   21  H   UNL     1     -41.039  57.726 -58.190  1.00  0.00     0.278 HD
BRANCH  19  22
HETATM   22  C   UNL     1     -42.852  57.629 -59.261  1.00  0.00     0.239 C 
HETATM   23  C   UNL     1     -41.954  58.039 -60.421  1.00  0.00     0.047 C 
BRANCH  22  24
HETATM   24  C   UNL     1     -43.691  56.444 -59.600  1.00  0.00     0.082 A 
HETATM   25  O   UNL     1     -44.614  56.624 -60.596  1.00  0.00    -0.325 OA
HETATM   26  C   UNL     1     -45.254  55.439 -60.763  1.00  0.00     0.142 A 
HETATM   27  C   UNL     1     -44.747  54.494 -59.903  1.00  0.00     0.027 A 
HETATM   28  C   UNL     1     -43.734  55.140 -59.152  1.00  0.00     0.037 A 
ENDBRANCH  22  24
ENDBRANCH  19  22
ENDBRANCH  18  19
ENDBRANCH   1  18
TORSDOF 6
ENDMDL
MODEL 6
REMARK VINA RESULT:      -7.0      2.042      2.585
REMARK  6 active torsions:
REMARK  status: ('A' for Active; 'I' for Inactive)
REMARK    1  A    between atoms: C_2  and  N_3 
REMARK    2  A    between atoms: C_2  and  C_21 
REMARK    3  A    between atoms: N_3  and  C_6 
REMARK    4  A    between atoms: C_6  and  C_7 
REMARK       I    between atoms: C_7  and  N_8 
REMARK    5  A    between atoms: N_8  and  C_9 
REMARK    6  A    between atoms: C_16  and  C_17 
REMARK       I    between atoms: C_17  and  N_18 
ROOT
HETATM    1  C   UNL     1     -42.570  55.448 -51.519  1.00  0.00     0.248 C 
HETATM    2  N   UNL     1     -41.348  55.121 -52.054  1.00  0.00    -0.319 N 
HETATM    3  O   UNL     1     -43.449  54.705 -51.085  1.00  0.00    -0.271 OA
HETATM    4  H   UNL     1     -40.667  55.856 -52.259  1.00  0.00     0.169 HD
ENDROOT
BRANCH   2   5
HETATM    5  C   UNL     1     -40.830  53.847 -52.248  1.00  0.00     0.093 A 
HETATM    6  S   UNL     1     -40.227  52.921 -50.946  1.00  0.00    -0.075 SA
HETATM    7  C   UNL     1     -39.881  51.657 -51.975  1.00  0.00    -0.008 A 
HETATM    8  C   UNL     1     -40.199  51.892 -53.286  1.00  0.00    -0.026 A 
HETATM    9  C   UNL     1     -39.288  50.324 -51.712  1.00  0.00     0.047 C 
HETATM   10  C   UNL     1     -39.851  50.708 -54.119  1.00  0.00     0.041 C 
HETATM   11  C   UNL     1     -40.762  53.187 -53.482  1.00  0.00     0.072 A 
HETATM   12  C   UNL     1     -39.591  49.599 -53.054  1.00  0.00     0.010 C 
BRANCH  11  13
HETATM   13  C   UNL     1     -41.219  53.840 -54.710  1.00  0.00     0.252 C 
HETATM   14  N   UNL     1     -40.271  54.278 -55.581  1.00  0.00    -0.366 N 
HETATM   15  H   UNL     1     -39.281  54.247 -55.395  1.00  0.00     0.159 HD
HETATM   16  H   UNL     1     -40.579  54.768 -56.411  1.00  0.00     0.159 HD
HETATM   17  O   UNL     1     -42.415  54.019 -54.944  1.00  0.00    -0.268 OA
ENDBRANCH  11  13
ENDBRANCH   2   5
BRANCH   1  18
HETATM   18  C   UNL     1     -42.799  56.953 -51.387  1.00  0.00     0.335 C 
BRANCH  18  19
HETATM   19  N   UNL     1     -42.700  57.582 -52.745  1.00  0.00    -0.057 N 
HETATM   20  H   UNL     1     -41.898  57.170 -53.252  1.00  0.00     0.278 HD
HETATM   21  H   UNL     1     -42.398  58.563 -52.621  1.00  0.00     0.278 HD
BRANCH  19  22
HETATM   22  C   UNL     1     -43.892  57.476 -53.637  1.00  0.00     0.239 C 
HETATM   23  C   UNL     1     -44.812  58.656 -53.352  1.00  0.00     0.047 C 
BRANCH  22  24
HETATM   24  C   UNL     1     -43.470  57.433 -55.067  1.00  0.00     0.082 A 
HETATM   25  O   UNL     1     -44.476  57.503 -55.994  1.00  0.00    -0.325 OA
HETATM   26  C   UNL     1     -43.891  57.466 -57.218  1.00  0.00     0.142 A 
HETATM   27  C   UNL     1     -42.524  57.392 -57.095  1.00  0.00     0.027 A 
HETATM   28  C   UNL     1     -42.249  57.374 -55.705  1.00  0.00     0.037 A 
ENDBRANCH  22  24
ENDBRANCH  19  22
ENDBRANCH  18  19
ENDBRANCH   1  18
TORSDOF 6
ENDMDL
MODEL 7
REMARK VINA RESULT:      -6.9      3.381      4.001
REMARK  6 active torsions:
REMARK  status: ('A' for Active; 'I' for Inactive)
REMARK    1  A    between atoms: C_2  and  N_3 
REMARK    2  A    between atoms: C_2  and  C_21 
REMARK    3  A    between atoms: N_3  and  C_6 
REMARK    4  A    between atoms: C_6  and  C_7 
REMARK       I    between atoms: C_7  and  N_8 
REMARK    5  A    between atoms: N_8  and  C_9 
REMARK    6  A    between atoms: C_16  and  C_17 
REMARK       I    between atoms: C_17  and  N_18 
ROOT
HETATM    1  C   UNL     1     -43.707  57.035 -51.594  1.00  0.00     0.248 C 
HETATM    2  N   UNL     1     -43.817  55.727 -51.999  1.00  0.00    -0.319 N 
HETATM    3  O   UNL     1     -42.693  57.709 -51.419  1.00  0.00    -0.271 OA
HETATM    4  H   UNL     1     -44.735  55.336 -52.222  1.00  0.00     0.169 HD
ENDROOT
BRANCH   2   5
HETATM    5  C   UNL     1     -42.780  54.848 -52.288  1.00  0.00     0.093 A 
HETATM    6  S   UNL     1     -41.845  54.134 -51.049  1.00  0.00    -0.075 SA
HETATM    7  C   UNL     1     -40.955  53.289 -52.177  1.00  0.00    -0.008 A 
HETATM    8  C   UNL     1     -41.326  53.517 -53.475  1.00  0.00    -0.026 A 
HETATM    9  C   UNL     1     -39.833  52.336 -52.012  1.00  0.00     0.047 C 
HETATM   10  C   UNL     1     -40.473  52.721 -54.399  1.00  0.00     0.041 C 
HETATM   11  C   UNL     1     -42.406  54.442 -53.575  1.00  0.00     0.072 A 
HETATM   12  C   UNL     1     -39.759  51.721 -53.439  1.00  0.00     0.010 C 
BRANCH  11  13
HETATM   13  C   UNL     1     -43.089  54.969 -54.758  1.00  0.00     0.252 C 
HETATM   14  N   UNL     1     -43.573  54.072 -55.658  1.00  0.00    -0.366 N 
HETATM   15  H   UNL     1     -43.423  53.077 -55.595  1.00  0.00     0.159 HD
HETATM   16  H   UNL     1     -44.007  54.430 -56.499  1.00  0.00     0.159 HD
HETATM   17  O   UNL     1     -43.201  56.179 -54.958  1.00  0.00    -0.268 OA
ENDBRANCH  11  13
ENDBRANCH   2   5
BRANCH   1  18
HETATM   18  C   UNL     1     -45.053  57.739 -51.425  1.00  0.00     0.335 C 
BRANCH  18  19
HETATM   19  N   UNL     1     -44.919  58.798 -50.371  1.00  0.00    -0.057 N 
HETATM   20  H   UNL     1     -43.975  58.743 -49.953  1.00  0.00     0.278 HD
HETATM   21  H   UNL     1     -45.526  58.534 -49.576  1.00  0.00     0.278 HD
BRANCH  19  22
HETATM   22  C   UNL     1     -45.139  60.213 -50.791  1.00  0.00     0.239 C 
HETATM   23  C   UNL     1     -46.412  60.276 -51.625  1.00  0.00     0.047 C 
BRANCH  22  24
HETATM   24  C   UNL     1     -45.211  61.105 -49.598  1.00  0.00     0.082 A 
HETATM   25  O   UNL     1     -46.467  61.381 -49.127  1.00  0.00    -0.325 OA
HETATM   26  C   UNL     1     -46.317  62.183 -48.043  1.00  0.00     0.142 A 
HETATM   27  C   UNL     1     -44.984  62.415 -47.798  1.00  0.00     0.027 A 
HETATM   28  C   UNL     1     -44.267  61.717 -48.800  1.00  0.00     0.037 A 
ENDBRANCH  22  24
ENDBRANCH  19  22
ENDBRANCH  18  19
ENDBRANCH   1  18
TORSDOF 6
ENDMDL
MODEL 8
REMARK VINA RESULT:      -6.9      3.067      4.033
REMARK  6 active torsions:
REMARK  status: ('A' for Active; 'I' for Inactive)
REMARK    1  A    between atoms: C_2  and  N_3 
REMARK    2  A    between atoms: C_2  and  C_21 
REMARK    3  A    between atoms: N_3  and  C_6 
REMARK    4  A    between atoms: C_6  and  C_7 
REMARK       I    between atoms: C_7  and  N_8 
REMARK    5  A    between atoms: N_8  and  C_9 
REMARK    6  A    between atoms: C_16  and  C_17 
REMARK       I    between atoms: C_17  and  N_18 
ROOT
HETATM    1  C   UNL     1     -43.487  56.909 -53.159  1.00  0.00     0.248 C 
HETATM    2  N   UNL     1     -43.601  55.548 -53.008  1.00  0.00    -0.319 N 
HETATM    3  O   UNL     1     -42.474  57.607 -53.146  1.00  0.00    -0.271 OA
HETATM    4  H   UNL     1     -44.501  55.090 -53.167  1.00  0.00     0.169 HD
ENDROOT
BRANCH   2   5
HETATM    5  C   UNL     1     -42.575  54.640 -52.778  1.00  0.00     0.093 A 
HETATM    6  S   UNL     1     -42.071  54.244 -51.194  1.00  0.00    -0.075 SA
HETATM    7  C   UNL     1     -40.945  53.173 -51.796  1.00  0.00    -0.008 A 
HETATM    8  C   UNL     1     -40.918  53.090 -53.162  1.00  0.00    -0.026 A 
HETATM    9  C   UNL     1     -39.970  52.299 -51.103  1.00  0.00     0.047 C 
HETATM   10  C   UNL     1     -39.882  52.113 -53.596  1.00  0.00     0.041 C 
HETATM   11  C   UNL     1     -41.873  53.953 -53.776  1.00  0.00     0.072 A 
HETATM   12  C   UNL     1     -39.527  51.372 -52.270  1.00  0.00     0.010 C 
BRANCH  11  13
HETATM   13  C   UNL     1     -42.160  54.183 -55.193  1.00  0.00     0.252 C 
HETATM   14  N   UNL     1     -41.213  54.816 -55.933  1.00  0.00    -0.366 N 
HETATM   15  H   UNL     1     -40.364  55.200 -55.549  1.00  0.00     0.159 HD
HETATM   16  H   UNL     1     -41.423  55.017 -56.903  1.00  0.00     0.159 HD
HETATM   17  O   UNL     1     -43.231  53.846 -55.701  1.00  0.00    -0.268 OA
ENDBRANCH  11  13
ENDBRANCH   2   5
BRANCH   1  18
HETATM   18  C   UNL     1     -44.812  57.605 -53.465  1.00  0.00     0.335 C 
BRANCH  18  19
HETATM   19  N   UNL     1     -45.297  57.158 -54.812  1.00  0.00    -0.057 N 
HETATM   20  H   UNL     1     -46.206  56.678 -54.703  1.00  0.00     0.278 HD
HETATM   21  H   UNL     1     -44.682  56.392 -55.134  1.00  0.00     0.278 HD
BRANCH  19  22
HETATM   22  C   UNL     1     -45.470  58.207 -55.859  1.00  0.00     0.239 C 
HETATM   23  C   UNL     1     -45.122  59.559 -55.249  1.00  0.00     0.047 C 
BRANCH  22  24
HETATM   24  C   UNL     1     -44.624  57.900 -57.049  1.00  0.00     0.082 A 
HETATM   25  O   UNL     1     -43.613  56.997 -56.853  1.00  0.00    -0.325 OA
HETATM   26  C   UNL     1     -42.982  56.844 -58.044  1.00  0.00     0.142 A 
HETATM   27  C   UNL     1     -43.580  57.621 -59.008  1.00  0.00     0.027 A 
HETATM   28  C   UNL     1     -44.644  58.302 -58.368  1.00  0.00     0.037 A 
ENDBRANCH  22  24
ENDBRANCH  19  22
ENDBRANCH  18  19
ENDBRANCH   1  18
TORSDOF 6
ENDMDL
MODEL 9
REMARK VINA RESULT:      -6.7      1.836      3.370
REMARK  6 active torsions:
REMARK  status: ('A' for Active; 'I' for Inactive)
REMARK    1  A    between atoms: C_2  and  N_3 
REMARK    2  A    between atoms: C_2  and  C_21 
REMARK    3  A    between atoms: N_3  and  C_6 
REMARK    4  A    between atoms: C_6  and  C_7 
REMARK       I    between atoms: C_7  and  N_8 
REMARK    5  A    between atoms: N_8  and  C_9 
REMARK    6  A    between atoms: C_16  and  C_17 
REMARK       I    between atoms: C_17  and  N_18 
ROOT
HETATM    1  C   UNL     1     -43.146  56.548 -53.714  1.00  0.00     0.248 C 
HETATM    2  N   UNL     1     -41.983  56.280 -53.035  1.00  0.00    -0.319 N 
HETATM    3  O   UNL     1     -43.946  55.761 -54.219  1.00  0.00    -0.271 OA
HETATM    4  H   UNL     1     -41.482  57.036 -52.562  1.00  0.00     0.169 HD
ENDROOT
BRANCH   2   5
HETATM    5  C   UNL     1     -41.427  55.032 -52.780  1.00  0.00     0.093 A 
HETATM    6  S   UNL     1     -40.701  54.109 -54.020  1.00  0.00    -0.075 SA
HETATM    7  C   UNL     1     -40.314  52.908 -52.931  1.00  0.00    -0.008 A 
HETATM    8  C   UNL     1     -40.711  53.163 -51.646  1.00  0.00    -0.026 A 
HETATM    9  C   UNL     1     -39.616  51.615 -53.119  1.00  0.00     0.047 C 
HETATM   10  C   UNL     1     -40.322  52.035 -50.756  1.00  0.00     0.041 C 
HETATM   11  C   UNL     1     -41.379  54.417 -51.523  1.00  0.00     0.072 A 
HETATM   12  C   UNL     1     -39.330  51.220 -51.642  1.00  0.00     0.010 C 
BRANCH  11  13
HETATM   13  C   UNL     1     -41.970  55.058 -50.348  1.00  0.00     0.252 C 
HETATM   14  N   UNL     1     -41.184  55.203 -49.248  1.00  0.00    -0.366 N 
HETATM   15  H   UNL     1     -40.252  54.829 -49.171  1.00  0.00     0.159 HD
HETATM   16  H   UNL     1     -41.599  55.606 -48.417  1.00  0.00     0.159 HD
HETATM   17  O   UNL     1     -43.144  55.431 -50.333  1.00  0.00    -0.268 OA
ENDBRANCH  11  13
ENDBRANCH   2   5
BRANCH   1  18
HETATM   18  C   UNL     1     -43.503  58.033 -53.758  1.00  0.00     0.335 C 
BRANCH  18  19
HETATM   19  N   UNL     1     -42.410  58.775 -54.469  1.00  0.00    -0.057 N 
HETATM   20  H   UNL     1     -42.754  59.078 -55.396  1.00  0.00     0.278 HD
HETATM   21  H   UNL     1     -41.675  58.093 -54.722  1.00  0.00     0.278 HD
BRANCH  19  22
HETATM   22  C   UNL     1     -41.844  59.976 -53.789  1.00  0.00     0.239 C 
HETATM   23  C   UNL     1     -42.882  61.090 -53.835  1.00  0.00     0.047 C 
BRANCH  22  24
HETATM   24  C   UNL     1     -41.447  59.644 -52.390  1.00  0.00     0.082 A 
HETATM   25  O   UNL     1     -40.412  58.758 -52.252  1.00  0.00    -0.325 OA
HETATM   26  C   UNL     1     -40.197  58.604 -50.920  1.00  0.00     0.142 A 
HETATM   27  C   UNL     1     -41.065  59.390 -50.200  1.00  0.00     0.027 A 
HETATM   28  C   UNL     1     -41.873  60.066 -51.148  1.00  0.00     0.037 A 
ENDBRANCH  22  24
ENDBRANCH  19  22
ENDBRANCH  18  19
ENDBRANCH   1  18
TORSDOF 6
ENDMDL
MODEL 10
REMARK VINA RESULT:      -6.6     15.291     17.151
REMARK  6 active torsions:
REMARK  status: ('A' for Active; 'I' for Inactive)
REMARK    1  A    between atoms: C_2  and  N_3 
REMARK    2  A    between atoms: C_2  and  C_21 
REMARK    3  A    between atoms: N_3  and  C_6 
REMARK    4  A    between atoms: C_6  and  C_7 
REMARK       I    between atoms: C_7  and  N_8 
REMARK    5  A    between atoms: N_8  and  C_9 
REMARK    6  A    between atoms: C_16  and  C_17 
REMARK       I    between atoms: C_17  and  N_18 
ROOT
HETATM    1  C   UNL     1     -32.784  40.158 -55.227  1.00  0.00     0.248 C 
HETATM    2  N   UNL     1     -34.122  39.907 -55.407  1.00  0.00    -0.319 N 
HETATM    3  O   UNL     1     -31.939  40.487 -56.058  1.00  0.00    -0.271 OA
HETATM    4  H   UNL     1     -34.729  39.763 -54.596  1.00  0.00     0.169 HD
ENDROOT
BRANCH   2   5
HETATM    5  C   UNL     1     -34.832  39.950 -56.601  1.00  0.00     0.093 A 
HETATM    6  S   UNL     1     -34.718  38.692 -57.752  1.00  0.00    -0.075 SA
HETATM    7  C   UNL     1     -35.807  39.471 -58.744  1.00  0.00    -0.008 A 
HETATM    8  C   UNL     1     -36.269  40.662 -58.251  1.00  0.00    -0.026 A 
HETATM    9  C   UNL     1     -36.358  39.093 -60.067  1.00  0.00     0.047 C 
HETATM   10  C   UNL     1     -37.229  41.275 -59.209  1.00  0.00     0.041 C 
HETATM   11  C   UNL     1     -35.705  40.977 -56.980  1.00  0.00     0.072 A 
HETATM   12  C   UNL     1     -37.532  40.105 -60.195  1.00  0.00     0.010 C 
BRANCH  11  13
HETATM   13  C   UNL     1     -35.910  42.144 -56.122  1.00  0.00     0.252 C 
HETATM   14  N   UNL     1     -37.192  42.492 -55.827  1.00  0.00    -0.366 N 
HETATM   15  H   UNL     1     -38.000  42.041 -56.224  1.00  0.00     0.159 HD
HETATM   16  H   UNL     1     -37.342  43.324 -55.270  1.00  0.00     0.159 HD
HETATM   17  O   UNL     1     -34.967  42.815 -55.700  1.00  0.00    -0.268 OA
ENDBRANCH  11  13
ENDBRANCH   2   5
BRANCH   1  18
HETATM   18  C   UNL     1     -32.338  40.086 -53.767  1.00  0.00     0.335 C 
BRANCH  18  19
HETATM   19  N   UNL     1     -33.317  40.843 -52.921  1.00  0.00    -0.057 N 
HETATM   20  H   UNL     1     -34.080  41.199 -53.521  1.00  0.00     0.278 HD
HETATM   21  H   UNL     1     -32.860  41.716 -52.609  1.00  0.00     0.278 HD
BRANCH  19  22
HETATM   22  C   UNL     1     -33.949  40.111 -51.784  1.00  0.00     0.239 C 
HETATM   23  C   UNL     1     -33.454  40.726 -50.481  1.00  0.00     0.047 C 
BRANCH  22  24
HETATM   24  C   UNL     1     -35.436  40.162 -51.893  1.00  0.00     0.082 A 
HETATM   25  O   UNL     1     -35.945  40.234 -53.163  1.00  0.00    -0.325 OA
HETATM   26  C   UNL     1     -37.297  40.254 -53.047  1.00  0.00     0.142 A 
HETATM   27  C   UNL     1     -37.667  40.179 -51.725  1.00  0.00     0.027 A 
HETATM   28  C   UNL     1     -36.466  40.116 -50.977  1.00  0.00     0.037 A 
ENDBRANCH  22  24
ENDBRANCH  19  22
ENDBRANCH  18  19
ENDBRANCH   1  18
TORSDOF 6
ENDMDL
