MODEL 1
REMARK VINA RESULT:      -8.6      0.000      0.000
REMARK  3 active torsions:
REMARK  status: ('A' for Active; 'I' for Inactive)
REMARK    1  A    between atoms: C_4  and  N_5 
REMARK       I    between atoms: N_5  and  C_6 
REMARK    2  A    between atoms: C_6  and  C_7 
REMARK    3  A    between atoms: C_7  and  C_8 
ROOT
HETATM    1  C   UNL     1     -42.575  56.117 -50.490  1.00  0.00     0.286 C 
HETATM    2  N   UNL     1     -41.509  56.765 -51.375  1.00  0.00    -0.056 N 
HETATM    3  H   UNL     1     -41.337  57.706 -51.002  1.00  0.00     0.278 HD
HETATM    4  H   UNL     1     -40.609  56.264 -51.211  1.00  0.00     0.278 HD
HETATM    5  C   UNL     1     -41.832  56.829 -52.841  1.00  0.00     0.209 C 
HETATM    6  C   UNL     1     -43.192  57.546 -53.008  1.00  0.00     0.115 C 
HETATM    7  N   UNL     1     -44.223  56.906 -52.200  1.00  0.00    -0.353 N 
HETATM    8  C   UNL     1     -44.023  56.332 -50.974  1.00  0.00     0.249 C 
HETATM    9  O   UNL     1     -44.988  55.961 -50.312  1.00  0.00    -0.271 OA
HETATM   10  C   UNL     1     -40.705  57.558 -53.573  1.00  0.00     0.035 C 
HETATM   11  C   UNL     1     -40.636  59.049 -53.244  1.00  0.00     0.002 C 
HETATM   12  C   UNL     1     -41.984  59.736 -53.437  1.00  0.00     0.002 C 
HETATM   13  C   UNL     1     -43.102  59.041 -52.665  1.00  0.00     0.027 C 
HETATM   14  H   UNL     1     -45.203  57.041 -52.447  1.00  0.00     0.163 HD
ENDROOT
BRANCH   1  15
HETATM   15  C   UNL     1     -42.321  54.616 -50.273  1.00  0.00     0.146 C 
BRANCH  15  16
HETATM   16  C   UNL     1     -40.928  54.405 -49.741  1.00  0.00     0.224 C 
HETATM   17  N   UNL     1     -40.022  53.590 -50.335  1.00  0.00    -0.327 N 
HETATM   18  H   UNL     1     -39.216  53.407 -49.743  1.00  0.00     0.169 HD
HETATM   19  O   UNL     1     -40.625  54.960 -48.673  1.00  0.00    -0.273 OA
BRANCH  17  20
HETATM   20  C   UNL     1     -40.008  52.928 -51.575  1.00  0.00     0.035 A 
HETATM   21  C   UNL     1     -39.770  51.562 -51.741  1.00  0.00     0.036 A 
HETATM   22  C   UNL     1     -39.761  50.991 -53.023  1.00  0.00    -0.059 A 
HETATM   23  C   UNL     1     -39.533  49.518 -53.208  1.00  0.00     0.048 C 
HETATM   24  C   UNL     1     -40.031  51.794 -54.138  1.00  0.00     0.013 A 
HETATM   25  C   UNL     1     -40.318  53.152 -53.985  1.00  0.00    -0.059 A 
HETATM   26  C   UNL     1     -40.307  53.709 -52.700  1.00  0.00     0.036 A 
HETATM   27  C   UNL     1     -40.573  54.013 -55.189  1.00  0.00     0.048 C 
ENDBRANCH  17  20
ENDBRANCH  15  16
ENDBRANCH   1  15
TORSDOF 3
ENDMDL
MODEL 2
REMARK VINA RESULT:      -8.2      2.432      4.029
REMARK  3 active torsions:
REMARK  status: ('A' for Active; 'I' for Inactive)
REMARK    1  A    between atoms: C_4  and  N_5 
REMARK       I    between atoms: N_5  and  C_6 
REMARK    2  A    between atoms: C_6  and  C_7 
REMARK    3  A    between atoms: C_7  and  C_8 
ROOT
HETATM    1  C   UNL     1     -41.535  57.923 -53.698  1.00  0.00     0.286 C 
HETATM    2  N   UNL     1     -42.930  57.671 -53.125  1.00  0.00    -0.056 N 
HETATM    3  H   UNL     1     -43.529  58.445 -53.436  1.00  0.00     0.278 HD
HETATM    4  H   UNL     1     -43.329  56.838 -53.609  1.00  0.00     0.278 HD
HETATM    5  C   UNL     1     -43.002  57.515 -51.633  1.00  0.00     0.209 C 
HETATM    6  C   UNL     1     -42.360  58.762 -50.982  1.00  0.00     0.115 C 
HETATM    7  N   UNL     1     -41.012  58.983 -51.492  1.00  0.00    -0.353 N 
HETATM    8  C   UNL     1     -40.600  58.726 -52.772  1.00  0.00     0.249 C 
HETATM    9  O   UNL     1     -39.487  59.094 -53.137  1.00  0.00    -0.271 OA
HETATM   10  C   UNL     1     -44.461  57.336 -51.215  1.00  0.00     0.035 C 
HETATM   11  C   UNL     1     -45.301  58.601 -51.396  1.00  0.00     0.002 C 
HETATM   12  C   UNL     1     -44.656  59.811 -50.727  1.00  0.00     0.002 C 
HETATM   13  C   UNL     1     -43.215  60.023 -51.182  1.00  0.00     0.027 C 
HETATM   14  H   UNL     1     -40.357  59.538 -50.942  1.00  0.00     0.163 HD
ENDROOT
BRANCH   1  15
HETATM   15  C   UNL     1     -40.838  56.624 -54.134  1.00  0.00     0.146 C 
BRANCH  15  16
HETATM   16  C   UNL     1     -41.825  55.723 -54.829  1.00  0.00     0.224 C 
HETATM   17  N   UNL     1     -41.830  54.375 -54.683  1.00  0.00    -0.327 N 
HETATM   18  H   UNL     1     -42.420  53.912 -55.369  1.00  0.00     0.169 HD
HETATM   19  O   UNL     1     -42.629  56.243 -55.618  1.00  0.00    -0.273 OA
BRANCH  17  20
HETATM   20  C   UNL     1     -41.151  53.510 -53.806  1.00  0.00     0.035 A 
HETATM   21  C   UNL     1     -40.974  53.745 -52.442  1.00  0.00     0.036 A 
HETATM   22  C   UNL     1     -40.268  52.829 -51.647  1.00  0.00    -0.059 A 
HETATM   23  C   UNL     1     -40.096  53.062 -50.172  1.00  0.00     0.048 C 
HETATM   24  C   UNL     1     -39.772  51.654 -52.224  1.00  0.00     0.013 A 
HETATM   25  C   UNL     1     -39.981  51.381 -53.577  1.00  0.00    -0.059 A 
HETATM   26  C   UNL     1     -40.674  52.313 -54.359  1.00  0.00     0.036 A 
HETATM   27  C   UNL     1     -39.416  50.134 -54.195  1.00  0.00     0.048 C 
ENDBRANCH  17  20
ENDBRANCH  15  16
ENDBRANCH   1  15
TORSDOF 3
ENDMDL
MODEL 3
REMARK VINA RESULT:      -8.1      2.419      3.932
REMARK  3 active torsions:
REMARK  status: ('A' for Active; 'I' for Inactive)
REMARK    1  A    between atoms: C_4  and  N_5 
REMARK       I    between atoms: N_5  and  C_6 
REMARK    2  A    between atoms: C_6  and  C_7 
REMARK    3  A    between atoms: C_7  and  C_8 
ROOT
HETATM    1  C   UNL     1     -41.571  57.943 -53.686  1.00  0.00     0.286 C 
HETATM    2  N   UNL     1     -42.968  57.735 -53.099  1.00  0.00    -0.056 N 
HETATM    3  H   UNL     1     -43.545  58.529 -53.402  1.00  0.00     0.278 HD
HETATM    4  H   UNL     1     -43.399  56.916 -53.579  1.00  0.00     0.278 HD
HETATM    5  C   UNL     1     -43.029  57.579 -51.606  1.00  0.00     0.209 C 
HETATM    6  C   UNL     1     -42.341  58.804 -50.960  1.00  0.00     0.115 C 
HETATM    7  N   UNL     1     -40.992  58.982 -51.484  1.00  0.00    -0.353 N 
HETATM    8  C   UNL     1     -40.601  58.714 -52.768  1.00  0.00     0.249 C 
HETATM    9  O   UNL     1     -39.482  59.046 -53.144  1.00  0.00    -0.271 OA
HETATM   10  C   UNL     1     -44.489  57.447 -51.173  1.00  0.00     0.035 C 
HETATM   11  C   UNL     1     -45.290  58.738 -51.344  1.00  0.00     0.002 C 
HETATM   12  C   UNL     1     -44.600  59.926 -50.681  1.00  0.00     0.002 C 
HETATM   13  C   UNL     1     -43.157  60.092 -51.150  1.00  0.00     0.027 C 
HETATM   14  H   UNL     1     -40.314  59.515 -50.940  1.00  0.00     0.163 HD
ENDROOT
BRANCH   1  15
HETATM   15  C   UNL     1     -40.921  56.623 -54.130  1.00  0.00     0.146 C 
BRANCH  15  16
HETATM   16  C   UNL     1     -41.941  55.760 -54.827  1.00  0.00     0.224 C 
HETATM   17  N   UNL     1     -41.929  54.405 -54.770  1.00  0.00    -0.327 N 
HETATM   18  H   UNL     1     -42.555  53.983 -55.451  1.00  0.00     0.169 HD
HETATM   19  O   UNL     1     -42.791  56.324 -55.534  1.00  0.00    -0.273 OA
BRANCH  17  20
HETATM   20  C   UNL     1     -41.198  53.492 -53.992  1.00  0.00     0.035 A 
HETATM   21  C   UNL     1     -40.690  52.280 -54.462  1.00  0.00     0.036 A 
HETATM   22  C   UNL     1     -39.981  51.423 -53.605  1.00  0.00    -0.059 A 
HETATM   23  C   UNL     1     -39.408  50.129 -54.111  1.00  0.00     0.048 C 
HETATM   24  C   UNL     1     -39.753  51.809 -52.279  1.00  0.00     0.013 A 
HETATM   25  C   UNL     1     -40.213  53.039 -51.806  1.00  0.00    -0.059 A 
HETATM   26  C   UNL     1     -40.931  53.875 -52.670  1.00  0.00     0.036 A 
HETATM   27  C   UNL     1     -39.993  53.430 -50.372  1.00  0.00     0.048 C 
ENDBRANCH  17  20
ENDBRANCH  15  16
ENDBRANCH   1  15
TORSDOF 3
ENDMDL
MODEL 4
REMARK VINA RESULT:      -8.0      1.394      5.775
REMARK  3 active torsions:
REMARK  status: ('A' for Active; 'I' for Inactive)
REMARK    1  A    between atoms: C_4  and  N_5 
REMARK       I    between atoms: N_5  and  C_6 
REMARK    2  A    between atoms: C_6  and  C_7 
REMARK    3  A    between atoms: C_7  and  C_8 
ROOT
HETATM    1  C   UNL     1     -42.191  54.309 -50.691  1.00  0.00     0.286 C 
HETATM    2  N   UNL     1     -41.916  53.876 -52.132  1.00  0.00    -0.056 N 
HETATM    3  H   UNL     1     -42.281  52.922 -52.237  1.00  0.00     0.278 HD
HETATM    4  H   UNL     1     -42.524  54.445 -52.759  1.00  0.00     0.278 HD
HETATM    5  C   UNL     1     -40.480  53.941 -52.568  1.00  0.00     0.209 C 
HETATM    6  C   UNL     1     -39.633  53.111 -51.576  1.00  0.00     0.115 C 
HETATM    7  N   UNL     1     -39.856  53.547 -50.204  1.00  0.00    -0.353 N 
HETATM    8  C   UNL     1     -41.048  54.000 -49.703  1.00  0.00     0.249 C 
HETATM    9  O   UNL     1     -41.165  54.194 -48.497  1.00  0.00    -0.271 OA
HETATM   10  C   UNL     1     -40.365  53.418 -54.000  1.00  0.00     0.035 C 
HETATM   11  C   UNL     1     -40.616  51.914 -54.116  1.00  0.00     0.002 C 
HETATM   12  C   UNL     1     -39.753  51.118 -53.143  1.00  0.00     0.002 C 
HETATM   13  C   UNL     1     -39.906  51.604 -51.704  1.00  0.00     0.027 C 
HETATM   14  H   UNL     1     -39.153  53.340 -49.495  1.00  0.00     0.163 HD
ENDROOT
BRANCH   1  15
HETATM   15  C   UNL     1     -42.573  55.794 -50.589  1.00  0.00     0.146 C 
BRANCH  15  16
HETATM   16  C   UNL     1     -44.025  55.974 -50.948  1.00  0.00     0.224 C 
HETATM   17  N   UNL     1     -44.438  56.542 -52.108  1.00  0.00    -0.327 N 
HETATM   18  H   UNL     1     -45.429  56.766 -52.099  1.00  0.00     0.169 HD
HETATM   19  O   UNL     1     -44.875  55.639 -50.108  1.00  0.00    -0.273 OA
BRANCH  17  20
HETATM   20  C   UNL     1     -43.758  56.910 -53.282  1.00  0.00     0.035 A 
HETATM   21  C   UNL     1     -43.224  58.177 -53.523  1.00  0.00     0.036 A 
HETATM   22  C   UNL     1     -42.572  58.457 -54.734  1.00  0.00    -0.059 A 
HETATM   23  C   UNL     1     -41.971  59.810 -54.990  1.00  0.00     0.048 C 
HETATM   24  C   UNL     1     -42.425  57.444 -55.689  1.00  0.00     0.013 A 
HETATM   25  C   UNL     1     -42.912  56.158 -55.443  1.00  0.00    -0.059 A 
HETATM   26  C   UNL     1     -43.573  55.900 -54.236  1.00  0.00     0.036 A 
HETATM   27  C   UNL     1     -42.780  55.086 -56.487  1.00  0.00     0.048 C 
ENDBRANCH  17  20
ENDBRANCH  15  16
ENDBRANCH   1  15
TORSDOF 3
ENDMDL
MODEL 5
REMARK VINA RESULT:      -7.8      2.819      3.979
REMARK  3 active torsions:
REMARK  status: ('A' for Active; 'I' for Inactive)
REMARK    1  A    between atoms: C_4  and  N_5 
REMARK       I    between atoms: N_5  and  C_6 
REMARK    2  A    between atoms: C_6  and  C_7 
REMARK    3  A    between atoms: C_7  and  C_8 
ROOT
HETATM    1  C   UNL     1     -42.163  57.038 -54.154  1.00  0.00     0.286 C 
HETATM    2  N   UNL     1     -41.555  57.261 -52.768  1.00  0.00    -0.056 N 
HETATM    3  H   UNL     1     -42.334  57.397 -52.113  1.00  0.00     0.278 HD
HETATM    4  H   UNL     1     -41.124  56.364 -52.459  1.00  0.00     0.278 HD
HETATM    5  C   UNL     1     -40.575  58.395 -52.663  1.00  0.00     0.209 C 
HETATM    6  C   UNL     1     -41.264  59.682 -53.172  1.00  0.00     0.115 C 
HETATM    7  N   UNL     1     -41.809  59.490 -54.510  1.00  0.00    -0.353 N 
HETATM    8  C   UNL     1     -42.347  58.324 -54.984  1.00  0.00     0.249 C 
HETATM    9  O   UNL     1     -42.918  58.316 -56.071  1.00  0.00    -0.271 OA
HETATM   10  C   UNL     1     -40.111  58.527 -51.213  1.00  0.00     0.035 C 
HETATM   11  C   UNL     1     -41.207  59.027 -50.271  1.00  0.00     0.002 C 
HETATM   12  C   UNL     1     -41.856  60.308 -50.785  1.00  0.00     0.002 C 
HETATM   13  C   UNL     1     -42.367  60.163 -52.215  1.00  0.00     0.027 C 
HETATM   14  H   UNL     1     -41.988  60.305 -55.096  1.00  0.00     0.163 HD
ENDROOT
BRANCH   1  15
HETATM   15  C   UNL     1     -41.382  56.001 -54.975  1.00  0.00     0.146 C 
BRANCH  15  16
HETATM   16  C   UNL     1     -42.299  54.879 -55.387  1.00  0.00     0.224 C 
HETATM   17  N   UNL     1     -42.130  53.595 -54.983  1.00  0.00    -0.327 N 
HETATM   18  H   UNL     1     -42.707  52.944 -55.508  1.00  0.00     0.169 HD
HETATM   19  O   UNL     1     -43.214  55.141 -56.184  1.00  0.00    -0.273 OA
BRANCH  17  20
HETATM   20  C   UNL     1     -41.291  53.003 -54.023  1.00  0.00     0.035 A 
HETATM   21  C   UNL     1     -41.059  53.520 -52.747  1.00  0.00     0.036 A 
HETATM   22  C   UNL     1     -40.192  52.865 -51.860  1.00  0.00    -0.059 A 
HETATM   23  C   UNL     1     -39.958  53.400 -50.475  1.00  0.00     0.048 C 
HETATM   24  C   UNL     1     -39.586  51.664 -52.248  1.00  0.00     0.013 A 
HETATM   25  C   UNL     1     -39.844  51.108 -53.503  1.00  0.00    -0.059 A 
HETATM   26  C   UNL     1     -40.700  51.784 -54.381  1.00  0.00     0.036 A 
HETATM   27  C   UNL     1     -39.163  49.838 -53.923  1.00  0.00     0.048 C 
ENDBRANCH  17  20
ENDBRANCH  15  16
ENDBRANCH   1  15
TORSDOF 3
ENDMDL
MODEL 6
REMARK VINA RESULT:      -7.8      2.202      3.528
REMARK  3 active torsions:
REMARK  status: ('A' for Active; 'I' for Inactive)
REMARK    1  A    between atoms: C_4  and  N_5 
REMARK       I    between atoms: N_5  and  C_6 
REMARK    2  A    between atoms: C_6  and  C_7 
REMARK    3  A    between atoms: C_7  and  C_8 
ROOT
HETATM    1  C   UNL     1     -42.993  56.609 -52.973  1.00  0.00     0.286 C 
HETATM    2  N   UNL     1     -43.417  57.961 -53.549  1.00  0.00    -0.056 N 
HETATM    3  H   UNL     1     -42.779  58.667 -53.165  1.00  0.00     0.278 HD
HETATM    4  H   UNL     1     -43.200  57.956 -54.569  1.00  0.00     0.278 HD
HETATM    5  C   UNL     1     -44.847  58.352 -53.303  1.00  0.00     0.209 C 
HETATM    6  C   UNL     1     -45.110  58.299 -51.780  1.00  0.00     0.115 C 
HETATM    7  N   UNL     1     -44.749  56.998 -51.232  1.00  0.00    -0.353 N 
HETATM    8  C   UNL     1     -43.707  56.221 -51.662  1.00  0.00     0.249 C 
HETATM    9  O   UNL     1     -43.396  55.217 -51.029  1.00  0.00    -0.271 OA
HETATM   10  C   UNL     1     -45.093  59.746 -53.880  1.00  0.00     0.035 C 
HETATM   11  C   UNL     1     -44.371  60.854 -53.113  1.00  0.00     0.002 C 
HETATM   12  C   UNL     1     -44.665  60.792 -51.617  1.00  0.00     0.002 C 
HETATM   13  C   UNL     1     -44.370  59.416 -51.027  1.00  0.00     0.027 C 
HETATM   14  H   UNL     1     -45.159  56.700 -50.347  1.00  0.00     0.163 HD
ENDROOT
BRANCH   1  15
HETATM   15  C   UNL     1     -43.134  55.468 -53.993  1.00  0.00     0.146 C 
BRANCH  15  16
HETATM   16  C   UNL     1     -41.975  55.496 -54.955  1.00  0.00     0.224 C 
HETATM   17  N   UNL     1     -40.852  54.754 -54.785  1.00  0.00    -0.327 N 
HETATM   18  H   UNL     1     -40.099  55.042 -55.405  1.00  0.00     0.169 HD
HETATM   19  O   UNL     1     -42.034  56.285 -55.911  1.00  0.00    -0.273 OA
BRANCH  17  20
HETATM   20  C   UNL     1     -40.526  53.711 -53.901  1.00  0.00     0.035 A 
HETATM   21  C   UNL     1     -40.511  53.827 -52.510  1.00  0.00     0.036 A 
HETATM   22  C   UNL     1     -40.157  52.732 -51.708  1.00  0.00    -0.059 A 
HETATM   23  C   UNL     1     -40.166  52.841 -50.209  1.00  0.00     0.048 C 
HETATM   24  C   UNL     1     -39.854  51.505 -52.310  1.00  0.00     0.013 A 
HETATM   25  C   UNL     1     -39.910  51.359 -53.697  1.00  0.00    -0.059 A 
HETATM   26  C   UNL     1     -40.250  52.466 -54.484  1.00  0.00     0.036 A 
HETATM   27  C   UNL     1     -39.550  50.048 -54.336  1.00  0.00     0.048 C 
ENDBRANCH  17  20
ENDBRANCH  15  16
ENDBRANCH   1  15
TORSDOF 3
ENDMDL
MODEL 7
REMARK VINA RESULT:      -7.6     14.714     17.102
REMARK  3 active torsions:
REMARK  status: ('A' for Active; 'I' for Inactive)
REMARK    1  A    between atoms: C_4  and  N_5 
REMARK       I    between atoms: N_5  and  C_6 
REMARK    2  A    between atoms: C_6  and  C_7 
REMARK    3  A    between atoms: C_7  and  C_8 
ROOT
HETATM    1  C   UNL     1     -34.126  40.935 -53.589  1.00  0.00     0.286 C 
HETATM    2  N   UNL     1     -34.443  40.479 -52.163  1.00  0.00    -0.056 N 
HETATM    3  H   UNL     1     -34.058  41.187 -51.527  1.00  0.00     0.278 HD
HETATM    4  H   UNL     1     -35.474  40.555 -52.025  1.00  0.00     0.278 HD
HETATM    5  C   UNL     1     -33.948  39.111 -51.793  1.00  0.00     0.209 C 
HETATM    6  C   UNL     1     -32.426  39.056 -52.059  1.00  0.00     0.115 C 
HETATM    7  N   UNL     1     -32.120  39.447 -53.430  1.00  0.00    -0.353 N 
HETATM    8  C   UNL     1     -32.796  40.395 -54.150  1.00  0.00     0.249 C 
HETATM    9  O   UNL     1     -32.358  40.757 -55.238  1.00  0.00    -0.271 OA
HETATM   10  C   UNL     1     -34.285  38.833 -50.328  1.00  0.00     0.035 C 
HETATM   11  C   UNL     1     -33.479  39.688 -49.350  1.00  0.00     0.002 C 
HETATM   12  C   UNL     1     -31.980  39.600 -49.621  1.00  0.00     0.002 C 
HETATM   13  C   UNL     1     -31.635  39.928 -51.070  1.00  0.00     0.027 C 
HETATM   14  H   UNL     1     -31.237  39.152 -53.845  1.00  0.00     0.163 HD
ENDROOT
BRANCH   1  15
HETATM   15  C   UNL     1     -35.266  40.619 -54.571  1.00  0.00     0.146 C 
BRANCH  15  16
HETATM   16  C   UNL     1     -36.336  41.674 -54.469  1.00  0.00     0.224 C 
HETATM   17  N   UNL     1     -37.152  42.006 -55.500  1.00  0.00    -0.327 N 
HETATM   18  H   UNL     1     -37.670  42.863 -55.325  1.00  0.00     0.169 HD
HETATM   19  O   UNL     1     -36.426  42.308 -53.405  1.00  0.00    -0.273 OA
BRANCH  17  20
HETATM   20  C   UNL     1     -37.380  41.423 -56.758  1.00  0.00     0.035 A 
HETATM   21  C   UNL     1     -37.736  40.088 -56.960  1.00  0.00     0.036 A 
HETATM   22  C   UNL     1     -37.930  39.590 -58.257  1.00  0.00    -0.059 A 
HETATM   23  C   UNL     1     -38.340  38.162 -58.481  1.00  0.00     0.048 C 
HETATM   24  C   UNL     1     -37.800  40.452 -59.353  1.00  0.00     0.013 A 
HETATM   25  C   UNL     1     -37.491  41.801 -59.166  1.00  0.00    -0.059 A 
HETATM   26  C   UNL     1     -37.286  42.277 -57.866  1.00  0.00     0.036 A 
HETATM   27  C   UNL     1     -37.321  42.710 -60.350  1.00  0.00     0.048 C 
ENDBRANCH  17  20
ENDBRANCH  15  16
ENDBRANCH   1  15
TORSDOF 3
ENDMDL
MODEL 8
REMARK VINA RESULT:      -7.5      1.864      6.435
REMARK  3 active torsions:
REMARK  status: ('A' for Active; 'I' for Inactive)
REMARK    1  A    between atoms: C_4  and  N_5 
REMARK       I    between atoms: N_5  and  C_6 
REMARK    2  A    between atoms: C_6  and  C_7 
REMARK    3  A    between atoms: C_7  and  C_8 
ROOT
HETATM    1  C   UNL     1     -42.457  53.923 -50.997  1.00  0.00     0.286 C 
HETATM    2  N   UNL     1     -42.035  53.553 -52.420  1.00  0.00    -0.056 N 
HETATM    3  H   UNL     1     -42.223  52.551 -52.541  1.00  0.00     0.278 HD
HETATM    4  H   UNL     1     -42.698  54.012 -53.080  1.00  0.00     0.278 HD
HETATM    5  C   UNL     1     -40.611  53.869 -52.778  1.00  0.00     0.209 C 
HETATM    6  C   UNL     1     -39.687  53.192 -51.740  1.00  0.00     0.115 C 
HETATM    7  N   UNL     1     -40.056  53.574 -50.383  1.00  0.00    -0.353 N 
HETATM    8  C   UNL     1     -41.333  53.811 -49.948  1.00  0.00     0.249 C 
HETATM    9  O   UNL     1     -41.546  53.974 -48.751  1.00  0.00    -0.271 OA
HETATM   10  C   UNL     1     -40.330  53.382 -54.200  1.00  0.00     0.035 C 
HETATM   11  C   UNL     1     -40.310  51.859 -54.325  1.00  0.00     0.002 C 
HETATM   12  C   UNL     1     -39.375  51.218 -53.304  1.00  0.00     0.002 C 
HETATM   13  C   UNL     1     -39.687  51.661 -51.878  1.00  0.00     0.027 C 
HETATM   14  H   UNL     1     -39.366  53.488 -49.637  1.00  0.00     0.163 HD
ENDROOT
BRANCH   1  15
HETATM   15  C   UNL     1     -43.096  55.319 -50.921  1.00  0.00     0.146 C 
BRANCH  15  16
HETATM   16  C   UNL     1     -43.214  55.903 -52.304  1.00  0.00     0.224 C 
HETATM   17  N   UNL     1     -42.891  57.187 -52.598  1.00  0.00    -0.327 N 
HETATM   18  H   UNL     1     -43.218  57.469 -53.518  1.00  0.00     0.169 HD
HETATM   19  O   UNL     1     -43.690  55.185 -53.198  1.00  0.00    -0.273 OA
BRANCH  17  20
HETATM   20  C   UNL     1     -42.239  58.194 -51.866  1.00  0.00     0.035 A 
HETATM   21  C   UNL     1     -40.860  58.255 -51.658  1.00  0.00     0.036 A 
HETATM   22  C   UNL     1     -40.299  59.295 -50.900  1.00  0.00    -0.059 A 
HETATM   23  C   UNL     1     -38.813  59.382 -50.693  1.00  0.00     0.048 C 
HETATM   24  C   UNL     1     -41.129  60.297 -50.382  1.00  0.00     0.013 A 
HETATM   25  C   UNL     1     -42.504  60.277 -50.622  1.00  0.00    -0.059 A 
HETATM   26  C   UNL     1     -43.049  59.224 -51.367  1.00  0.00     0.036 A 
HETATM   27  C   UNL     1     -43.391  61.337 -50.035  1.00  0.00     0.048 C 
ENDBRANCH  17  20
ENDBRANCH  15  16
ENDBRANCH   1  15
TORSDOF 3
ENDMDL
MODEL 9
REMARK VINA RESULT:      -7.5      3.744      5.196
REMARK  3 active torsions:
REMARK  status: ('A' for Active; 'I' for Inactive)
REMARK    1  A    between atoms: C_4  and  N_5 
REMARK       I    between atoms: N_5  and  C_6 
REMARK    2  A    between atoms: C_6  and  C_7 
REMARK    3  A    between atoms: C_7  and  C_8 
ROOT
HETATM    1  C   UNL     1     -43.571  56.540 -55.275  1.00  0.00     0.286 C 
HETATM    2  N   UNL     1     -44.734  57.292 -55.924  1.00  0.00    -0.056 N 
HETATM    3  H   UNL     1     -45.387  56.587 -56.286  1.00  0.00     0.278 HD
HETATM    4  H   UNL     1     -45.273  57.764 -55.166  1.00  0.00     0.278 HD
HETATM    5  C   UNL     1     -44.357  58.265 -57.005  1.00  0.00     0.209 C 
HETATM    6  C   UNL     1     -43.530  57.510 -58.071  1.00  0.00     0.115 C 
HETATM    7  N   UNL     1     -42.395  56.826 -57.466  1.00  0.00    -0.353 N 
HETATM    8  C   UNL     1     -42.389  56.253 -56.223  1.00  0.00     0.249 C 
HETATM    9  O   UNL     1     -41.432  55.568 -55.874  1.00  0.00    -0.271 OA
HETATM   10  C   UNL     1     -45.627  58.881 -57.592  1.00  0.00     0.035 C 
HETATM   11  C   UNL     1     -46.463  57.889 -58.400  1.00  0.00     0.002 C 
HETATM   12  C   UNL     1     -45.629  57.174 -59.459  1.00  0.00     0.002 C 
HETATM   13  C   UNL     1     -44.388  56.512 -58.866  1.00  0.00     0.027 C 
HETATM   14  H   UNL     1     -41.597  56.576 -58.049  1.00  0.00     0.163 HD
ENDROOT
BRANCH   1  15
HETATM   15  C   UNL     1     -43.057  57.239 -54.007  1.00  0.00     0.146 C 
BRANCH  15  16
HETATM   16  C   UNL     1     -43.879  56.812 -52.819  1.00  0.00     0.224 C 
HETATM   17  N   UNL     1     -43.587  55.720 -52.070  1.00  0.00    -0.327 N 
HETATM   18  H   UNL     1     -44.346  55.464 -51.443  1.00  0.00     0.169 HD
HETATM   19  O   UNL     1     -44.904  57.461 -52.559  1.00  0.00    -0.273 OA
BRANCH  17  20
HETATM   20  C   UNL     1     -42.472  54.865 -52.027  1.00  0.00     0.035 A 
HETATM   21  C   UNL     1     -42.128  53.962 -53.034  1.00  0.00     0.036 A 
HETATM   22  C   UNL     1     -41.001  53.137 -52.896  1.00  0.00    -0.059 A 
HETATM   23  C   UNL     1     -40.608  52.181 -53.988  1.00  0.00     0.048 C 
HETATM   24  C   UNL     1     -40.198  53.250 -51.755  1.00  0.00     0.013 A 
HETATM   25  C   UNL     1     -40.501  54.182 -50.760  1.00  0.00    -0.059 A 
HETATM   26  C   UNL     1     -41.638  54.986 -50.907  1.00  0.00     0.036 A 
HETATM   27  C   UNL     1     -39.654  54.274 -49.524  1.00  0.00     0.048 C 
ENDBRANCH  17  20
ENDBRANCH  15  16
ENDBRANCH   1  15
TORSDOF 3
ENDMDL
MODEL 10
REMARK VINA RESULT:      -7.4      1.638      6.592
REMARK  3 active torsions:
REMARK  status: ('A' for Active; 'I' for Inactive)
REMARK    1  A    between atoms: C_4  and  N_5 
REMARK       I    between atoms: N_5  and  C_6 
REMARK    2  A    between atoms: C_6  and  C_7 
REMARK    3  A    between atoms: C_7  and  C_8 
ROOT
HETATM    1  C   UNL     1     -42.206  54.113 -50.883  1.00  0.00     0.286 C 
HETATM    2  N   UNL     1     -41.879  53.628 -52.297  1.00  0.00    -0.056 N 
HETATM    3  H   UNL     1     -42.216  52.661 -52.371  1.00  0.00     0.278 HD
HETATM    4  H   UNL     1     -42.483  54.154 -52.964  1.00  0.00     0.278 HD
HETATM    5  C   UNL     1     -40.433  53.715 -52.695  1.00  0.00     0.209 C 
HETATM    6  C   UNL     1     -39.593  52.950 -51.646  1.00  0.00     0.115 C 
HETATM    7  N   UNL     1     -39.868  53.436 -50.300  1.00  0.00    -0.353 N 
HETATM    8  C   UNL     1     -41.085  53.877 -49.852  1.00  0.00     0.249 C 
HETATM    9  O   UNL     1     -41.242  54.117 -48.659  1.00  0.00    -0.271 OA
HETATM   10  C   UNL     1     -40.262  53.136 -54.099  1.00  0.00     0.035 C 
HETATM   11  C   UNL     1     -40.471  51.623 -54.159  1.00  0.00     0.002 C 
HETATM   12  C   UNL     1     -39.616  50.891 -53.130  1.00  0.00     0.002 C 
HETATM   13  C   UNL     1     -39.823  51.432 -51.718  1.00  0.00     0.027 C 
HETATM   14  H   UNL     1     -39.180  53.278 -49.564  1.00  0.00     0.163 HD
ENDROOT
BRANCH   1  15
HETATM   15  C   UNL     1     -42.630  55.590 -50.855  1.00  0.00     0.146 C 
BRANCH  15  16
HETATM   16  C   UNL     1     -44.124  55.690 -50.692  1.00  0.00     0.224 C 
HETATM   17  N   UNL     1     -44.859  56.714 -51.194  1.00  0.00    -0.327 N 
HETATM   18  H   UNL     1     -45.805  56.730 -50.824  1.00  0.00     0.169 HD
HETATM   19  O   UNL     1     -44.693  54.821 -50.012  1.00  0.00    -0.273 OA
BRANCH  17  20
HETATM   20  C   UNL     1     -44.550  57.761 -52.078  1.00  0.00     0.035 A 
HETATM   21  C   UNL     1     -44.633  57.674 -53.469  1.00  0.00     0.036 A 
HETATM   22  C   UNL     1     -44.290  58.771 -54.274  1.00  0.00    -0.059 A 
HETATM   23  C   UNL     1     -44.403  58.694 -55.770  1.00  0.00     0.048 C 
HETATM   24  C   UNL     1     -43.898  59.973 -53.671  1.00  0.00     0.013 A 
HETATM   25  C   UNL     1     -43.855  60.092 -52.280  1.00  0.00    -0.059 A 
HETATM   26  C   UNL     1     -44.186  58.982 -51.493  1.00  0.00     0.036 A 
HETATM   27  C   UNL     1     -43.401  61.374 -51.643  1.00  0.00     0.048 C 
ENDBRANCH  17  20
ENDBRANCH  15  16
ENDBRANCH   1  15
TORSDOF 3
ENDMDL
