MODEL 1
REMARK VINA RESULT:      -8.9      0.000      0.000
REMARK  7 active torsions:
REMARK  status: ('A' for Active; 'I' for Inactive)
REMARK    1  A    between atoms: O_2  and  C_3 
REMARK    2  A    between atoms: C_4  and  C_5 
REMARK    3  A    between atoms: N_10  and  C_12 
REMARK    4  A    between atoms: C_12  and  C_13 
REMARK       I    between atoms: C_13  and  N_14 
REMARK    5  A    between atoms: N_14  and  C_15 
REMARK    6  A    between atoms: C_15  and  C_16 
REMARK    7  A    between atoms: C_16  and  C_17 
ROOT
HETATM    1  C   UNL     1     -41.752  54.456 -53.585  1.00  0.00     0.190 C 
HETATM    2  O   UNL     1     -43.035  54.283 -52.958  1.00  0.00    -0.339 OA
HETATM    3  C   UNL     1     -43.579  55.502 -52.654  1.00  0.00     0.077 A 
HETATM    4  C   UNL     1     -44.043  56.348 -53.667  1.00  0.00     0.001 A 
HETATM    5  C   UNL     1     -44.008  55.915 -55.102  1.00  0.00     0.276 C 
HETATM    6  N   UNL     1     -42.615  55.720 -55.639  1.00  0.00    -0.056 N 
HETATM    7  H   UNL     1     -42.041  56.521 -55.325  1.00  0.00     0.280 HD
HETATM    8  C   UNL     1     -41.928  54.451 -55.120  1.00  0.00     0.273 C 
HETATM    9  C   UNL     1     -43.668  55.858 -51.311  1.00  0.00     0.037 A 
HETATM   10  C   UNL     1     -44.194  57.099 -50.962  1.00  0.00     0.003 A 
HETATM   11  C   UNL     1     -44.639  57.969 -51.957  1.00  0.00     0.001 A 
HETATM   12  C   UNL     1     -44.570  57.596 -53.302  1.00  0.00     0.012 A 
ENDROOT
BRANCH   6  13
HETATM   13  C   UNL     1     -42.565  55.784 -57.164  1.00  0.00     0.337 C 
BRANCH  13  14
HETATM   14  C   UNL     1     -43.107  57.128 -57.649  1.00  0.00     0.243 C 
HETATM   15  N   UNL     1     -42.483  58.242 -57.146  1.00  0.00    -0.359 N 
HETATM   16  H   UNL     1     -41.872  58.141 -56.340  1.00  0.00     0.162 HD
HETATM   17  O   UNL     1     -44.108  57.155 -58.365  1.00  0.00    -0.272 OA
BRANCH  15  18
HETATM   18  C   UNL     1     -43.092  59.557 -57.269  1.00  0.00     0.130 C 
BRANCH  18  19
HETATM   19  C   UNL     1     -42.266  60.655 -56.597  1.00  0.00     0.098 C 
BRANCH  19  20
HETATM   20  C   UNL     1     -42.109  60.424 -55.108  1.00  0.00     0.109 A 
HETATM   21  N   UNL     1     -41.486  59.376 -54.655  1.00  0.00    -0.234 NA
HETATM   22  C   UNL     1     -41.380  59.241 -53.254  1.00  0.00     0.074 A 
HETATM   23  C   UNL     1     -41.949  60.155 -52.361  1.00  0.00     0.061 A 
HETATM   24  C   UNL     1     -40.670  58.158 -52.731  1.00  0.00     0.032 A 
HETATM   25  C   UNL     1     -42.678  61.297 -52.932  1.00  0.00     0.259 A 
HETATM   26  C   UNL     1     -41.824  60.002 -50.977  1.00  0.00     0.019 A 
HETATM   27  O   UNL     1     -43.234  62.137 -52.236  1.00  0.00    -0.267 OA
HETATM   28  N   UNL     1     -42.694  61.361 -54.301  1.00  0.00    -0.311 N 
HETATM   29  H   UNL     1     -43.199  62.151 -54.680  1.00  0.00     0.170 HD
HETATM   30  C   UNL     1     -41.114  58.917 -50.472  1.00  0.00     0.001 A 
HETATM   31  C   UNL     1     -40.536  57.995 -51.347  1.00  0.00     0.002 A 
ENDBRANCH  19  20
ENDBRANCH  18  19
ENDBRANCH  15  18
ENDBRANCH  13  14
ENDBRANCH   6  13
BRANCH   1  32
HETATM   32  C   UNL     1     -40.853  53.324 -53.109  1.00  0.00     0.006 A 
HETATM   33  C   UNL     1     -40.320  53.341 -51.803  1.00  0.00     0.077 A 
HETATM   34  C   UNL     1     -39.483  52.303 -51.379  1.00  0.00     0.037 A 
HETATM   35  C   UNL     1     -39.186  51.240 -52.232  1.00  0.00     0.003 A 
HETATM   36  C   UNL     1     -39.731  51.198 -53.510  1.00  0.00     0.001 A 
HETATM   37  C   UNL     1     -40.567  52.226 -53.944  1.00  0.00     0.012 A 
BRANCH  33  38
HETATM   38  O   UNL     1     -40.657  54.420 -51.027  1.00  0.00    -0.355 OA
HETATM   39  C   UNL     1     -39.945  54.591 -49.805  1.00  0.00     0.210 C 
ENDBRANCH  33  38
ENDBRANCH   1  32
TORSDOF 7
ENDMDL
MODEL 2
REMARK VINA RESULT:      -7.7      2.642      4.641
REMARK  7 active torsions:
REMARK  status: ('A' for Active; 'I' for Inactive)
REMARK    1  A    between atoms: O_2  and  C_3 
REMARK    2  A    between atoms: C_4  and  C_5 
REMARK    3  A    between atoms: N_10  and  C_12 
REMARK    4  A    between atoms: C_12  and  C_13 
REMARK       I    between atoms: C_13  and  N_14 
REMARK    5  A    between atoms: N_14  and  C_15 
REMARK    6  A    between atoms: C_15  and  C_16 
REMARK    7  A    between atoms: C_16  and  C_17 
ROOT
HETATM    1  C   UNL     1     -41.692  53.896 -53.802  1.00  0.00     0.190 C 
HETATM    2  O   UNL     1     -42.858  53.839 -52.961  1.00  0.00    -0.339 OA
HETATM    3  C   UNL     1     -43.161  55.088 -52.490  1.00  0.00     0.077 A 
HETATM    4  C   UNL     1     -43.667  56.070 -53.346  1.00  0.00     0.001 A 
HETATM    5  C   UNL     1     -43.943  55.761 -54.787  1.00  0.00     0.276 C 
HETATM    6  N   UNL     1     -42.707  55.433 -55.581  1.00  0.00    -0.056 N 
HETATM    7  H   UNL     1     -41.979  56.123 -55.330  1.00  0.00     0.280 HD
HETATM    8  C   UNL     1     -42.130  54.046 -55.275  1.00  0.00     0.273 C 
HETATM    9  C   UNL     1     -42.964  55.336 -51.133  1.00  0.00     0.037 A 
HETATM   10  C   UNL     1     -43.238  56.600 -50.620  1.00  0.00     0.003 A 
HETATM   11  C   UNL     1     -43.719  57.603 -51.461  1.00  0.00     0.001 A 
HETATM   12  C   UNL     1     -43.938  57.341 -52.816  1.00  0.00     0.012 A 
ENDROOT
BRANCH   6  13
HETATM   13  C   UNL     1     -42.913  55.620 -57.083  1.00  0.00     0.337 C 
BRANCH  13  14
HETATM   14  C   UNL     1     -43.447  57.024 -57.366  1.00  0.00     0.243 C 
HETATM   15  N   UNL     1     -44.443  57.107 -58.307  1.00  0.00    -0.359 N 
HETATM   16  H   UNL     1     -44.617  56.308 -58.911  1.00  0.00     0.162 HD
HETATM   17  O   UNL     1     -42.912  57.995 -56.832  1.00  0.00    -0.272 OA
BRANCH  15  18
HETATM   18  C   UNL     1     -44.808  58.387 -58.894  1.00  0.00     0.130 C 
BRANCH  18  19
HETATM   19  C   UNL     1     -44.093  58.653 -60.220  1.00  0.00     0.098 C 
BRANCH  19  20
HETATM   20  C   UNL     1     -43.024  59.718 -60.091  1.00  0.00     0.109 A 
HETATM   21  N   UNL     1     -42.565  60.338 -61.138  1.00  0.00    -0.234 NA
HETATM   22  C   UNL     1     -41.573  61.319 -60.927  1.00  0.00     0.074 A 
HETATM   23  C   UNL     1     -41.051  61.607 -59.661  1.00  0.00     0.061 A 
HETATM   24  C   UNL     1     -41.097  62.046 -62.021  1.00  0.00     0.032 A 
HETATM   25  C   UNL     1     -41.577  60.844 -58.520  1.00  0.00     0.259 A 
HETATM   26  C   UNL     1     -40.073  62.590 -59.478  1.00  0.00     0.019 A 
HETATM   27  O   UNL     1     -41.167  61.002 -57.378  1.00  0.00    -0.267 OA
HETATM   28  N   UNL     1     -42.563  59.940 -58.821  1.00  0.00    -0.311 N 
HETATM   29  H   UNL     1     -42.916  59.422 -58.027  1.00  0.00     0.170 HD
HETATM   30  C   UNL     1     -39.609  63.304 -60.579  1.00  0.00     0.001 A 
HETATM   31  C   UNL     1     -40.120  63.034 -61.850  1.00  0.00     0.002 A 
ENDBRANCH  19  20
ENDBRANCH  18  19
ENDBRANCH  15  18
ENDBRANCH  13  14
ENDBRANCH   6  13
BRANCH   1  32
HETATM   32  C   UNL     1     -40.896  52.620 -53.568  1.00  0.00     0.006 A 
HETATM   33  C   UNL     1     -40.079  52.491 -52.425  1.00  0.00     0.077 A 
HETATM   34  C   UNL     1     -39.340  51.320 -52.227  1.00  0.00     0.037 A 
HETATM   35  C   UNL     1     -39.420  50.269 -53.140  1.00  0.00     0.003 A 
HETATM   36  C   UNL     1     -40.246  50.373 -54.253  1.00  0.00     0.001 A 
HETATM   37  C   UNL     1     -40.987  51.535 -54.462  1.00  0.00     0.012 A 
BRANCH  33  38
HETATM   38  O   UNL     1     -40.053  53.567 -51.577  1.00  0.00    -0.355 OA
HETATM   39  C   UNL     1     -40.114  53.296 -50.180  1.00  0.00     0.210 C 
ENDBRANCH  33  38
ENDBRANCH   1  32
TORSDOF 7
ENDMDL
MODEL 3
REMARK VINA RESULT:      -7.7      2.716      8.201
REMARK  7 active torsions:
REMARK  status: ('A' for Active; 'I' for Inactive)
REMARK    1  A    between atoms: O_2  and  C_3 
REMARK    2  A    between atoms: C_4  and  C_5 
REMARK    3  A    between atoms: N_10  and  C_12 
REMARK    4  A    between atoms: C_12  and  C_13 
REMARK       I    between atoms: C_13  and  N_14 
REMARK    5  A    between atoms: N_14  and  C_15 
REMARK    6  A    between atoms: C_15  and  C_16 
REMARK    7  A    between atoms: C_16  and  C_17 
ROOT
HETATM    1  C   UNL     1     -43.580  58.377 -58.851  1.00  0.00     0.190 C 
HETATM    2  O   UNL     1     -42.285  58.458 -59.475  1.00  0.00    -0.339 OA
HETATM    3  C   UNL     1     -41.961  59.765 -59.720  1.00  0.00     0.077 A 
HETATM    4  C   UNL     1     -41.651  60.632 -58.667  1.00  0.00     0.001 A 
HETATM    5  C   UNL     1     -41.613  60.137 -57.253  1.00  0.00     0.276 C 
HETATM    6  N   UNL     1     -42.951  59.679 -56.737  1.00  0.00    -0.056 N 
HETATM    7  H   UNL     1     -43.655  60.382 -57.020  1.00  0.00     0.280 HD
HETATM    8  C   UNL     1     -43.406  58.335 -57.317  1.00  0.00     0.273 C 
HETATM    9  C   UNL     1     -41.934  60.191 -61.045  1.00  0.00     0.037 A 
HETATM   10  C   UNL     1     -41.631  61.518 -61.335  1.00  0.00     0.003 A 
HETATM   11  C   UNL     1     -41.344  62.407 -60.299  1.00  0.00     0.001 A 
HETATM   12  C   UNL     1     -41.349  61.968 -58.973  1.00  0.00     0.012 A 
ENDROOT
BRANCH   6  13
HETATM   13  C   UNL     1     -43.012  59.665 -55.211  1.00  0.00     0.337 C 
BRANCH  13  14
HETATM   14  C   UNL     1     -41.851  58.847 -54.648  1.00  0.00     0.243 C 
HETATM   15  N   UNL     1     -41.949  57.486 -54.798  1.00  0.00    -0.359 N 
HETATM   16  H   UNL     1     -42.846  57.084 -55.056  1.00  0.00     0.162 HD
HETATM   17  O   UNL     1     -40.958  59.415 -54.019  1.00  0.00    -0.272 OA
BRANCH  15  18
HETATM   18  C   UNL     1     -41.091  56.590 -54.041  1.00  0.00     0.130 C 
BRANCH  18  19
HETATM   19  C   UNL     1     -40.758  55.307 -54.805  1.00  0.00     0.098 C 
BRANCH  19  20
HETATM   20  C   UNL     1     -40.499  54.138 -53.876  1.00  0.00     0.109 A 
HETATM   21  N   UNL     1     -40.309  52.940 -54.344  1.00  0.00    -0.234 NA
HETATM   22  C   UNL     1     -40.069  51.910 -53.410  1.00  0.00     0.074 A 
HETATM   23  C   UNL     1     -40.072  52.126 -52.028  1.00  0.00     0.061 A 
HETATM   24  C   UNL     1     -39.805  50.620 -53.878  1.00  0.00     0.032 A 
HETATM   25  C   UNL     1     -40.334  53.494 -51.556  1.00  0.00     0.259 A 
HETATM   26  C   UNL     1     -39.824  51.090 -51.123  1.00  0.00     0.019 A 
HETATM   27  O   UNL     1     -40.385  53.782 -50.367  1.00  0.00    -0.267 OA
HETATM   28  N   UNL     1     -40.520  54.430 -52.539  1.00  0.00    -0.311 N 
HETATM   29  H   UNL     1     -40.700  55.367 -52.201  1.00  0.00     0.170 HD
HETATM   30  C   UNL     1     -39.563  49.810 -51.606  1.00  0.00     0.001 A 
HETATM   31  C   UNL     1     -39.553  49.575 -52.982  1.00  0.00     0.002 A 
ENDBRANCH  19  20
ENDBRANCH  18  19
ENDBRANCH  15  18
ENDBRANCH  13  14
ENDBRANCH   6  13
BRANCH   1  32
HETATM   32  C   UNL     1     -44.268  57.129 -59.384  1.00  0.00     0.006 A 
HETATM   33  C   UNL     1     -45.627  57.172 -59.760  1.00  0.00     0.077 A 
HETATM   34  C   UNL     1     -46.254  56.016 -60.235  1.00  0.00     0.037 A 
HETATM   35  C   UNL     1     -45.541  54.823 -60.360  1.00  0.00     0.003 A 
HETATM   36  C   UNL     1     -44.194  54.778 -60.022  1.00  0.00     0.001 A 
HETATM   37  C   UNL     1     -43.557  55.924 -59.547  1.00  0.00     0.012 A 
BRANCH  33  38
HETATM   38  O   UNL     1     -46.257  58.379 -59.607  1.00  0.00    -0.355 OA
HETATM   39  C   UNL     1     -46.840  58.962 -60.770  1.00  0.00     0.210 C 
ENDBRANCH  33  38
ENDBRANCH   1  32
TORSDOF 7
ENDMDL
MODEL 4
REMARK VINA RESULT:      -7.4      2.262      6.279
REMARK  7 active torsions:
REMARK  status: ('A' for Active; 'I' for Inactive)
REMARK    1  A    between atoms: O_2  and  C_3 
REMARK    2  A    between atoms: C_4  and  C_5 
REMARK    3  A    between atoms: N_10  and  C_12 
REMARK    4  A    between atoms: C_12  and  C_13 
REMARK       I    between atoms: C_13  and  N_14 
REMARK    5  A    between atoms: N_14  and  C_15 
REMARK    6  A    between atoms: C_15  and  C_16 
REMARK    7  A    between atoms: C_16  and  C_17 
ROOT
HETATM    1  C   UNL     1     -43.625  57.426 -57.050  1.00  0.00     0.190 C 
HETATM    2  O   UNL     1     -43.900  56.461 -56.018  1.00  0.00    -0.339 OA
HETATM    3  C   UNL     1     -42.729  56.005 -55.476  1.00  0.00     0.077 A 
HETATM    4  C   UNL     1     -41.944  56.837 -54.670  1.00  0.00     0.001 A 
HETATM    5  C   UNL     1     -42.395  58.227 -54.337  1.00  0.00     0.276 C 
HETATM    6  N   UNL     1     -42.476  59.138 -55.532  1.00  0.00    -0.056 N 
HETATM    7  H   UNL     1     -41.622  58.993 -56.097  1.00  0.00     0.280 HD
HETATM    8  C   UNL     1     -43.671  58.847 -56.448  1.00  0.00     0.273 C 
HETATM    9  C   UNL     1     -42.359  54.688 -55.739  1.00  0.00     0.037 A 
HETATM   10  C   UNL     1     -41.164  54.194 -55.225  1.00  0.00     0.003 A 
HETATM   11  C   UNL     1     -40.353  55.013 -54.441  1.00  0.00     0.001 A 
HETATM   12  C   UNL     1     -40.741  56.326 -54.160  1.00  0.00     0.012 A 
ENDROOT
BRANCH   6  13
HETATM   13  C   UNL     1     -42.433  60.614 -55.142  1.00  0.00     0.337 C 
BRANCH  13  14
HETATM   14  C   UNL     1     -43.146  60.824 -53.806  1.00  0.00     0.243 C 
HETATM   15  N   UNL     1     -42.385  61.363 -52.800  1.00  0.00    -0.359 N 
HETATM   16  H   UNL     1     -41.374  61.388 -52.906  1.00  0.00     0.162 HD
HETATM   17  O   UNL     1     -44.300  60.421 -53.667  1.00  0.00    -0.272 OA
BRANCH  15  18
HETATM   18  C   UNL     1     -42.836  61.317 -51.418  1.00  0.00     0.130 C 
BRANCH  18  19
HETATM   19  C   UNL     1     -41.953  60.430 -50.539  1.00  0.00     0.098 C 
BRANCH  19  20
HETATM   20  C   UNL     1     -42.272  58.958 -50.708  1.00  0.00     0.109 A 
HETATM   21  N   UNL     1     -41.341  58.055 -50.610  1.00  0.00    -0.234 NA
HETATM   22  C   UNL     1     -41.725  56.708 -50.776  1.00  0.00     0.074 A 
HETATM   23  C   UNL     1     -43.037  56.327 -51.077  1.00  0.00     0.061 A 
HETATM   24  C   UNL     1     -40.764  55.706 -50.623  1.00  0.00     0.032 A 
HETATM   25  C   UNL     1     -44.039  57.394 -51.217  1.00  0.00     0.259 A 
HETATM   26  C   UNL     1     -43.394  54.983 -51.229  1.00  0.00     0.019 A 
HETATM   27  O   UNL     1     -45.206  57.168 -51.506  1.00  0.00    -0.267 OA
HETATM   28  N   UNL     1     -43.577  58.667 -51.003  1.00  0.00    -0.311 N 
HETATM   29  H   UNL     1     -44.275  59.392 -51.103  1.00  0.00     0.170 HD
HETATM   30  C   UNL     1     -42.423  53.998 -51.074  1.00  0.00     0.001 A 
HETATM   31  C   UNL     1     -41.109  54.358 -50.770  1.00  0.00     0.002 A 
ENDBRANCH  19  20
ENDBRANCH  18  19
ENDBRANCH  15  18
ENDBRANCH  13  14
ENDBRANCH   6  13
BRANCH   1  32
HETATM   32  C   UNL     1     -44.666  57.234 -58.144  1.00  0.00     0.006 A 
HETATM   33  C   UNL     1     -44.390  56.402 -59.249  1.00  0.00     0.077 A 
HETATM   34  C   UNL     1     -45.348  56.244 -60.257  1.00  0.00     0.037 A 
HETATM   35  C   UNL     1     -46.582  56.887 -60.168  1.00  0.00     0.003 A 
HETATM   36  C   UNL     1     -46.876  57.684 -59.067  1.00  0.00     0.001 A 
HETATM   37  C   UNL     1     -45.930  57.849 -58.057  1.00  0.00     0.012 A 
BRANCH  33  38
HETATM   38  O   UNL     1     -43.156  55.807 -59.264  1.00  0.00    -0.355 OA
HETATM   39  C   UNL     1     -42.133  56.449 -60.020  1.00  0.00     0.210 C 
ENDBRANCH  33  38
ENDBRANCH   1  32
TORSDOF 7
ENDMDL
MODEL 5
REMARK VINA RESULT:      -7.4      2.106      4.543
REMARK  7 active torsions:
REMARK  status: ('A' for Active; 'I' for Inactive)
REMARK    1  A    between atoms: O_2  and  C_3 
REMARK    2  A    between atoms: C_4  and  C_5 
REMARK    3  A    between atoms: N_10  and  C_12 
REMARK    4  A    between atoms: C_12  and  C_13 
REMARK       I    between atoms: C_13  and  N_14 
REMARK    5  A    between atoms: N_14  and  C_15 
REMARK    6  A    between atoms: C_15  and  C_16 
REMARK    7  A    between atoms: C_16  and  C_17 
ROOT
HETATM    1  C   UNL     1     -43.061  56.261 -56.653  1.00  0.00     0.190 C 
HETATM    2  O   UNL     1     -42.589  55.539 -57.805  1.00  0.00    -0.339 OA
HETATM    3  C   UNL     1     -43.500  55.629 -58.823  1.00  0.00     0.077 A 
HETATM    4  C   UNL     1     -43.696  56.838 -59.500  1.00  0.00     0.001 A 
HETATM    5  C   UNL     1     -42.873  58.045 -59.164  1.00  0.00     0.276 C 
HETATM    6  N   UNL     1     -43.106  58.565 -57.771  1.00  0.00    -0.056 N 
HETATM    7  H   UNL     1     -44.127  58.571 -57.603  1.00  0.00     0.280 HD
HETATM    8  C   UNL     1     -42.481  57.693 -56.675  1.00  0.00     0.273 C 
HETATM    9  C   UNL     1     -44.206  54.480 -59.169  1.00  0.00     0.037 A 
HETATM   10  C   UNL     1     -45.157  54.536 -60.183  1.00  0.00     0.003 A 
HETATM   11  C   UNL     1     -45.387  55.737 -60.854  1.00  0.00     0.001 A 
HETATM   12  C   UNL     1     -44.658  56.881 -60.519  1.00  0.00     0.012 A 
ENDROOT
BRANCH   6  13
HETATM   13  C   UNL     1     -42.682  60.024 -57.616  1.00  0.00     0.337 C 
BRANCH  13  14
HETATM   14  C   UNL     1     -43.740  60.796 -56.828  1.00  0.00     0.243 C 
HETATM   15  N   UNL     1     -43.349  62.016 -56.335  1.00  0.00    -0.359 N 
HETATM   16  H   UNL     1     -42.358  62.244 -56.317  1.00  0.00     0.162 HD
HETATM   17  O   UNL     1     -44.826  60.266 -56.592  1.00  0.00    -0.272 OA
BRANCH  15  18
HETATM   18  C   UNL     1     -44.134  62.694 -55.317  1.00  0.00     0.130 C 
BRANCH  18  19
HETATM   19  C   UNL     1     -43.311  63.054 -54.079  1.00  0.00     0.098 C 
BRANCH  19  20
HETATM   20  C   UNL     1     -42.888  61.827 -53.296  1.00  0.00     0.109 A 
HETATM   21  N   UNL     1     -42.192  60.883 -53.856  1.00  0.00    -0.234 NA
HETATM   22  C   UNL     1     -41.836  59.778 -53.053  1.00  0.00     0.074 A 
HETATM   23  C   UNL     1     -42.237  59.652 -51.719  1.00  0.00     0.061 A 
HETATM   24  C   UNL     1     -41.040  58.770 -53.604  1.00  0.00     0.032 A 
HETATM   25  C   UNL     1     -43.059  60.731 -51.153  1.00  0.00     0.259 A 
HETATM   26  C   UNL     1     -41.864  58.551 -50.942  1.00  0.00     0.019 A 
HETATM   27  O   UNL     1     -43.482  60.703 -50.005  1.00  0.00    -0.267 OA
HETATM   28  N   UNL     1     -43.321  61.777 -51.999  1.00  0.00    -0.311 N 
HETATM   29  H   UNL     1     -43.888  62.513 -51.597  1.00  0.00     0.170 HD
HETATM   30  C   UNL     1     -41.072  57.555 -51.507  1.00  0.00     0.001 A 
HETATM   31  C   UNL     1     -40.659  57.664 -52.836  1.00  0.00     0.002 A 
ENDBRANCH  19  20
ENDBRANCH  18  19
ENDBRANCH  15  18
ENDBRANCH  13  14
ENDBRANCH   6  13
BRANCH   1  32
HETATM   32  C   UNL     1     -42.626  55.486 -55.418  1.00  0.00     0.006 A 
HETATM   33  C   UNL     1     -43.421  55.502 -54.252  1.00  0.00     0.077 A 
HETATM   34  C   UNL     1     -43.005  54.799 -53.117  1.00  0.00     0.037 A 
HETATM   35  C   UNL     1     -41.819  54.065 -53.133  1.00  0.00     0.003 A 
HETATM   36  C   UNL     1     -41.045  54.017 -54.287  1.00  0.00     0.001 A 
HETATM   37  C   UNL     1     -41.448  54.714 -55.425  1.00  0.00     0.012 A 
BRANCH  33  38
HETATM   38  O   UNL     1     -44.569  56.247 -54.315  1.00  0.00    -0.355 OA
HETATM   39  C   UNL     1     -44.632  57.417 -53.504  1.00  0.00     0.210 C 
ENDBRANCH  33  38
ENDBRANCH   1  32
TORSDOF 7
ENDMDL
MODEL 6
REMARK VINA RESULT:      -7.3      2.316      7.046
REMARK  7 active torsions:
REMARK  status: ('A' for Active; 'I' for Inactive)
REMARK    1  A    between atoms: O_2  and  C_3 
REMARK    2  A    between atoms: C_4  and  C_5 
REMARK    3  A    between atoms: N_10  and  C_12 
REMARK    4  A    between atoms: C_12  and  C_13 
REMARK       I    between atoms: C_13  and  N_14 
REMARK    5  A    between atoms: N_14  and  C_15 
REMARK    6  A    between atoms: C_15  and  C_16 
REMARK    7  A    between atoms: C_16  and  C_17 
ROOT
HETATM    1  C   UNL     1     -44.233  60.252 -53.376  1.00  0.00     0.190 C 
HETATM    2  O   UNL     1     -43.198  61.083 -52.822  1.00  0.00    -0.339 OA
HETATM    3  C   UNL     1     -42.221  60.307 -52.259  1.00  0.00     0.077 A 
HETATM    4  C   UNL     1     -41.362  59.548 -53.061  1.00  0.00     0.001 A 
HETATM    5  C   UNL     1     -41.455  59.612 -54.556  1.00  0.00     0.276 C 
HETATM    6  N   UNL     1     -42.751  59.077 -55.103  1.00  0.00    -0.056 N 
HETATM    7  H   UNL     1     -42.961  58.193 -54.609  1.00  0.00     0.280 HD
HETATM    8  C   UNL     1     -43.947  60.009 -54.874  1.00  0.00     0.273 C 
HETATM    9  C   UNL     1     -42.104  60.314 -50.871  1.00  0.00     0.037 A 
HETATM   10  C   UNL     1     -41.138  59.520 -50.259  1.00  0.00     0.003 A 
HETATM   11  C   UNL     1     -40.287  58.736 -51.038  1.00  0.00     0.001 A 
HETATM   12  C   UNL     1     -40.394  58.752 -52.431  1.00  0.00     0.012 A 
ENDROOT
BRANCH   6  13
HETATM   13  C   UNL     1     -42.642  58.679 -56.574  1.00  0.00     0.337 C 
BRANCH  13  14
HETATM   14  C   UNL     1     -43.064  57.221 -56.754  1.00  0.00     0.243 C 
HETATM   15  N   UNL     1     -42.411  56.307 -55.965  1.00  0.00    -0.359 N 
HETATM   16  H   UNL     1     -41.560  56.590 -55.486  1.00  0.00     0.162 HD
HETATM   17  O   UNL     1     -43.871  56.928 -57.636  1.00  0.00    -0.272 OA
BRANCH  15  18
HETATM   18  C   UNL     1     -42.484  54.885 -56.257  1.00  0.00     0.130 C 
BRANCH  18  19
HETATM   19  C   UNL     1     -43.190  54.092 -55.156  1.00  0.00     0.098 C 
BRANCH  19  20
HETATM   20  C   UNL     1     -42.375  54.033 -53.880  1.00  0.00     0.109 A 
HETATM   21  N   UNL     1     -42.582  54.878 -52.913  1.00  0.00    -0.234 NA
HETATM   22  C   UNL     1     -41.782  54.750 -51.758  1.00  0.00     0.074 A 
HETATM   23  C   UNL     1     -40.769  53.793 -51.642  1.00  0.00     0.061 A 
HETATM   24  C   UNL     1     -42.013  55.604 -50.677  1.00  0.00     0.032 A 
HETATM   25  C   UNL     1     -40.553  52.892 -52.783  1.00  0.00     0.259 A 
HETATM   26  C   UNL     1     -39.995  53.681 -50.483  1.00  0.00     0.019 A 
HETATM   27  O   UNL     1     -39.675  52.039 -52.792  1.00  0.00    -0.267 OA
HETATM   28  N   UNL     1     -41.403  53.071 -53.844  1.00  0.00    -0.311 N 
HETATM   29  H   UNL     1     -41.243  52.445 -54.623  1.00  0.00     0.170 HD
HETATM   30  C   UNL     1     -40.238  54.541 -49.415  1.00  0.00     0.001 A 
HETATM   31  C   UNL     1     -41.246  55.501 -49.510  1.00  0.00     0.002 A 
ENDBRANCH  19  20
ENDBRANCH  18  19
ENDBRANCH  15  18
ENDBRANCH  13  14
ENDBRANCH   6  13
BRANCH   1  32
HETATM   32  C   UNL     1     -45.560  60.964 -53.154  1.00  0.00     0.006 A 
HETATM   33  C   UNL     1     -46.261  60.800 -51.941  1.00  0.00     0.077 A 
HETATM   34  C   UNL     1     -47.487  61.447 -51.753  1.00  0.00     0.037 A 
HETATM   35  C   UNL     1     -48.013  62.271 -52.748  1.00  0.00     0.003 A 
HETATM   36  C   UNL     1     -47.315  62.464 -53.935  1.00  0.00     0.001 A 
HETATM   37  C   UNL     1     -46.092  61.824 -54.134  1.00  0.00     0.012 A 
BRANCH  33  38
HETATM   38  O   UNL     1     -45.679  59.974 -51.015  1.00  0.00    -0.355 OA
HETATM   39  C   UNL     1     -45.546  60.477 -49.688  1.00  0.00     0.210 C 
ENDBRANCH  33  38
ENDBRANCH   1  32
TORSDOF 7
ENDMDL
MODEL 7
REMARK VINA RESULT:      -7.2      2.608      6.487
REMARK  7 active torsions:
REMARK  status: ('A' for Active; 'I' for Inactive)
REMARK    1  A    between atoms: O_2  and  C_3 
REMARK    2  A    between atoms: C_4  and  C_5 
REMARK    3  A    between atoms: N_10  and  C_12 
REMARK    4  A    between atoms: C_12  and  C_13 
REMARK       I    between atoms: C_13  and  N_14 
REMARK    5  A    between atoms: N_14  and  C_15 
REMARK    6  A    between atoms: C_15  and  C_16 
REMARK    7  A    between atoms: C_16  and  C_17 
ROOT
HETATM    1  C   UNL     1     -42.725  56.074 -55.813  1.00  0.00     0.190 C 
HETATM    2  O   UNL     1     -42.913  54.653 -55.683  1.00  0.00    -0.339 OA
HETATM    3  C   UNL     1     -42.143  54.168 -54.661  1.00  0.00     0.077 A 
HETATM    4  C   UNL     1     -42.456  54.462 -53.330  1.00  0.00     0.001 A 
HETATM    5  C   UNL     1     -43.674  55.268 -52.990  1.00  0.00     0.276 C 
HETATM    6  N   UNL     1     -43.618  56.686 -53.491  1.00  0.00    -0.056 N 
HETATM    7  H   UNL     1     -42.676  57.057 -53.282  1.00  0.00     0.280 HD
HETATM    8  C   UNL     1     -43.818  56.810 -55.007  1.00  0.00     0.273 C 
HETATM    9  C   UNL     1     -41.056  53.363 -54.992  1.00  0.00     0.037 A 
HETATM   10  C   UNL     1     -40.235  52.868 -53.983  1.00  0.00     0.003 A 
HETATM   11  C   UNL     1     -40.513  53.170 -52.650  1.00  0.00     0.001 A 
HETATM   12  C   UNL     1     -41.620  53.958 -52.323  1.00  0.00     0.012 A 
ENDROOT
BRANCH   6  13
HETATM   13  C   UNL     1     -44.573  57.608 -52.736  1.00  0.00     0.337 C 
BRANCH  13  14
HETATM   14  C   UNL     1     -44.146  59.064 -52.918  1.00  0.00     0.243 C 
HETATM   15  N   UNL     1     -44.972  59.838 -53.694  1.00  0.00    -0.359 N 
HETATM   16  H   UNL     1     -45.671  59.382 -54.274  1.00  0.00     0.162 HD
HETATM   17  O   UNL     1     -43.068  59.441 -52.459  1.00  0.00    -0.272 OA
BRANCH  15  18
HETATM   18  C   UNL     1     -44.526  61.125 -54.203  1.00  0.00     0.130 C 
BRANCH  18  19
HETATM   19  C   UNL     1     -45.544  61.774 -55.142  1.00  0.00     0.098 C 
BRANCH  19  20
HETATM   20  C   UNL     1     -45.637  61.054 -56.472  1.00  0.00     0.109 A 
HETATM   21  N   UNL     1     -46.010  59.810 -56.536  1.00  0.00    -0.234 NA
HETATM   22  C   UNL     1     -46.074  59.218 -57.815  1.00  0.00     0.074 A 
HETATM   23  C   UNL     1     -45.717  59.900 -58.983  1.00  0.00     0.061 A 
HETATM   24  C   UNL     1     -46.525  57.900 -57.929  1.00  0.00     0.032 A 
HETATM   25  C   UNL     1     -45.262  61.291 -58.844  1.00  0.00     0.259 A 
HETATM   26  C   UNL     1     -45.797  59.292 -60.240  1.00  0.00     0.019 A 
HETATM   27  O   UNL     1     -44.902  61.964 -59.800  1.00  0.00    -0.267 OA
HETATM   28  N   UNL     1     -45.269  61.787 -57.567  1.00  0.00    -0.311 N 
HETATM   29  H   UNL     1     -44.953  62.745 -57.485  1.00  0.00     0.170 HD
HETATM   30  C   UNL     1     -46.246  57.978 -60.335  1.00  0.00     0.001 A 
HETATM   31  C   UNL     1     -46.611  57.282 -59.181  1.00  0.00     0.002 A 
ENDBRANCH  19  20
ENDBRANCH  18  19
ENDBRANCH  15  18
ENDBRANCH  13  14
ENDBRANCH   6  13
BRANCH   1  32
HETATM   32  C   UNL     1     -42.784  56.410 -57.296  1.00  0.00     0.006 A 
HETATM   33  C   UNL     1     -42.350  57.671 -57.757  1.00  0.00     0.077 A 
HETATM   34  C   UNL     1     -42.422  57.975 -59.121  1.00  0.00     0.037 A 
HETATM   35  C   UNL     1     -42.900  57.034 -60.032  1.00  0.00     0.003 A 
HETATM   36  C   UNL     1     -43.301  55.778 -59.592  1.00  0.00     0.001 A 
HETATM   37  C   UNL     1     -43.235  55.463 -58.236  1.00  0.00     0.012 A 
BRANCH  33  38
HETATM   38  O   UNL     1     -41.895  58.539 -56.800  1.00  0.00    -0.355 OA
HETATM   39  C   UNL     1     -42.224  59.916 -56.961  1.00  0.00     0.210 C 
ENDBRANCH  33  38
ENDBRANCH   1  32
TORSDOF 7
ENDMDL
MODEL 8
REMARK VINA RESULT:      -7.0      2.418      7.555
REMARK  7 active torsions:
REMARK  status: ('A' for Active; 'I' for Inactive)
REMARK    1  A    between atoms: O_2  and  C_3 
REMARK    2  A    between atoms: C_4  and  C_5 
REMARK    3  A    between atoms: N_10  and  C_12 
REMARK    4  A    between atoms: C_12  and  C_13 
REMARK       I    between atoms: C_13  and  N_14 
REMARK    5  A    between atoms: N_14  and  C_15 
REMARK    6  A    between atoms: C_15  and  C_16 
REMARK    7  A    between atoms: C_16  and  C_17 
ROOT
HETATM    1  C   UNL     1     -43.750  58.094 -58.116  1.00  0.00     0.190 C 
HETATM    2  O   UNL     1     -43.024  58.936 -59.028  1.00  0.00    -0.339 OA
HETATM    3  C   UNL     1     -43.225  60.254 -58.714  1.00  0.00     0.077 A 
HETATM    4  C   UNL     1     -42.665  60.804 -57.557  1.00  0.00     0.001 A 
HETATM    5  C   UNL     1     -41.787  59.980 -56.664  1.00  0.00     0.276 C 
HETATM    6  N   UNL     1     -42.505  58.834 -56.003  1.00  0.00    -0.056 N 
HETATM    7  H   UNL     1     -43.411  59.189 -55.654  1.00  0.00     0.280 HD
HETATM    8  C   UNL     1     -42.820  57.674 -56.956  1.00  0.00     0.273 C 
HETATM    9  C   UNL     1     -43.985  61.023 -59.592  1.00  0.00     0.037 A 
HETATM   10  C   UNL     1     -44.231  62.360 -59.297  1.00  0.00     0.003 A 
HETATM   11  C   UNL     1     -43.705  62.924 -58.135  1.00  0.00     0.001 A 
HETATM   12  C   UNL     1     -42.922  62.154 -57.271  1.00  0.00     0.012 A 
ENDROOT
BRANCH   6  13
HETATM   13  C   UNL     1     -41.780  58.334 -54.756  1.00  0.00     0.337 C 
BRANCH  13  14
HETATM   14  C   UNL     1     -42.699  58.438 -53.539  1.00  0.00     0.243 C 
HETATM   15  N   UNL     1     -42.230  57.867 -52.383  1.00  0.00    -0.359 N 
HETATM   16  H   UNL     1     -41.437  57.232 -52.435  1.00  0.00     0.162 HD
HETATM   17  O   UNL     1     -43.823  58.924 -53.669  1.00  0.00    -0.272 OA
BRANCH  15  18
HETATM   18  C   UNL     1     -43.120  57.616 -51.261  1.00  0.00     0.130 C 
BRANCH  18  19
HETATM   19  C   UNL     1     -43.746  56.221 -51.306  1.00  0.00     0.098 C 
BRANCH  19  20
HETATM   20  C   UNL     1     -42.713  55.136 -51.534  1.00  0.00     0.109 A 
HETATM   21  N   UNL     1     -42.532  54.620 -52.714  1.00  0.00    -0.234 NA
HETATM   22  C   UNL     1     -41.546  53.618 -52.838  1.00  0.00     0.074 A 
HETATM   23  C   UNL     1     -40.806  53.146 -51.750  1.00  0.00     0.061 A 
HETATM   24  C   UNL     1     -41.285  53.080 -54.101  1.00  0.00     0.032 A 
HETATM   25  C   UNL     1     -41.082  53.738 -50.433  1.00  0.00     0.259 A 
HETATM   26  C   UNL     1     -39.828  52.158 -51.902  1.00  0.00     0.019 A 
HETATM   27  O   UNL     1     -40.508  53.376 -49.415  1.00  0.00    -0.267 OA
HETATM   28  N   UNL     1     -42.031  54.727 -50.420  1.00  0.00    -0.311 N 
HETATM   29  H   UNL     1     -42.212  55.126 -49.507  1.00  0.00     0.170 HD
HETATM   30  C   UNL     1     -39.581  51.631 -53.166  1.00  0.00     0.001 A 
HETATM   31  C   UNL     1     -40.308  52.091 -54.266  1.00  0.00     0.002 A 
ENDBRANCH  19  20
ENDBRANCH  18  19
ENDBRANCH  15  18
ENDBRANCH  13  14
ENDBRANCH   6  13
BRANCH   1  32
HETATM   32  C   UNL     1     -44.258  56.895 -58.905  1.00  0.00     0.006 A 
HETATM   33  C   UNL     1     -45.475  56.976 -59.615  1.00  0.00     0.077 A 
HETATM   34  C   UNL     1     -45.940  55.864 -60.325  1.00  0.00     0.037 A 
HETATM   35  C   UNL     1     -45.201  54.681 -60.353  1.00  0.00     0.003 A 
HETATM   36  C   UNL     1     -43.986  54.602 -59.683  1.00  0.00     0.001 A 
HETATM   37  C   UNL     1     -43.511  55.703 -58.971  1.00  0.00     0.012 A 
BRANCH  33  38
HETATM   38  O   UNL     1     -46.142  58.170 -59.537  1.00  0.00    -0.355 OA
HETATM   39  C   UNL     1     -47.165  58.281 -58.552  1.00  0.00     0.210 C 
ENDBRANCH  33  38
ENDBRANCH   1  32
TORSDOF 7
ENDMDL
MODEL 9
REMARK VINA RESULT:      -6.9      2.751      8.274
REMARK  7 active torsions:
REMARK  status: ('A' for Active; 'I' for Inactive)
REMARK    1  A    between atoms: O_2  and  C_3 
REMARK    2  A    between atoms: C_4  and  C_5 
REMARK    3  A    between atoms: N_10  and  C_12 
REMARK    4  A    between atoms: C_12  and  C_13 
REMARK       I    between atoms: C_13  and  N_14 
REMARK    5  A    between atoms: N_14  and  C_15 
REMARK    6  A    between atoms: C_15  and  C_16 
REMARK    7  A    between atoms: C_16  and  C_17 
ROOT
HETATM    1  C   UNL     1     -43.588  58.360 -58.433  1.00  0.00     0.190 C 
HETATM    2  O   UNL     1     -42.309  58.559 -59.062  1.00  0.00    -0.339 OA
HETATM    3  C   UNL     1     -42.042  59.898 -59.171  1.00  0.00     0.077 A 
HETATM    4  C   UNL     1     -41.747  60.661 -58.037  1.00  0.00     0.001 A 
HETATM    5  C   UNL     1     -41.663  60.021 -56.684  1.00  0.00     0.276 C 
HETATM    6  N   UNL     1     -42.972  59.457 -56.201  1.00  0.00    -0.056 N 
HETATM    7  H   UNL     1     -43.708  60.155 -56.398  1.00  0.00     0.280 HD
HETATM    8  C   UNL     1     -43.385  58.163 -56.914  1.00  0.00     0.273 C 
HETATM    9  C   UNL     1     -42.056  60.462 -60.445  1.00  0.00     0.037 A 
HETATM   10  C   UNL     1     -41.811  61.824 -60.595  1.00  0.00     0.003 A 
HETATM   11  C   UNL     1     -41.541  62.609 -59.475  1.00  0.00     0.001 A 
HETATM   12  C   UNL     1     -41.504  62.033 -58.203  1.00  0.00     0.012 A 
ENDROOT
BRANCH   6  13
HETATM   13  C   UNL     1     -43.005  59.279 -54.685  1.00  0.00     0.337 C 
BRANCH  13  14
HETATM   14  C   UNL     1     -41.904  58.313 -54.247  1.00  0.00     0.243 C 
HETATM   15  N   UNL     1     -42.291  57.008 -54.066  1.00  0.00    -0.359 N 
HETATM   16  H   UNL     1     -43.283  56.793 -54.008  1.00  0.00     0.162 HD
HETATM   17  O   UNL     1     -40.783  58.749 -53.989  1.00  0.00    -0.272 OA
BRANCH  15  18
HETATM   18  C   UNL     1     -41.436  56.070 -53.355  1.00  0.00     0.130 C 
BRANCH  18  19
HETATM   19  C   UNL     1     -40.716  55.102 -54.294  1.00  0.00     0.098 C 
BRANCH  19  20
HETATM   20  C   UNL     1     -40.465  53.755 -53.646  1.00  0.00     0.109 A 
HETATM   21  N   UNL     1     -40.492  53.618 -52.353  1.00  0.00    -0.234 NA
HETATM   22  C   UNL     1     -40.253  52.329 -51.832  1.00  0.00     0.074 A 
HETATM   23  C   UNL     1     -39.952  51.230 -52.644  1.00  0.00     0.061 A 
HETATM   24  C   UNL     1     -40.329  52.132 -50.452  1.00  0.00     0.032 A 
HETATM   25  C   UNL     1     -39.893  51.454 -54.096  1.00  0.00     0.259 A 
HETATM   26  C   UNL     1     -39.726  49.960 -52.104  1.00  0.00     0.019 A 
HETATM   27  O   UNL     1     -39.612  50.565 -54.888  1.00  0.00    -0.267 OA
HETATM   28  N   UNL     1     -40.175  52.731 -54.506  1.00  0.00    -0.311 N 
HETATM   29  H   UNL     1     -40.131  52.872 -55.507  1.00  0.00     0.170 HD
HETATM   30  C   UNL     1     -39.805  49.781 -50.726  1.00  0.00     0.001 A 
HETATM   31  C   UNL     1     -40.107  50.865 -49.899  1.00  0.00     0.002 A 
ENDBRANCH  19  20
ENDBRANCH  18  19
ENDBRANCH  15  18
ENDBRANCH  13  14
ENDBRANCH   6  13
BRANCH   1  32
HETATM   32  C   UNL     1     -44.236  57.148 -59.086  1.00  0.00     0.006 A 
HETATM   33  C   UNL     1     -45.565  57.218 -59.554  1.00  0.00     0.077 A 
HETATM   34  C   UNL     1     -46.156  56.094 -60.139  1.00  0.00     0.037 A 
HETATM   35  C   UNL     1     -45.436  54.908 -60.283  1.00  0.00     0.003 A 
HETATM   36  C   UNL     1     -44.115  54.838 -59.854  1.00  0.00     0.001 A 
HETATM   37  C   UNL     1     -43.515  55.952 -59.269  1.00  0.00     0.012 A 
BRANCH  33  38
HETATM   38  O   UNL     1     -46.206  58.416 -59.374  1.00  0.00    -0.355 OA
HETATM   39  C   UNL     1     -46.403  59.228 -60.529  1.00  0.00     0.210 C 
ENDBRANCH  33  38
ENDBRANCH   1  32
TORSDOF 7
ENDMDL
MODEL 10
REMARK VINA RESULT:      -6.7      2.436      5.196
REMARK  7 active torsions:
REMARK  status: ('A' for Active; 'I' for Inactive)
REMARK    1  A    between atoms: O_2  and  C_3 
REMARK    2  A    between atoms: C_4  and  C_5 
REMARK    3  A    between atoms: N_10  and  C_12 
REMARK    4  A    between atoms: C_12  and  C_13 
REMARK       I    between atoms: C_13  and  N_14 
REMARK    5  A    between atoms: N_14  and  C_15 
REMARK    6  A    between atoms: C_15  and  C_16 
REMARK    7  A    between atoms: C_16  and  C_17 
ROOT
HETATM    1  C   UNL     1     -41.797  56.002 -52.657  1.00  0.00     0.190 C 
HETATM    2  O   UNL     1     -41.756  56.252 -51.240  1.00  0.00    -0.339 OA
HETATM    3  C   UNL     1     -41.579  57.588 -51.002  1.00  0.00     0.077 A 
HETATM    4  C   UNL     1     -42.605  58.502 -51.264  1.00  0.00     0.001 A 
HETATM    5  C   UNL     1     -43.940  58.032 -51.758  1.00  0.00     0.276 C 
HETATM    6  N   UNL     1     -43.891  57.402 -53.124  1.00  0.00    -0.056 N 
HETATM    7  H   UNL     1     -43.297  57.998 -53.725  1.00  0.00     0.280 HD
HETATM    8  C   UNL     1     -43.266  56.001 -53.133  1.00  0.00     0.273 C 
HETATM    9  C   UNL     1     -40.356  57.999 -50.478  1.00  0.00     0.037 A 
HETATM   10  C   UNL     1     -40.128  59.352 -50.243  1.00  0.00     0.003 A 
HETATM   11  C   UNL     1     -41.128  60.283 -50.522  1.00  0.00     0.001 A 
HETATM   12  C   UNL     1     -42.361  59.863 -51.025  1.00  0.00     0.012 A 
ENDROOT
BRANCH   6  13
HETATM   13  C   UNL     1     -45.254  57.397 -53.813  1.00  0.00     0.337 C 
BRANCH  13  14
HETATM   14  C   UNL     1     -45.233  58.334 -55.020  1.00  0.00     0.243 C 
HETATM   15  N   UNL     1     -46.028  57.967 -56.076  1.00  0.00    -0.359 N 
HETATM   16  H   UNL     1     -46.400  57.021 -56.107  1.00  0.00     0.162 HD
HETATM   17  O   UNL     1     -44.458  59.290 -55.032  1.00  0.00    -0.272 OA
BRANCH  15  18
HETATM   18  C   UNL     1     -45.861  58.582 -57.383  1.00  0.00     0.130 C 
BRANCH  18  19
HETATM   19  C   UNL     1     -44.730  57.946 -58.194  1.00  0.00     0.098 C 
BRANCH  19  20
HETATM   20  C   UNL     1     -43.823  58.983 -58.823  1.00  0.00     0.109 A 
HETATM   21  N   UNL     1     -42.927  59.607 -58.117  1.00  0.00    -0.234 NA
HETATM   22  C   UNL     1     -42.121  60.555 -58.784  1.00  0.00     0.074 A 
HETATM   23  C   UNL     1     -42.282  60.865 -60.138  1.00  0.00     0.061 A 
HETATM   24  C   UNL     1     -41.110  61.204 -58.071  1.00  0.00     0.032 A 
HETATM   25  C   UNL     1     -43.339  60.158 -60.876  1.00  0.00     0.259 A 
HETATM   26  C   UNL     1     -41.464  61.803 -60.778  1.00  0.00     0.019 A 
HETATM   27  O   UNL     1     -43.577  60.377 -62.056  1.00  0.00    -0.267 OA
HETATM   28  N   UNL     1     -44.044  59.232 -60.151  1.00  0.00    -0.311 N 
HETATM   29  H   UNL     1     -44.768  58.753 -60.670  1.00  0.00     0.170 HD
HETATM   30  C   UNL     1     -40.463  62.442 -60.052  1.00  0.00     0.001 A 
HETATM   31  C   UNL     1     -40.284  62.143 -58.700  1.00  0.00     0.002 A 
ENDBRANCH  19  20
ENDBRANCH  18  19
ENDBRANCH  15  18
ENDBRANCH  13  14
ENDBRANCH   6  13
BRANCH   1  32
HETATM   32  C   UNL     1     -41.113  54.666 -52.906  1.00  0.00     0.006 A 
HETATM   33  C   UNL     1     -40.738  54.292 -54.214  1.00  0.00     0.077 A 
HETATM   34  C   UNL     1     -40.123  53.055 -54.434  1.00  0.00     0.037 A 
HETATM   35  C   UNL     1     -39.859  52.195 -53.368  1.00  0.00     0.003 A 
HETATM   36  C   UNL     1     -40.196  52.568 -52.072  1.00  0.00     0.001 A 
HETATM   37  C   UNL     1     -40.809  53.798 -51.839  1.00  0.00     0.012 A 
BRANCH  33  38
HETATM   38  O   UNL     1     -41.033  55.190 -55.206  1.00  0.00    -0.355 OA
HETATM   39  C   UNL     1     -42.100  54.858 -56.089  1.00  0.00     0.210 C 
ENDBRANCH  33  38
ENDBRANCH   1  32
TORSDOF 7
ENDMDL
