MODEL 1
REMARK VINA RESULT:      -8.5      0.000      0.000
REMARK  1 active torsions:
REMARK  status: ('A' for Active; 'I' for Inactive)
REMARK    1  A    between atoms: C_8  and  C_9 
ROOT
HETATM    1  C   UNL     1     -41.148  57.077 -50.295  1.00  0.00     0.073 C 
HETATM    2  C   UNL     1     -41.043  57.666 -51.655  1.00  0.00     0.062 C 
HETATM    3  N   UNL     1     -40.197  58.684 -51.848  1.00  0.00    -0.178 NA
HETATM    4  N   UNL     1     -40.301  58.946 -53.154  1.00  0.00    -0.262 N 
HETATM    5  H   UNL     1     -39.727  59.687 -53.539  1.00  0.00     0.191 HD
HETATM    6  C   UNL     1     -41.295  58.240 -53.771  1.00  0.00     0.134 C 
HETATM    7  C   UNL     1     -41.721  57.288 -52.863  1.00  0.00     0.032 C 
HETATM    8  C   UNL     1     -42.606  56.087 -53.054  1.00  0.00     0.120 C 
HETATM    9  S   UNL     1     -44.063  56.228 -54.144  1.00  0.00    -0.141 SA
HETATM   10  C   UNL     1     -44.059  57.991 -54.589  1.00  0.00     0.136 C 
HETATM   11  C   UNL     1     -45.410  58.306 -55.235  1.00  0.00     0.031 C 
HETATM   12  C   UNL     1     -42.924  58.317 -55.564  1.00  0.00     0.236 C 
HETATM   13  O   UNL     1     -43.105  58.511 -56.769  1.00  0.00    -0.272 OA
HETATM   14  N   UNL     1     -41.662  58.514 -55.064  1.00  0.00    -0.311 N 
HETATM   15  H   UNL     1     -41.032  58.993 -55.697  1.00  0.00     0.170 HD
ENDROOT
BRANCH   8  16
HETATM   16  C   UNL     1     -41.669  54.955 -53.509  1.00  0.00    -0.029 A 
HETATM   17  C   UNL     1     -41.168  53.952 -52.613  1.00  0.00    -0.018 A 
HETATM   18  C   UNL     1     -40.263  52.976 -53.119  1.00  0.00    -0.025 A 
HETATM   19  C   UNL     1     -41.506  53.841 -51.240  1.00  0.00     0.013 A 
HETATM   20  C   UNL     1     -39.723  51.992 -52.275  1.00  0.00     0.012 A 
HETATM   21  C   UNL     1     -39.896  52.979 -54.470  1.00  0.00     0.012 A 
HETATM   22  C   UNL     1     -40.061  51.936 -50.926  1.00  0.00     0.001 A 
HETATM   23  C   UNL     1     -40.958  52.857 -50.411  1.00  0.00     0.001 A 
HETATM   24  C   UNL     1     -40.401  53.932 -55.342  1.00  0.00     0.002 A 
HETATM   25  C   UNL     1     -41.268  54.906 -54.867  1.00  0.00     0.009 A 
ENDBRANCH   8  16
TORSDOF 1
ENDMDL
MODEL 2
REMARK VINA RESULT:      -7.7      2.705      4.287
REMARK  1 active torsions:
REMARK  status: ('A' for Active; 'I' for Inactive)
REMARK    1  A    between atoms: C_8  and  C_9 
ROOT
HETATM    1  C   UNL     1     -42.493  57.541 -56.330  1.00  0.00     0.073 C 
HETATM    2  C   UNL     1     -43.532  57.883 -55.324  1.00  0.00     0.062 C 
HETATM    3  N   UNL     1     -44.800  58.010 -55.731  1.00  0.00    -0.178 NA
HETATM    4  N   UNL     1     -45.475  58.268 -54.607  1.00  0.00    -0.262 N 
HETATM    5  H   UNL     1     -46.479  58.390 -54.671  1.00  0.00     0.191 HD
HETATM    6  C   UNL     1     -44.668  58.465 -53.523  1.00  0.00     0.134 C 
HETATM    7  C   UNL     1     -43.394  58.091 -53.910  1.00  0.00     0.032 C 
HETATM    8  C   UNL     1     -42.155  57.860 -53.088  1.00  0.00     0.120 C 
HETATM    9  S   UNL     1     -41.797  58.986 -51.697  1.00  0.00    -0.141 SA
HETATM   10  C   UNL     1     -43.110  60.234 -51.845  1.00  0.00     0.136 C 
HETATM   11  C   UNL     1     -42.734  61.408 -50.938  1.00  0.00     0.031 C 
HETATM   12  C   UNL     1     -44.469  59.665 -51.426  1.00  0.00     0.236 C 
HETATM   13  O   UNL     1     -45.008  59.929 -50.348  1.00  0.00    -0.272 OA
HETATM   14  N   UNL     1     -45.177  58.918 -52.332  1.00  0.00    -0.311 N 
HETATM   15  H   UNL     1     -46.161  58.813 -52.110  1.00  0.00     0.170 HD
ENDROOT
BRANCH   8  16
HETATM   16  C   UNL     1     -42.237  56.396 -52.624  1.00  0.00    -0.029 A 
HETATM   17  C   UNL     1     -41.543  55.329 -53.287  1.00  0.00    -0.018 A 
HETATM   18  C   UNL     1     -41.724  54.000 -52.814  1.00  0.00    -0.025 A 
HETATM   19  C   UNL     1     -40.670  55.487 -54.394  1.00  0.00     0.013 A 
HETATM   20  C   UNL     1     -41.090  52.919 -53.448  1.00  0.00     0.012 A 
HETATM   21  C   UNL     1     -42.539  53.745 -51.703  1.00  0.00     0.012 A 
HETATM   22  C   UNL     1     -40.262  53.115 -54.548  1.00  0.00     0.001 A 
HETATM   23  C   UNL     1     -40.047  54.401 -55.017  1.00  0.00     0.001 A 
HETATM   24  C   UNL     1     -43.187  54.779 -51.045  1.00  0.00     0.002 A 
HETATM   25  C   UNL     1     -43.043  56.082 -51.502  1.00  0.00     0.009 A 
ENDBRANCH   8  16
TORSDOF 1
ENDMDL
MODEL 3
REMARK VINA RESULT:      -7.7      1.358      2.430
REMARK  1 active torsions:
REMARK  status: ('A' for Active; 'I' for Inactive)
REMARK    1  A    between atoms: C_8  and  C_9 
ROOT
HETATM    1  C   UNL     1     -40.844  58.928 -49.783  1.00  0.00     0.073 C 
HETATM    2  C   UNL     1     -40.711  58.648 -51.236  1.00  0.00     0.062 C 
HETATM    3  N   UNL     1     -39.862  59.391 -51.956  1.00  0.00    -0.178 NA
HETATM    4  N   UNL     1     -39.939  58.869 -53.184  1.00  0.00    -0.262 N 
HETATM    5  H   UNL     1     -39.359  59.271 -53.910  1.00  0.00     0.191 HD
HETATM    6  C   UNL     1     -40.919  57.926 -53.311  1.00  0.00     0.134 C 
HETATM    7  C   UNL     1     -41.364  57.647 -52.031  1.00  0.00     0.032 C 
HETATM    8  C   UNL     1     -42.243  56.536 -51.527  1.00  0.00     0.120 C 
HETATM    9  S   UNL     1     -43.678  56.021 -52.530  1.00  0.00    -0.141 SA
HETATM   10  C   UNL     1     -43.666  57.225 -53.892  1.00  0.00     0.136 C 
HETATM   11  C   UNL     1     -45.004  57.104 -54.626  1.00  0.00     0.031 C 
HETATM   12  C   UNL     1     -42.511  56.958 -54.862  1.00  0.00     0.236 C 
HETATM   13  O   UNL     1     -42.668  56.437 -55.969  1.00  0.00    -0.272 OA
HETATM   14  N   UNL     1     -41.260  57.419 -54.540  1.00  0.00    -0.311 N 
HETATM   15  H   UNL     1     -40.617  57.466 -55.322  1.00  0.00     0.170 HD
ENDROOT
BRANCH   8  16
HETATM   16  C   UNL     1     -41.296  55.357 -51.248  1.00  0.00    -0.029 A 
HETATM   17  C   UNL     1     -41.067  54.302 -52.193  1.00  0.00    -0.018 A 
HETATM   18  C   UNL     1     -40.213  53.226 -51.820  1.00  0.00    -0.025 A 
HETATM   19  C   UNL     1     -41.623  54.238 -53.496  1.00  0.00     0.013 A 
HETATM   20  C   UNL     1     -39.981  52.156 -52.699  1.00  0.00     0.012 A 
HETATM   21  C   UNL     1     -39.586  53.216 -50.568  1.00  0.00     0.012 A 
HETATM   22  C   UNL     1     -40.569  52.118 -53.959  1.00  0.00     0.001 A 
HETATM   23  C   UNL     1     -41.386  53.164 -54.359  1.00  0.00     0.001 A 
HETATM   24  C   UNL     1     -39.785  54.250 -49.665  1.00  0.00     0.002 A 
HETATM   25  C   UNL     1     -40.631  55.299 -49.998  1.00  0.00     0.009 A 
ENDBRANCH   8  16
TORSDOF 1
ENDMDL
MODEL 4
REMARK VINA RESULT:      -7.7      2.381      3.883
REMARK  1 active torsions:
REMARK  status: ('A' for Active; 'I' for Inactive)
REMARK    1  A    between atoms: C_8  and  C_9 
ROOT
HETATM    1  C   UNL     1     -41.604  53.922 -55.325  1.00  0.00     0.073 C 
HETATM    2  C   UNL     1     -42.654  54.749 -54.677  1.00  0.00     0.062 C 
HETATM    3  N   UNL     1     -43.935  54.510 -54.980  1.00  0.00    -0.178 NA
HETATM    4  N   UNL     1     -44.613  55.370 -54.215  1.00  0.00    -0.262 N 
HETATM    5  H   UNL     1     -45.625  55.359 -54.266  1.00  0.00     0.191 HD
HETATM    6  C   UNL     1     -43.811  56.254 -53.552  1.00  0.00     0.134 C 
HETATM    7  C   UNL     1     -42.514  55.804 -53.714  1.00  0.00     0.032 C 
HETATM    8  C   UNL     1     -41.245  56.221 -53.021  1.00  0.00     0.120 C 
HETATM    9  S   UNL     1     -40.974  57.989 -52.663  1.00  0.00    -0.141 SA
HETATM   10  C   UNL     1     -42.405  58.781 -53.457  1.00  0.00     0.136 C 
HETATM   11  C   UNL     1     -42.129  60.286 -53.508  1.00  0.00     0.031 C 
HETATM   12  C   UNL     1     -43.695  58.512 -52.677  1.00  0.00     0.236 C 
HETATM   13  O   UNL     1     -44.239  59.357 -51.961  1.00  0.00    -0.272 OA
HETATM   14  N   UNL     1     -44.342  57.318 -52.867  1.00  0.00    -0.311 N 
HETATM   15  H   UNL     1     -45.307  57.311 -52.556  1.00  0.00     0.170 HD
ENDROOT
BRANCH   8  16
HETATM   16  C   UNL     1     -41.176  55.368 -51.743  1.00  0.00    -0.029 A 
HETATM   17  C   UNL     1     -40.661  54.029 -51.727  1.00  0.00    -0.018 A 
HETATM   18  C   UNL     1     -40.688  53.302 -50.503  1.00  0.00    -0.025 A 
HETATM   19  C   UNL     1     -40.109  53.353 -52.845  1.00  0.00     0.013 A 
HETATM   20  C   UNL     1     -40.222  51.979 -50.444  1.00  0.00     0.012 A 
HETATM   21  C   UNL     1     -41.180  53.896 -49.335  1.00  0.00     0.012 A 
HETATM   22  C   UNL     1     -39.714  51.343 -51.572  1.00  0.00     0.001 A 
HETATM   23  C   UNL     1     -39.651  52.034 -52.772  1.00  0.00     0.001 A 
HETATM   24  C   UNL     1     -41.653  55.199 -49.343  1.00  0.00     0.002 A 
HETATM   25  C   UNL     1     -41.656  55.920 -50.530  1.00  0.00     0.009 A 
ENDBRANCH   8  16
TORSDOF 1
ENDMDL
MODEL 5
REMARK VINA RESULT:      -7.7      1.936      2.460
REMARK  1 active torsions:
REMARK  status: ('A' for Active; 'I' for Inactive)
REMARK    1  A    between atoms: C_8  and  C_9 
ROOT
HETATM    1  C   UNL     1     -39.896  58.718 -50.705  1.00  0.00     0.073 C 
HETATM    2  C   UNL     1     -40.681  58.863 -51.959  1.00  0.00     0.062 C 
HETATM    3  N   UNL     1     -40.091  59.424 -53.021  1.00  0.00    -0.178 NA
HETATM    4  N   UNL     1     -41.024  59.365 -53.976  1.00  0.00    -0.262 N 
HETATM    5  H   UNL     1     -40.791  59.726 -54.893  1.00  0.00     0.191 HD
HETATM    6  C   UNL     1     -42.238  58.932 -53.522  1.00  0.00     0.134 C 
HETATM    7  C   UNL     1     -42.030  58.462 -52.238  1.00  0.00     0.032 C 
HETATM    8  C   UNL     1     -42.927  57.653 -51.341  1.00  0.00     0.120 C 
HETATM    9  S   UNL     1     -44.713  58.029 -51.307  1.00  0.00    -0.141 SA
HETATM   10  C   UNL     1     -44.832  59.497 -52.372  1.00  0.00     0.136 C 
HETATM   11  C   UNL     1     -46.223  60.103 -52.167  1.00  0.00     0.031 C 
HETATM   12  C   UNL     1     -44.631  59.133 -53.846  1.00  0.00     0.236 C 
HETATM   13  O   UNL     1     -45.559  59.068 -54.656  1.00  0.00    -0.272 OA
HETATM   14  N   UNL     1     -43.353  58.983 -54.319  1.00  0.00    -0.311 N 
HETATM   15  H   UNL     1     -43.273  59.026 -55.329  1.00  0.00     0.170 HD
ENDROOT
BRANCH   8  16
HETATM   16  C   UNL     1     -42.666  56.184 -51.715  1.00  0.00    -0.029 A 
HETATM   17  C   UNL     1     -41.918  55.289 -50.879  1.00  0.00    -0.018 A 
HETATM   18  C   UNL     1     -41.685  53.962 -51.338  1.00  0.00    -0.025 A 
HETATM   19  C   UNL     1     -41.385  55.615 -49.606  1.00  0.00     0.013 A 
HETATM   20  C   UNL     1     -40.935  53.058 -50.569  1.00  0.00     0.012 A 
HETATM   21  C   UNL     1     -42.203  53.533 -52.566  1.00  0.00     0.012 A 
HETATM   22  C   UNL     1     -40.405  53.427 -49.337  1.00  0.00     0.001 A 
HETATM   23  C   UNL     1     -40.636  54.705 -48.852  1.00  0.00     0.001 A 
HETATM   24  C   UNL     1     -42.949  54.389 -53.361  1.00  0.00     0.002 A 
HETATM   25  C   UNL     1     -43.171  55.695 -52.944  1.00  0.00     0.009 A 
ENDBRANCH   8  16
TORSDOF 1
ENDMDL
MODEL 6
REMARK VINA RESULT:      -7.3     15.544     17.832
REMARK  1 active torsions:
REMARK  status: ('A' for Active; 'I' for Inactive)
REMARK    1  A    between atoms: C_8  and  C_9 
ROOT
HETATM    1  C   UNL     1     -33.884  37.540 -57.294  1.00  0.00     0.073 C 
HETATM    2  C   UNL     1     -33.730  38.874 -56.657  1.00  0.00     0.062 C 
HETATM    3  N   UNL     1     -32.502  39.394 -56.551  1.00  0.00    -0.178 NA
HETATM    4  N   UNL     1     -32.706  40.590 -55.991  1.00  0.00    -0.262 N 
HETATM    5  H   UNL     1     -31.902  41.182 -55.824  1.00  0.00     0.191 HD
HETATM    6  C   UNL     1     -33.998  40.789 -55.593  1.00  0.00     0.134 C 
HETATM    7  C   UNL     1     -34.737  39.750 -56.128  1.00  0.00     0.032 C 
HETATM    8  C   UNL     1     -36.226  39.568 -56.235  1.00  0.00     0.120 C 
HETATM    9  S   UNL     1     -37.280  40.081 -54.836  1.00  0.00    -0.141 SA
HETATM   10  C   UNL     1     -36.063  40.571 -53.578  1.00  0.00     0.136 C 
HETATM   11  C   UNL     1     -36.807  40.714 -52.248  1.00  0.00     0.031 C 
HETATM   12  C   UNL     1     -35.387  41.896 -53.944  1.00  0.00     0.236 C 
HETATM   13  O   UNL     1     -35.662  42.967 -53.397  1.00  0.00    -0.272 OA
HETATM   14  N   UNL     1     -34.348  41.880 -54.839  1.00  0.00    -0.311 N 
HETATM   15  H   UNL     1     -33.771  42.714 -54.825  1.00  0.00     0.170 HD
ENDROOT
BRANCH   8  16
HETATM   16  C   UNL     1     -36.635  40.275 -57.538  1.00  0.00    -0.029 A 
HETATM   17  C   UNL     1     -36.984  39.564 -58.734  1.00  0.00    -0.018 A 
HETATM   18  C   UNL     1     -37.296  40.309 -59.905  1.00  0.00    -0.025 A 
HETATM   19  C   UNL     1     -37.052  38.152 -58.853  1.00  0.00     0.013 A 
HETATM   20  C   UNL     1     -37.615  39.658 -61.107  1.00  0.00     0.012 A 
HETATM   21  C   UNL     1     -37.292  41.709 -59.879  1.00  0.00     0.012 A 
HETATM   22  C   UNL     1     -37.644  38.269 -61.188  1.00  0.00     0.001 A 
HETATM   23  C   UNL     1     -37.369  37.517 -60.058  1.00  0.00     0.001 A 
HETATM   24  C   UNL     1     -36.982  42.398 -58.716  1.00  0.00     0.002 A 
HETATM   25  C   UNL     1     -36.652  41.692 -57.567  1.00  0.00     0.009 A 
ENDBRANCH   8  16
TORSDOF 1
ENDMDL
MODEL 7
REMARK VINA RESULT:      -7.3      2.486      3.613
REMARK  1 active torsions:
REMARK  status: ('A' for Active; 'I' for Inactive)
REMARK    1  A    between atoms: C_8  and  C_9 
ROOT
HETATM    1  C   UNL     1     -42.216  57.729 -57.110  1.00  0.00     0.073 C 
HETATM    2  C   UNL     1     -43.194  57.413 -56.037  1.00  0.00     0.062 C 
HETATM    3  N   UNL     1     -44.467  57.183 -56.378  1.00  0.00    -0.178 NA
HETATM    4  N   UNL     1     -45.063  56.889 -55.220  1.00  0.00    -0.262 N 
HETATM    5  H   UNL     1     -46.050  56.661 -55.236  1.00  0.00     0.191 HD
HETATM    6  C   UNL     1     -44.257  57.076 -54.133  1.00  0.00     0.134 C 
HETATM    7  C   UNL     1     -42.982  57.288 -54.623  1.00  0.00     0.032 C 
HETATM    8  C   UNL     1     -41.656  57.308 -53.912  1.00  0.00     0.120 C 
HETATM    9  S   UNL     1     -41.549  58.093 -52.267  1.00  0.00    -0.141 SA
HETATM   10  C   UNL     1     -43.214  58.790 -52.048  1.00  0.00     0.136 C 
HETATM   11  C   UNL     1     -43.159  59.748 -50.856  1.00  0.00     0.031 C 
HETATM   12  C   UNL     1     -44.248  57.690 -51.788  1.00  0.00     0.236 C 
HETATM   13  O   UNL     1     -44.724  57.463 -50.673  1.00  0.00    -0.272 OA
HETATM   14  N   UNL     1     -44.757  56.999 -52.857  1.00  0.00    -0.311 N 
HETATM   15  H   UNL     1     -45.618  56.500 -52.661  1.00  0.00     0.170 HD
ENDROOT
BRANCH   8  16
HETATM   16  C   UNL     1     -41.189  55.843 -53.870  1.00  0.00    -0.029 A 
HETATM   17  C   UNL     1     -41.138  55.076 -52.659  1.00  0.00    -0.018 A 
HETATM   18  C   UNL     1     -40.641  53.744 -52.716  1.00  0.00    -0.025 A 
HETATM   19  C   UNL     1     -41.555  55.536 -51.383  1.00  0.00     0.013 A 
HETATM   20  C   UNL     1     -40.544  52.964 -51.552  1.00  0.00     0.012 A 
HETATM   21  C   UNL     1     -40.239  53.186 -53.935  1.00  0.00     0.012 A 
HETATM   22  C   UNL     1     -40.938  53.463 -50.315  1.00  0.00     0.001 A 
HETATM   23  C   UNL     1     -41.450  54.748 -50.233  1.00  0.00     0.001 A 
HETATM   24  C   UNL     1     -40.314  53.918 -55.111  1.00  0.00     0.002 A 
HETATM   25  C   UNL     1     -40.776  55.227 -55.077  1.00  0.00     0.009 A 
ENDBRANCH   8  16
TORSDOF 1
ENDMDL
MODEL 8
REMARK VINA RESULT:      -7.1      2.014      2.686
REMARK  1 active torsions:
REMARK  status: ('A' for Active; 'I' for Inactive)
REMARK    1  A    between atoms: C_8  and  C_9 
ROOT
HETATM    1  C   UNL     1     -40.716  56.250 -49.986  1.00  0.00     0.073 C 
HETATM    2  C   UNL     1     -40.979  57.534 -50.687  1.00  0.00     0.062 C 
HETATM    3  N   UNL     1     -40.091  58.527 -50.559  1.00  0.00    -0.178 NA
HETATM    4  N   UNL     1     -40.584  59.501 -51.330  1.00  0.00    -0.262 N 
HETATM    5  H   UNL     1     -40.059  60.364 -51.401  1.00  0.00     0.191 HD
HETATM    6  C   UNL     1     -41.829  59.227 -51.820  1.00  0.00     0.134 C 
HETATM    7  C   UNL     1     -42.076  57.895 -51.540  1.00  0.00     0.032 C 
HETATM    8  C   UNL     1     -43.159  56.979 -52.041  1.00  0.00     0.120 C 
HETATM    9  S   UNL     1     -44.853  57.633 -52.223  1.00  0.00    -0.141 SA
HETATM   10  C   UNL     1     -44.708  59.313 -51.545  1.00  0.00     0.136 C 
HETATM   11  C   UNL     1     -46.126  59.852 -51.342  1.00  0.00     0.031 C 
HETATM   12  C   UNL     1     -43.930  60.231 -52.493  1.00  0.00     0.236 C 
HETATM   13  O   UNL     1     -44.471  61.085 -53.199  1.00  0.00    -0.272 OA
HETATM   14  N   UNL     1     -42.559  60.184 -52.477  1.00  0.00    -0.311 N 
HETATM   15  H   UNL     1     -42.109  60.988 -52.900  1.00  0.00     0.170 HD
ENDROOT
BRANCH   8  16
HETATM   16  C   UNL     1     -42.630  56.403 -53.365  1.00  0.00    -0.029 A 
HETATM   17  C   UNL     1     -41.922  55.157 -53.446  1.00  0.00    -0.018 A 
HETATM   18  C   UNL     1     -41.426  54.735 -54.711  1.00  0.00    -0.025 A 
HETATM   19  C   UNL     1     -41.673  54.288 -52.353  1.00  0.00     0.013 A 
HETATM   20  C   UNL     1     -40.702  53.538 -54.835  1.00  0.00     0.012 A 
HETATM   21  C   UNL     1     -41.653  55.506 -55.857  1.00  0.00     0.012 A 
HETATM   22  C   UNL     1     -40.456  52.728 -53.731  1.00  0.00     0.001 A 
HETATM   23  C   UNL     1     -40.948  53.101 -52.491  1.00  0.00     0.001 A 
HETATM   24  C   UNL     1     -42.361  56.696 -55.785  1.00  0.00     0.002 A 
HETATM   25  C   UNL     1     -42.836  57.140 -54.558  1.00  0.00     0.009 A 
ENDBRANCH   8  16
TORSDOF 1
ENDMDL
MODEL 9
REMARK VINA RESULT:      -7.0      3.311      5.507
REMARK  1 active torsions:
REMARK  status: ('A' for Active; 'I' for Inactive)
REMARK    1  A    between atoms: C_8  and  C_9 
ROOT
HETATM    1  C   UNL     1     -45.139  59.737 -53.896  1.00  0.00     0.073 C 
HETATM    2  C   UNL     1     -44.606  58.919 -52.776  1.00  0.00     0.062 C 
HETATM    3  N   UNL     1     -45.416  58.634 -51.749  1.00  0.00    -0.178 NA
HETATM    4  N   UNL     1     -44.668  57.863 -50.954  1.00  0.00    -0.262 N 
HETATM    5  H   UNL     1     -45.088  57.509 -50.103  1.00  0.00     0.191 HD
HETATM    6  C   UNL     1     -43.366  57.773 -51.355  1.00  0.00     0.134 C 
HETATM    7  C   UNL     1     -43.304  58.335 -52.617  1.00  0.00     0.032 C 
HETATM    8  C   UNL     1     -42.206  58.303 -53.645  1.00  0.00     0.120 C 
HETATM    9  S   UNL     1     -40.475  58.462 -53.091  1.00  0.00    -0.141 SA
HETATM   10  C   UNL     1     -40.652  58.777 -51.309  1.00  0.00     0.136 C 
HETATM   11  C   UNL     1     -39.293  59.249 -50.787  1.00  0.00     0.031 C 
HETATM   12  C   UNL     1     -41.090  57.513 -50.562  1.00  0.00     0.236 C 
HETATM   13  O   UNL     1     -40.321  56.837 -49.873  1.00  0.00    -0.272 OA
HETATM   14  N   UNL     1     -42.419  57.176 -50.561  1.00  0.00    -0.311 N 
HETATM   15  H   UNL     1     -42.683  56.516 -49.838  1.00  0.00     0.170 HD
ENDROOT
BRANCH   8  16
HETATM   16  C   UNL     1     -42.427  57.007 -54.442  1.00  0.00    -0.029 A 
HETATM   17  C   UNL     1     -42.604  56.989 -55.866  1.00  0.00    -0.018 A 
HETATM   18  C   UNL     1     -42.855  55.744 -56.507  1.00  0.00    -0.025 A 
HETATM   19  C   UNL     1     -42.542  58.128 -56.711  1.00  0.00     0.013 A 
HETATM   20  C   UNL     1     -43.063  55.679 -57.894  1.00  0.00     0.012 A 
HETATM   21  C   UNL     1     -42.898  54.558 -55.764  1.00  0.00     0.012 A 
HETATM   22  C   UNL     1     -43.022  56.825 -58.683  1.00  0.00     0.001 A 
HETATM   23  C   UNL     1     -42.754  58.048 -58.090  1.00  0.00     0.001 A 
HETATM   24  C   UNL     1     -42.701  54.571 -54.392  1.00  0.00     0.002 A 
HETATM   25  C   UNL     1     -42.475  55.777 -53.742  1.00  0.00     0.009 A 
ENDBRANCH   8  16
TORSDOF 1
ENDMDL
MODEL 10
REMARK VINA RESULT:      -6.8      3.018      5.326
REMARK  1 active torsions:
REMARK  status: ('A' for Active; 'I' for Inactive)
REMARK    1  A    between atoms: C_8  and  C_9 
ROOT
HETATM    1  C   UNL     1     -41.046  55.465 -53.638  1.00  0.00     0.073 C 
HETATM    2  C   UNL     1     -42.450  55.747 -54.035  1.00  0.00     0.062 C 
HETATM    3  N   UNL     1     -43.363  54.781 -53.889  1.00  0.00    -0.178 NA
HETATM    4  N   UNL     1     -44.504  55.353 -54.282  1.00  0.00    -0.262 N 
HETATM    5  H   UNL     1     -45.353  54.802 -54.243  1.00  0.00     0.191 HD
HETATM    6  C   UNL     1     -44.330  56.596 -54.821  1.00  0.00     0.134 C 
HETATM    7  C   UNL     1     -43.020  56.956 -54.558  1.00  0.00     0.032 C 
HETATM    8  C   UNL     1     -42.331  58.287 -54.689  1.00  0.00     0.120 C 
HETATM    9  S   UNL     1     -42.718  59.344 -56.126  1.00  0.00    -0.141 SA
HETATM   10  C   UNL     1     -43.821  58.288 -57.113  1.00  0.00     0.136 C 
HETATM   11  C   UNL     1     -43.958  58.930 -58.495  1.00  0.00     0.031 C 
HETATM   12  C   UNL     1     -45.200  58.158 -56.458  1.00  0.00     0.236 C 
HETATM   13  O   UNL     1     -46.200  58.754 -56.867  1.00  0.00    -0.272 OA
HETATM   14  N   UNL     1     -45.363  57.253 -55.440  1.00  0.00    -0.311 N 
HETATM   15  H   UNL     1     -46.328  57.011 -55.246  1.00  0.00     0.170 HD
ENDROOT
BRANCH   8  16
HETATM   16  C   UNL     1     -42.596  59.019 -53.362  1.00  0.00    -0.029 A 
HETATM   17  C   UNL     1     -41.581  59.221 -52.368  1.00  0.00    -0.018 A 
HETATM   18  C   UNL     1     -41.938  59.864 -51.150  1.00  0.00    -0.025 A 
HETATM   19  C   UNL     1     -40.223  58.835 -52.499  1.00  0.00     0.013 A 
HETATM   20  C   UNL     1     -40.987  60.058 -50.135  1.00  0.00     0.012 A 
HETATM   21  C   UNL     1     -43.247  60.315 -50.941  1.00  0.00     0.012 A 
HETATM   22  C   UNL     1     -39.670  59.638 -50.293  1.00  0.00     0.001 A 
HETATM   23  C   UNL     1     -39.287  59.032 -51.478  1.00  0.00     0.001 A 
HETATM   24  C   UNL     1     -44.222  60.145 -51.912  1.00  0.00     0.002 A 
HETATM   25  C   UNL     1     -43.902  59.502 -53.100  1.00  0.00     0.009 A 
ENDBRANCH   8  16
TORSDOF 1
ENDMDL
