MODEL 1
REMARK VINA RESULT:      -8.8      0.000      0.000
REMARK  5 active torsions:
REMARK  status: ('A' for Active; 'I' for Inactive)
REMARK    1  A    between atoms: C_5  and  C_6 
REMARK    2  A    between atoms: C_6  and  O_7 
REMARK    3  A    between atoms: O_7  and  C_8 
REMARK    4  A    between atoms: C_12  and  C_13 
REMARK    5  A    between atoms: C_30  and  O_31 
ROOT
HETATM    1  C   UNL     1     -43.418  56.010 -53.021  1.00  0.00     0.130 A 
HETATM    2  C   UNL     1     -43.901  57.085 -53.785  1.00  0.00     0.048 A 
HETATM    3 BR   UNL     1     -43.659  57.170 -55.667  1.00  0.00    -0.048 Br
HETATM    4  C   UNL     1     -44.574  58.142 -53.168  1.00  0.00     0.033 A 
HETATM    5  C   UNL     1     -44.744  58.163 -51.775  1.00  0.00    -0.012 A 
HETATM    6  C   UNL     1     -44.231  57.090 -51.025  1.00  0.00     0.050 A 
HETATM    7  C   UNL     1     -43.550  56.024 -51.628  1.00  0.00     0.104 A 
ENDROOT
BRANCH   5   8
HETATM    8  C   UNL     1     -45.509  59.266 -51.078  1.00  0.00     0.219 C 
HETATM    9  N   UNL     1     -45.097  60.552 -51.575  1.00  0.00    -0.332 N 
HETATM   10  C   UNL     1     -45.424  61.718 -50.935  1.00  0.00     0.256 C 
HETATM   11  H   UNL     1     -44.952  60.649 -52.570  1.00  0.00     0.165 HD
HETATM   12  O   UNL     1     -45.433  62.800 -51.509  1.00  0.00    -0.267 OA
HETATM   13  C   UNL     1     -45.716  61.579 -49.518  1.00  0.00     0.073 A 
HETATM   14  C   UNL     1     -45.628  60.333 -48.939  1.00  0.00     0.088 A 
HETATM   15  C   UNL     1     -46.069  62.585 -48.565  1.00  0.00    -0.023 A 
HETATM   16  S   UNL     1     -45.925  60.367 -47.266  1.00  0.00    -0.074 SA
HETATM   17  N   UNL     1     -45.318  59.221 -49.638  1.00  0.00    -0.358 N 
HETATM   18  C   UNL     1     -46.175  62.052 -47.293  1.00  0.00     0.018 A 
HETATM   19  C   UNL     1     -46.488  62.830 -46.061  1.00  0.00     0.281 C 
HETATM   20  N   UNL     1     -46.315  64.328 -46.294  1.00  0.00    -0.070 N 
HETATM   21  C   UNL     1     -46.917  64.760 -47.629  1.00  0.00     0.239 C 
HETATM   22  H   UNL     1     -46.862  64.794 -45.560  1.00  0.00     0.279 HD
HETATM   23  C   UNL     1     -44.895  64.782 -46.110  1.00  0.00     0.270 C 
HETATM   24  C   UNL     1     -46.254  64.051 -48.824  1.00  0.00     0.068 C 
HETATM   25  H   UNL     1     -45.495  58.311 -49.219  1.00  0.00     0.162 HD
ENDBRANCH   5   8
BRANCH   7  26
HETATM   26  O   UNL     1     -43.127  55.081 -50.733  1.00  0.00    -0.353 OA
HETATM   27  C   UNL     1     -42.048  55.424 -49.874  1.00  0.00     0.210 C 
ENDBRANCH   7  26
BRANCH   1  28
HETATM   28  O   UNL     1     -42.791  54.943 -53.671  1.00  0.00    -0.271 OA
BRANCH  28  29
HETATM   29  C   UNL     1     -41.411  55.006 -53.573  1.00  0.00     0.298 C 
HETATM   30  O   UNL     1     -40.718  56.012 -53.593  1.00  0.00    -0.259 OA
BRANCH  29  31
HETATM   31  C   UNL     1     -40.869  53.636 -53.367  1.00  0.00     0.040 A 
HETATM   32  C   UNL     1     -40.900  52.746 -54.447  1.00  0.00     0.018 A 
HETATM   33  C   UNL     1     -40.381  51.456 -54.313  1.00  0.00     0.007 A 
HETATM   34  C   UNL     1     -39.824  51.040 -53.099  1.00  0.00    -0.062 A 
HETATM   35  C   UNL     1     -39.289  49.646 -52.944  1.00  0.00     0.048 C 
HETATM   36  C   UNL     1     -39.819  51.922 -52.011  1.00  0.00     0.007 A 
HETATM   37  C   UNL     1     -40.333  53.215 -52.143  1.00  0.00     0.018 A 
ENDBRANCH  29  31
ENDBRANCH  28  29
ENDBRANCH   1  28
TORSDOF 5
ENDMDL
MODEL 2
REMARK VINA RESULT:      -8.8      2.230      3.091
REMARK  5 active torsions:
REMARK  status: ('A' for Active; 'I' for Inactive)
REMARK    1  A    between atoms: C_5  and  C_6 
REMARK    2  A    between atoms: C_6  and  O_7 
REMARK    3  A    between atoms: O_7  and  C_8 
REMARK    4  A    between atoms: C_12  and  C_13 
REMARK    5  A    between atoms: C_30  and  O_31 
ROOT
HETATM    1  C   UNL     1     -43.028  55.718 -53.218  1.00  0.00     0.130 A 
HETATM    2  C   UNL     1     -43.091  56.007 -51.845  1.00  0.00     0.048 A 
HETATM    3 BR   UNL     1     -42.635  54.719 -50.525  1.00  0.00    -0.048 Br
HETATM    4  C   UNL     1     -43.507  57.266 -51.408  1.00  0.00     0.033 A 
HETATM    5  C   UNL     1     -43.903  58.247 -52.331  1.00  0.00    -0.012 A 
HETATM    6  C   UNL     1     -43.857  57.930 -53.700  1.00  0.00     0.050 A 
HETATM    7  C   UNL     1     -43.445  56.670 -54.155  1.00  0.00     0.104 A 
ENDROOT
BRANCH   5   8
HETATM    8  C   UNL     1     -44.313  59.636 -51.896  1.00  0.00     0.219 C 
HETATM    9  N   UNL     1     -44.454  59.692 -50.465  1.00  0.00    -0.332 N 
HETATM   10  C   UNL     1     -45.073  60.739 -49.836  1.00  0.00     0.256 C 
HETATM   11  H   UNL     1     -43.760  59.220 -49.904  1.00  0.00     0.165 HD
HETATM   12  O   UNL     1     -44.873  61.006 -48.657  1.00  0.00    -0.267 OA
HETATM   13  C   UNL     1     -46.015  61.479 -50.659  1.00  0.00     0.073 A 
HETATM   14  C   UNL     1     -46.223  61.077 -51.959  1.00  0.00     0.088 A 
HETATM   15  C   UNL     1     -46.832  62.601 -50.311  1.00  0.00    -0.023 A 
HETATM   16  S   UNL     1     -47.410  62.003 -52.748  1.00  0.00    -0.074 SA
HETATM   17  N   UNL     1     -45.560  60.044 -52.521  1.00  0.00    -0.358 N 
HETATM   18  C   UNL     1     -47.663  62.956 -51.359  1.00  0.00     0.018 A 
HETATM   19  C   UNL     1     -48.670  64.054 -51.319  1.00  0.00     0.281 C 
HETATM   20  N   UNL     1     -48.944  64.502 -49.887  1.00  0.00    -0.070 N 
HETATM   21  C   UNL     1     -47.650  64.638 -49.087  1.00  0.00     0.239 C 
HETATM   22  H   UNL     1     -49.347  65.444 -49.958  1.00  0.00     0.279 HD
HETATM   23  C   UNL     1     -49.977  63.654 -49.202  1.00  0.00     0.270 C 
HETATM   24  C   UNL     1     -46.882  63.308 -48.990  1.00  0.00     0.068 C 
HETATM   25  H   UNL     1     -45.577  59.941 -53.533  1.00  0.00     0.162 HD
ENDBRANCH   5   8
BRANCH   7  26
HETATM   26  O   UNL     1     -43.471  56.556 -55.517  1.00  0.00    -0.353 OA
HETATM   27  C   UNL     1     -42.489  57.267 -56.258  1.00  0.00     0.210 C 
ENDBRANCH   7  26
BRANCH   1  28
HETATM   28  O   UNL     1     -42.562  54.466 -53.627  1.00  0.00    -0.271 OA
BRANCH  28  29
HETATM   29  C   UNL     1     -41.187  54.444 -53.792  1.00  0.00     0.298 C 
HETATM   30  O   UNL     1     -40.468  55.384 -54.093  1.00  0.00    -0.259 OA
BRANCH  29  31
HETATM   31  C   UNL     1     -40.675  53.083 -53.475  1.00  0.00     0.040 A 
HETATM   32  C   UNL     1     -40.747  52.104 -54.473  1.00  0.00     0.018 A 
HETATM   33  C   UNL     1     -40.258  50.817 -54.235  1.00  0.00     0.007 A 
HETATM   34  C   UNL     1     -39.689  50.493 -52.998  1.00  0.00    -0.062 A 
HETATM   35  C   UNL     1     -39.186  49.105 -52.730  1.00  0.00     0.048 C 
HETATM   36  C   UNL     1     -39.643  51.466 -51.991  1.00  0.00     0.007 A 
HETATM   37  C   UNL     1     -40.128  52.756 -52.228  1.00  0.00     0.018 A 
ENDBRANCH  29  31
ENDBRANCH  28  29
ENDBRANCH   1  28
TORSDOF 5
ENDMDL
MODEL 3
REMARK VINA RESULT:      -8.6      1.896      2.569
REMARK  5 active torsions:
REMARK  status: ('A' for Active; 'I' for Inactive)
REMARK    1  A    between atoms: C_5  and  C_6 
REMARK    2  A    between atoms: C_6  and  O_7 
REMARK    3  A    between atoms: O_7  and  C_8 
REMARK    4  A    between atoms: C_12  and  C_13 
REMARK    5  A    between atoms: C_30  and  O_31 
ROOT
HETATM    1  C   UNL     1     -42.759  56.121 -53.254  1.00  0.00     0.130 A 
HETATM    2  C   UNL     1     -43.192  57.149 -54.107  1.00  0.00     0.048 A 
HETATM    3 BR   UNL     1     -43.226  56.941 -55.995  1.00  0.00    -0.048 Br
HETATM    4  C   UNL     1     -43.606  58.375 -53.580  1.00  0.00     0.033 A 
HETATM    5  C   UNL     1     -43.559  58.610 -52.197  1.00  0.00    -0.012 A 
HETATM    6  C   UNL     1     -43.099  57.577 -51.361  1.00  0.00     0.050 A 
HETATM    7  C   UNL     1     -42.677  56.342 -51.874  1.00  0.00     0.104 A 
ENDROOT
BRANCH   5   8
HETATM    8  C   UNL     1     -44.045  59.906 -51.588  1.00  0.00     0.219 C 
HETATM    9  N   UNL     1     -44.497  59.688 -50.240  1.00  0.00    -0.332 N 
HETATM   10  C   UNL     1     -45.233  60.622 -49.560  1.00  0.00     0.256 C 
HETATM   11  H   UNL     1     -43.948  59.079 -49.651  1.00  0.00     0.165 HD
HETATM   12  O   UNL     1     -45.296  60.641 -48.337  1.00  0.00    -0.267 OA
HETATM   13  C   UNL     1     -45.964  61.557 -50.399  1.00  0.00     0.073 A 
HETATM   14  C   UNL     1     -45.882  61.429 -51.767  1.00  0.00     0.088 A 
HETATM   15  C   UNL     1     -46.829  62.630 -50.015  1.00  0.00    -0.023 A 
HETATM   16  S   UNL     1     -46.858  62.552 -52.589  1.00  0.00    -0.074 SA
HETATM   17  N   UNL     1     -45.119  60.493 -52.371  1.00  0.00    -0.358 N 
HETATM   18  C   UNL     1     -47.405  63.226 -51.123  1.00  0.00     0.018 A 
HETATM   19  C   UNL     1     -48.387  64.346 -51.079  1.00  0.00     0.281 C 
HETATM   20  N   UNL     1     -48.968  64.519 -49.678  1.00  0.00    -0.070 N 
HETATM   21  C   UNL     1     -47.882  64.427 -48.608  1.00  0.00     0.239 C 
HETATM   22  H   UNL     1     -49.338  65.476 -49.642  1.00  0.00     0.279 HD
HETATM   23  C   UNL     1     -50.133  63.607 -49.418  1.00  0.00     0.270 C 
HETATM   24  C   UNL     1     -47.164  63.066 -48.620  1.00  0.00     0.068 C 
HETATM   25  H   UNL     1     -44.913  60.591 -53.362  1.00  0.00     0.162 HD
ENDBRANCH   5   8
BRANCH   7  26
HETATM   26  O   UNL     1     -42.264  55.471 -50.905  1.00  0.00    -0.353 OA
HETATM   27  C   UNL     1     -41.368  55.960 -49.916  1.00  0.00     0.210 C 
ENDBRANCH   7  26
BRANCH   1  28
HETATM   28  O   UNL     1     -42.397  54.889 -53.804  1.00  0.00    -0.271 OA
BRANCH  28  29
HETATM   29  C   UNL     1     -41.028  54.774 -53.981  1.00  0.00     0.298 C 
HETATM   30  O   UNL     1     -40.253  55.660 -54.307  1.00  0.00    -0.259 OA
BRANCH  29  31
HETATM   31  C   UNL     1     -40.602  53.389 -53.644  1.00  0.00     0.040 A 
HETATM   32  C   UNL     1     -40.232  53.118 -52.321  1.00  0.00     0.018 A 
HETATM   33  C   UNL     1     -39.848  51.828 -51.946  1.00  0.00     0.007 A 
HETATM   34  C   UNL     1     -39.831  50.793 -52.888  1.00  0.00    -0.062 A 
HETATM   35  C   UNL     1     -39.394  49.412 -52.495  1.00  0.00     0.048 C 
HETATM   36  C   UNL     1     -40.175  51.072 -54.217  1.00  0.00     0.007 A 
HETATM   37  C   UNL     1     -40.564  52.361 -54.594  1.00  0.00     0.018 A 
ENDBRANCH  29  31
ENDBRANCH  28  29
ENDBRANCH   1  28
TORSDOF 5
ENDMDL
MODEL 4
REMARK VINA RESULT:      -8.0      6.453      8.666
REMARK  5 active torsions:
REMARK  status: ('A' for Active; 'I' for Inactive)
REMARK    1  A    between atoms: C_5  and  C_6 
REMARK    2  A    between atoms: C_6  and  O_7 
REMARK    3  A    between atoms: O_7  and  C_8 
REMARK    4  A    between atoms: C_12  and  C_13 
REMARK    5  A    between atoms: C_30  and  O_31 
ROOT
HETATM    1  C   UNL     1     -42.136  56.181 -54.915  1.00  0.00     0.130 A 
HETATM    2  C   UNL     1     -41.892  57.407 -54.276  1.00  0.00     0.048 A 
HETATM    3 BR   UNL     1     -41.303  57.502 -52.472  1.00  0.00    -0.048 Br
HETATM    4  C   UNL     1     -42.089  58.610 -54.959  1.00  0.00     0.033 A 
HETATM    5  C   UNL     1     -42.569  58.610 -56.278  1.00  0.00    -0.012 A 
HETATM    6  C   UNL     1     -42.831  57.373 -56.892  1.00  0.00     0.050 A 
HETATM    7  C   UNL     1     -42.642  56.158 -56.220  1.00  0.00     0.104 A 
ENDROOT
BRANCH   5   8
HETATM    8  C   UNL     1     -42.748  59.890 -57.065  1.00  0.00     0.219 C 
HETATM    9  N   UNL     1     -43.592  59.662 -58.207  1.00  0.00    -0.332 N 
HETATM   10  C   UNL     1     -43.695  60.569 -59.228  1.00  0.00     0.256 C 
HETATM   11  H   UNL     1     -44.408  59.079 -58.083  1.00  0.00     0.165 HD
HETATM   12  O   UNL     1     -44.656  60.593 -59.988  1.00  0.00    -0.267 OA
HETATM   13  C   UNL     1     -42.562  61.468 -59.366  1.00  0.00     0.073 A 
HETATM   14  C   UNL     1     -41.498  61.335 -58.505  1.00  0.00     0.088 A 
HETATM   15  C   UNL     1     -42.345  62.507 -60.325  1.00  0.00    -0.023 A 
HETATM   16  S   UNL     1     -40.231  62.413 -58.858  1.00  0.00    -0.074 SA
HETATM   17  N   UNL     1     -41.472  60.428 -57.505  1.00  0.00    -0.358 N 
HETATM   18  C   UNL     1     -41.092  63.073 -60.172  1.00  0.00     0.018 A 
HETATM   19  C   UNL     1     -40.529  64.152 -61.031  1.00  0.00     0.281 C 
HETATM   20  N   UNL     1     -41.330  64.310 -62.319  1.00  0.00    -0.070 N 
HETATM   21  C   UNL     1     -42.833  64.269 -62.051  1.00  0.00     0.239 C 
HETATM   22  H   UNL     1     -41.119  65.251 -62.671  1.00  0.00     0.279 HD
HETATM   23  C   UNL     1     -40.895  63.354 -63.393  1.00  0.00     0.270 C 
HETATM   24  C   UNL     1     -43.277  62.938 -61.418  1.00  0.00     0.068 C 
HETATM   25  H   UNL     1     -40.780  60.528 -56.767  1.00  0.00     0.162 HD
ENDBRANCH   5   8
BRANCH   7  26
HETATM   26  O   UNL     1     -42.954  55.067 -56.982  1.00  0.00    -0.353 OA
HETATM   27  C   UNL     1     -43.417  55.297 -58.306  1.00  0.00     0.210 C 
ENDBRANCH   7  26
BRANCH   1  28
HETATM   28  O   UNL     1     -41.884  54.993 -54.223  1.00  0.00    -0.271 OA
BRANCH  28  29
HETATM   29  C   UNL     1     -40.595  54.530 -54.425  1.00  0.00     0.298 C 
HETATM   30  O   UNL     1     -39.759  54.992 -55.187  1.00  0.00    -0.259 OA
BRANCH  29  31
HETATM   31  C   UNL     1     -40.332  53.390 -53.506  1.00  0.00     0.040 A 
HETATM   32  C   UNL     1     -40.020  52.147 -54.072  1.00  0.00     0.018 A 
HETATM   33  C   UNL     1     -39.740  51.050 -53.253  1.00  0.00     0.007 A 
HETATM   34  C   UNL     1     -39.767  51.182 -51.860  1.00  0.00    -0.062 A 
HETATM   35  C   UNL     1     -39.492  49.999 -50.977  1.00  0.00     0.048 C 
HETATM   36  C   UNL     1     -40.107  52.418 -51.296  1.00  0.00     0.007 A 
HETATM   37  C   UNL     1     -40.383  53.518 -52.113  1.00  0.00     0.018 A 
ENDBRANCH  29  31
ENDBRANCH  28  29
ENDBRANCH   1  28
TORSDOF 5
ENDMDL
MODEL 5
REMARK VINA RESULT:      -8.0      6.637      9.129
REMARK  5 active torsions:
REMARK  status: ('A' for Active; 'I' for Inactive)
REMARK    1  A    between atoms: C_5  and  C_6 
REMARK    2  A    between atoms: C_6  and  O_7 
REMARK    3  A    between atoms: O_7  and  C_8 
REMARK    4  A    between atoms: C_12  and  C_13 
REMARK    5  A    between atoms: C_30  and  O_31 
ROOT
HETATM    1  C   UNL     1     -42.363  56.881 -54.580  1.00  0.00     0.130 A 
HETATM    2  C   UNL     1     -42.730  56.490 -55.877  1.00  0.00     0.048 A 
HETATM    3 BR   UNL     1     -43.174  54.692 -56.298  1.00  0.00    -0.048 Br
HETATM    4  C   UNL     1     -42.769  57.428 -56.911  1.00  0.00     0.033 A 
HETATM    5  C   UNL     1     -42.406  58.764 -56.677  1.00  0.00    -0.012 A 
HETATM    6  C   UNL     1     -42.017  59.130 -55.377  1.00  0.00     0.050 A 
HETATM    7  C   UNL     1     -41.969  58.200 -54.329  1.00  0.00     0.104 A 
ENDROOT
BRANCH   5   8
HETATM    8  C   UNL     1     -42.483  59.816 -57.761  1.00  0.00     0.219 C 
HETATM    9  N   UNL     1     -42.210  59.231 -59.047  1.00  0.00    -0.332 N 
HETATM   10  C   UNL     1     -41.946  59.996 -60.152  1.00  0.00     0.256 C 
HETATM   11  H   UNL     1     -42.616  58.329 -59.251  1.00  0.00     0.165 HD
HETATM   12  O   UNL     1     -42.094  59.572 -61.292  1.00  0.00    -0.267 OA
HETATM   13  C   UNL     1     -41.438  61.328 -59.870  1.00  0.00     0.073 A 
HETATM   14  C   UNL     1     -41.248  61.704 -58.560  1.00  0.00     0.088 A 
HETATM   15  C   UNL     1     -41.051  62.359 -60.782  1.00  0.00    -0.023 A 
HETATM   16  S   UNL     1     -40.577  63.260 -58.417  1.00  0.00    -0.074 SA
HETATM   17  N   UNL     1     -41.549  60.903 -57.516  1.00  0.00    -0.358 N 
HETATM   18  C   UNL     1     -40.531  63.451 -60.109  1.00  0.00     0.018 A 
HETATM   19  C   UNL     1     -39.995  64.680 -60.757  1.00  0.00     0.281 C 
HETATM   20  N   UNL     1     -39.742  64.458 -62.245  1.00  0.00    -0.070 N 
HETATM   21  C   UNL     1     -40.896  63.703 -62.901  1.00  0.00     0.239 C 
HETATM   22  H   UNL     1     -39.719  65.392 -62.671  1.00  0.00     0.279 HD
HETATM   23  C   UNL     1     -38.400  63.840 -62.517  1.00  0.00     0.270 C 
HETATM   24  C   UNL     1     -41.112  62.312 -62.280  1.00  0.00     0.068 C 
HETATM   25  H   UNL     1     -41.611  61.309 -56.586  1.00  0.00     0.162 HD
ENDBRANCH   5   8
BRANCH   7  26
HETATM   26  O   UNL     1     -41.565  58.747 -53.143  1.00  0.00    -0.353 OA
HETATM   27  C   UNL     1     -40.168  58.856 -52.908  1.00  0.00     0.210 C 
ENDBRANCH   7  26
BRANCH   1  28
HETATM   28  O   UNL     1     -42.379  55.931 -53.555  1.00  0.00    -0.271 OA
BRANCH  28  29
HETATM   29  C   UNL     1     -41.143  55.333 -53.372  1.00  0.00     0.298 C 
HETATM   30  O   UNL     1     -40.286  55.145 -54.222  1.00  0.00    -0.259 OA
BRANCH  29  31
HETATM   31  C   UNL     1     -40.966  54.997 -51.934  1.00  0.00     0.040 A 
HETATM   32  C   UNL     1     -40.374  53.769 -51.613  1.00  0.00     0.018 A 
HETATM   33  C   UNL     1     -40.163  53.416 -50.278  1.00  0.00     0.007 A 
HETATM   34  C   UNL     1     -40.539  54.286 -49.247  1.00  0.00    -0.062 A 
HETATM   35  C   UNL     1     -40.336  53.899 -47.811  1.00  0.00     0.048 C 
HETATM   36  C   UNL     1     -41.156  55.501 -49.569  1.00  0.00     0.007 A 
HETATM   37  C   UNL     1     -41.364  55.859 -50.904  1.00  0.00     0.018 A 
ENDBRANCH  29  31
ENDBRANCH  28  29
ENDBRANCH   1  28
TORSDOF 5
ENDMDL
MODEL 6
REMARK VINA RESULT:      -7.9      3.591      4.710
REMARK  5 active torsions:
REMARK  status: ('A' for Active; 'I' for Inactive)
REMARK    1  A    between atoms: C_5  and  C_6 
REMARK    2  A    between atoms: C_6  and  O_7 
REMARK    3  A    between atoms: O_7  and  C_8 
REMARK    4  A    between atoms: C_12  and  C_13 
REMARK    5  A    between atoms: C_30  and  O_31 
ROOT
HETATM    1  C   UNL     1     -41.657  57.455 -53.642  1.00  0.00     0.130 A 
HETATM    2  C   UNL     1     -42.975  57.300 -54.099  1.00  0.00     0.048 A 
HETATM    3 BR   UNL     1     -43.621  55.641 -54.762  1.00  0.00    -0.048 Br
HETATM    4  C   UNL     1     -43.858  58.383 -54.086  1.00  0.00     0.033 A 
HETATM    5  C   UNL     1     -43.429  59.647 -53.654  1.00  0.00    -0.012 A 
HETATM    6  C   UNL     1     -42.098  59.788 -53.224  1.00  0.00     0.050 A 
HETATM    7  C   UNL     1     -41.199  58.713 -53.233  1.00  0.00     0.104 A 
ENDROOT
BRANCH   5   8
HETATM    8  C   UNL     1     -44.369  60.830 -53.581  1.00  0.00     0.219 C 
HETATM    9  N   UNL     1     -45.200  60.737 -52.410  1.00  0.00    -0.332 N 
HETATM   10  C   UNL     1     -46.313  61.518 -52.245  1.00  0.00     0.256 C 
HETATM   11  H   UNL     1     -44.769  60.438 -51.547  1.00  0.00     0.165 HD
HETATM   12  O   UNL     1     -46.798  61.742 -51.142  1.00  0.00    -0.267 OA
HETATM   13  C   UNL     1     -46.896  62.024 -53.476  1.00  0.00     0.073 A 
HETATM   14  C   UNL     1     -46.321  61.678 -54.677  1.00  0.00     0.088 A 
HETATM   15  C   UNL     1     -48.056  62.843 -53.657  1.00  0.00    -0.023 A 
HETATM   16  S   UNL     1     -47.175  62.290 -56.013  1.00  0.00    -0.074 SA
HETATM   17  N   UNL     1     -45.209  60.918 -54.764  1.00  0.00    -0.358 N 
HETATM   18  C   UNL     1     -48.330  63.028 -55.001  1.00  0.00     0.018 A 
HETATM   19  C   UNL     1     -49.488  63.793 -55.541  1.00  0.00     0.281 C 
HETATM   20  N   UNL     1     -50.540  64.039 -54.463  1.00  0.00    -0.070 N 
HETATM   21  C   UNL     1     -49.901  64.472 -53.146  1.00  0.00     0.239 C 
HETATM   22  H   UNL     1     -51.103  64.833 -54.793  1.00  0.00     0.279 HD
HETATM   23  C   UNL     1     -51.491  62.887 -54.309  1.00  0.00     0.270 C 
HETATM   24  C   UNL     1     -48.940  63.407 -52.586  1.00  0.00     0.068 C 
HETATM   25  H   UNL     1     -44.699  60.889 -55.644  1.00  0.00     0.162 HD
ENDBRANCH   5   8
BRANCH   7  26
HETATM   26  O   UNL     1     -39.953  59.050 -52.782  1.00  0.00    -0.353 OA
HETATM   27  C   UNL     1     -39.765  59.149 -51.377  1.00  0.00     0.210 C 
ENDBRANCH   7  26
BRANCH   1  28
HETATM   28  O   UNL     1     -40.810  56.343 -53.621  1.00  0.00    -0.271 OA
BRANCH  28  29
HETATM   29  C   UNL     1     -41.004  55.555 -52.499  1.00  0.00     0.298 C 
HETATM   30  O   UNL     1     -41.459  55.910 -51.422  1.00  0.00    -0.259 OA
BRANCH  29  31
HETATM   31  C   UNL     1     -40.632  54.150 -52.814  1.00  0.00     0.040 A 
HETATM   32  C   UNL     1     -40.627  53.756 -54.158  1.00  0.00     0.018 A 
HETATM   33  C   UNL     1     -40.261  52.454 -54.509  1.00  0.00     0.007 A 
HETATM   34  C   UNL     1     -39.895  51.531 -53.523  1.00  0.00    -0.062 A 
HETATM   35  C   UNL     1     -39.526  50.124 -53.895  1.00  0.00     0.048 C 
HETATM   36  C   UNL     1     -39.928  51.918 -52.178  1.00  0.00     0.007 A 
HETATM   37  C   UNL     1     -40.289  53.222 -51.823  1.00  0.00     0.018 A 
ENDBRANCH  29  31
ENDBRANCH  28  29
ENDBRANCH   1  28
TORSDOF 5
ENDMDL
MODEL 7
REMARK VINA RESULT:      -7.9      5.827      8.347
REMARK  5 active torsions:
REMARK  status: ('A' for Active; 'I' for Inactive)
REMARK    1  A    between atoms: C_5  and  C_6 
REMARK    2  A    between atoms: C_6  and  O_7 
REMARK    3  A    between atoms: O_7  and  C_8 
REMARK    4  A    between atoms: C_12  and  C_13 
REMARK    5  A    between atoms: C_30  and  O_31 
ROOT
HETATM    1  C   UNL     1     -42.993  55.550 -53.431  1.00  0.00     0.130 A 
HETATM    2  C   UNL     1     -43.661  56.784 -53.387  1.00  0.00     0.048 A 
HETATM    3 BR   UNL     1     -44.387  57.477 -51.774  1.00  0.00    -0.048 Br
HETATM    4  C   UNL     1     -43.821  57.542 -54.549  1.00  0.00     0.033 A 
HETATM    5  C   UNL     1     -43.350  57.064 -55.783  1.00  0.00    -0.012 A 
HETATM    6  C   UNL     1     -42.706  55.815 -55.811  1.00  0.00     0.050 A 
HETATM    7  C   UNL     1     -42.541  55.040 -54.654  1.00  0.00     0.104 A 
ENDROOT
BRANCH   5   8
HETATM    8  C   UNL     1     -43.462  57.879 -57.052  1.00  0.00     0.219 C 
HETATM    9  N   UNL     1     -42.556  57.377 -58.051  1.00  0.00    -0.332 N 
HETATM   10  C   UNL     1     -42.256  58.087 -59.183  1.00  0.00     0.256 C 
HETATM   11  H   UNL     1     -42.472  56.375 -58.151  1.00  0.00     0.165 HD
HETATM   12  O   UNL     1     -41.822  57.551 -60.195  1.00  0.00    -0.267 OA
HETATM   13  C   UNL     1     -42.451  59.523 -59.077  1.00  0.00     0.073 A 
HETATM   14  C   UNL     1     -42.889  60.049 -57.883  1.00  0.00     0.088 A 
HETATM   15  C   UNL     1     -42.219  60.541 -60.054  1.00  0.00    -0.023 A 
HETATM   16  S   UNL     1     -42.986  61.746 -57.912  1.00  0.00    -0.074 SA
HETATM   17  N   UNL     1     -43.185  59.285 -56.810  1.00  0.00    -0.358 N 
HETATM   18  C   UNL     1     -42.442  61.800 -59.525  1.00  0.00     0.018 A 
HETATM   19  C   UNL     1     -42.254  63.083 -60.259  1.00  0.00     0.281 C 
HETATM   20  N   UNL     1     -41.438  62.878 -61.532  1.00  0.00    -0.070 N 
HETATM   21  C   UNL     1     -41.894  61.636 -62.294  1.00  0.00     0.239 C 
HETATM   22  H   UNL     1     -41.645  63.685 -62.133  1.00  0.00     0.279 HD
HETATM   23  C   UNL     1     -39.957  62.909 -61.283  1.00  0.00     0.270 C 
HETATM   24  C   UNL     1     -41.738  60.350 -61.461  1.00  0.00     0.068 C 
HETATM   25  H   UNL     1     -43.718  59.693 -56.046  1.00  0.00     0.162 HD
ENDBRANCH   5   8
BRANCH   7  26
HETATM   26  O   UNL     1     -41.895  53.859 -54.887  1.00  0.00    -0.353 OA
HETATM   27  C   UNL     1     -40.597  53.918 -55.462  1.00  0.00     0.210 C 
ENDBRANCH   7  26
BRANCH   1  28
HETATM   28  O   UNL     1     -42.806  54.836 -52.245  1.00  0.00    -0.271 OA
BRANCH  28  29
HETATM   29  C   UNL     1     -41.531  54.996 -51.730  1.00  0.00     0.298 C 
HETATM   30  O   UNL     1     -40.980  56.050 -51.449  1.00  0.00    -0.259 OA
BRANCH  29  31
HETATM   31  C   UNL     1     -40.923  53.659 -51.493  1.00  0.00     0.040 A 
HETATM   32  C   UNL     1     -41.094  53.072 -50.233  1.00  0.00     0.018 A 
HETATM   33  C   UNL     1     -40.565  51.807 -49.967  1.00  0.00     0.007 A 
HETATM   34  C   UNL     1     -39.860  51.113 -50.956  1.00  0.00    -0.062 A 
HETATM   35  C   UNL     1     -39.268  49.764 -50.666  1.00  0.00     0.048 C 
HETATM   36  C   UNL     1     -39.666  51.713 -52.207  1.00  0.00     0.007 A 
HETATM   37  C   UNL     1     -40.198  52.977 -52.478  1.00  0.00     0.018 A 
ENDBRANCH  29  31
ENDBRANCH  28  29
ENDBRANCH   1  28
TORSDOF 5
ENDMDL
MODEL 8
REMARK VINA RESULT:      -7.6      5.594      8.315
REMARK  5 active torsions:
REMARK  status: ('A' for Active; 'I' for Inactive)
REMARK    1  A    between atoms: C_5  and  C_6 
REMARK    2  A    between atoms: C_6  and  O_7 
REMARK    3  A    between atoms: O_7  and  C_8 
REMARK    4  A    between atoms: C_12  and  C_13 
REMARK    5  A    between atoms: C_30  and  O_31 
ROOT
HETATM    1  C   UNL     1     -42.728  55.881 -53.302  1.00  0.00     0.130 A 
HETATM    2  C   UNL     1     -42.542  55.296 -54.565  1.00  0.00     0.048 A 
HETATM    3 BR   UNL     1     -42.111  53.457 -54.767  1.00  0.00    -0.048 Br
HETATM    4  C   UNL     1     -42.662  56.067 -55.724  1.00  0.00     0.033 A 
HETATM    5  C   UNL     1     -42.931  57.442 -55.641  1.00  0.00    -0.012 A 
HETATM    6  C   UNL     1     -43.089  58.015 -54.367  1.00  0.00     0.050 A 
HETATM    7  C   UNL     1     -42.968  57.256 -53.194  1.00  0.00     0.104 A 
ENDROOT
BRANCH   5   8
HETATM    8  C   UNL     1     -43.115  58.297 -56.875  1.00  0.00     0.219 C 
HETATM    9  N   UNL     1     -42.446  57.702 -58.001  1.00  0.00    -0.332 N 
HETATM   10  C   UNL     1     -42.221  58.393 -59.162  1.00  0.00     0.256 C 
HETATM   11  H   UNL     1     -42.518  56.702 -58.119  1.00  0.00     0.165 HD
HETATM   12  O   UNL     1     -42.020  57.830 -60.231  1.00  0.00    -0.267 OA
HETATM   13  C   UNL     1     -42.195  59.839 -59.020  1.00  0.00     0.073 A 
HETATM   14  C   UNL     1     -42.374  60.389 -57.771  1.00  0.00     0.088 A 
HETATM   15  C   UNL     1     -41.971  60.842 -60.016  1.00  0.00    -0.023 A 
HETATM   16  S   UNL     1     -42.237  62.084 -57.776  1.00  0.00    -0.074 SA
HETATM   17  N   UNL     1     -42.611  59.645 -56.670  1.00  0.00    -0.358 N 
HETATM   18  C   UNL     1     -41.936  62.105 -59.452  1.00  0.00     0.018 A 
HETATM   19  C   UNL     1     -41.681  63.368 -60.199  1.00  0.00     0.281 C 
HETATM   20  N   UNL     1     -41.099  63.087 -61.582  1.00  0.00    -0.070 N 
HETATM   21  C   UNL     1     -41.832  61.939 -62.273  1.00  0.00     0.239 C 
HETATM   22  H   UNL     1     -41.278  63.930 -62.141  1.00  0.00     0.279 HD
HETATM   23  C   UNL     1     -39.608  62.908 -61.558  1.00  0.00     0.270 C 
HETATM   24  C   UNL     1     -41.735  60.623 -61.480  1.00  0.00     0.068 C 
HETATM   25  H   UNL     1     -42.964  60.103 -55.833  1.00  0.00     0.162 HD
ENDBRANCH   5   8
BRANCH   7  26
HETATM   26  O   UNL     1     -43.153  57.992 -52.057  1.00  0.00    -0.353 OA
HETATM   27  C   UNL     1     -44.465  58.053 -51.516  1.00  0.00     0.210 C 
ENDBRANCH   7  26
BRANCH   1  28
HETATM   28  O   UNL     1     -42.649  55.077 -52.163  1.00  0.00    -0.271 OA
BRANCH  28  29
HETATM   29  C   UNL     1     -41.409  55.149 -51.552  1.00  0.00     0.298 C 
HETATM   30  O   UNL     1     -40.858  56.152 -51.125  1.00  0.00    -0.259 OA
BRANCH  29  31
HETATM   31  C   UNL     1     -40.844  53.779 -51.420  1.00  0.00     0.040 A 
HETATM   32  C   UNL     1     -41.007  53.114 -50.199  1.00  0.00     0.018 A 
HETATM   33  C   UNL     1     -40.517  51.816 -50.032  1.00  0.00     0.007 A 
HETATM   34  C   UNL     1     -39.860  51.167 -51.082  1.00  0.00    -0.062 A 
HETATM   35  C   UNL     1     -39.310  49.782 -50.898  1.00  0.00     0.048 C 
HETATM   36  C   UNL     1     -39.673  51.843 -52.294  1.00  0.00     0.007 A 
HETATM   37  C   UNL     1     -40.166  53.140 -52.466  1.00  0.00     0.018 A 
ENDBRANCH  29  31
ENDBRANCH  28  29
ENDBRANCH   1  28
TORSDOF 5
ENDMDL
MODEL 9
REMARK VINA RESULT:      -7.5      5.501      7.956
REMARK  5 active torsions:
REMARK  status: ('A' for Active; 'I' for Inactive)
REMARK    1  A    between atoms: C_5  and  C_6 
REMARK    2  A    between atoms: C_6  and  O_7 
REMARK    3  A    between atoms: O_7  and  C_8 
REMARK    4  A    between atoms: C_12  and  C_13 
REMARK    5  A    between atoms: C_30  and  O_31 
ROOT
HETATM    1  C   UNL     1     -43.575  56.046 -53.377  1.00  0.00     0.130 A 
HETATM    2  C   UNL     1     -44.302  57.215 -53.104  1.00  0.00     0.048 A 
HETATM    3 BR   UNL     1     -44.726  57.745 -51.329  1.00  0.00    -0.048 Br
HETATM    4  C   UNL     1     -44.750  58.028 -54.149  1.00  0.00     0.033 A 
HETATM    5  C   UNL     1     -44.512  57.667 -55.485  1.00  0.00    -0.012 A 
HETATM    6  C   UNL     1     -43.804  56.479 -55.738  1.00  0.00     0.050 A 
HETATM    7  C   UNL     1     -43.351  55.651 -54.701  1.00  0.00     0.104 A 
ENDROOT
BRANCH   5   8
HETATM    8  C   UNL     1     -44.939  58.546 -56.639  1.00  0.00     0.219 C 
HETATM    9  N   UNL     1     -45.896  59.525 -56.196  1.00  0.00    -0.332 N 
HETATM   10  C   UNL     1     -46.645  60.260 -57.076  1.00  0.00     0.256 C 
HETATM   11  H   UNL     1     -45.732  59.977 -55.308  1.00  0.00     0.165 HD
HETATM   12  O   UNL     1     -47.157  61.329 -56.766  1.00  0.00    -0.267 OA
HETATM   13  C   UNL     1     -46.820  59.657 -58.386  1.00  0.00     0.073 A 
HETATM   14  C   UNL     1     -46.258  58.425 -58.632  1.00  0.00     0.088 A 
HETATM   15  C   UNL     1     -47.550  60.144 -59.516  1.00  0.00    -0.023 A 
HETATM   16  S   UNL     1     -46.627  57.835 -60.184  1.00  0.00    -0.074 SA
HETATM   17  N   UNL     1     -45.513  57.764 -57.721  1.00  0.00    -0.358 N 
HETATM   18  C   UNL     1     -47.547  59.222 -60.547  1.00  0.00     0.018 A 
HETATM   19  C   UNL     1     -48.247  59.394 -61.851  1.00  0.00     0.281 C 
HETATM   20  N   UNL     1     -49.266  60.527 -61.788  1.00  0.00    -0.070 N 
HETATM   21  C   UNL     1     -48.698  61.751 -61.072  1.00  0.00     0.239 C 
HETATM   22  H   UNL     1     -49.438  60.808 -62.761  1.00  0.00     0.279 HD
HETATM   23  C   UNL     1     -50.592  60.083 -61.239  1.00  0.00     0.270 C 
HETATM   24  C   UNL     1     -48.295  61.442 -59.619  1.00  0.00     0.068 C 
HETATM   25  H   UNL     1     -44.936  56.984 -58.028  1.00  0.00     0.162 HD
ENDBRANCH   5   8
BRANCH   7  26
HETATM   26  O   UNL     1     -42.687  54.544 -55.149  1.00  0.00    -0.353 OA
HETATM   27  C   UNL     1     -41.469  54.744 -55.853  1.00  0.00     0.210 C 
ENDBRANCH   7  26
BRANCH   1  28
HETATM   28  O   UNL     1     -43.099  55.278 -52.311  1.00  0.00    -0.271 OA
BRANCH  28  29
HETATM   29  C   UNL     1     -41.734  55.423 -52.127  1.00  0.00     0.298 C 
HETATM   30  O   UNL     1     -41.097  56.465 -52.150  1.00  0.00    -0.259 OA
BRANCH  29  31
HETATM   31  C   UNL     1     -41.135  54.096 -51.819  1.00  0.00     0.040 A 
HETATM   32  C   UNL     1     -40.557  53.375 -52.871  1.00  0.00     0.018 A 
HETATM   33  C   UNL     1     -39.959  52.136 -52.631  1.00  0.00     0.007 A 
HETATM   34  C   UNL     1     -39.930  51.602 -51.338  1.00  0.00    -0.062 A 
HETATM   35  C   UNL     1     -39.311  50.259 -51.081  1.00  0.00     0.048 C 
HETATM   36  C   UNL     1     -40.533  52.312 -50.292  1.00  0.00     0.007 A 
HETATM   37  C   UNL     1     -41.128  53.555 -50.528  1.00  0.00     0.018 A 
ENDBRANCH  29  31
ENDBRANCH  28  29
ENDBRANCH   1  28
TORSDOF 5
ENDMDL
MODEL 10
REMARK VINA RESULT:      -7.5      6.528      9.472
REMARK  5 active torsions:
REMARK  status: ('A' for Active; 'I' for Inactive)
REMARK    1  A    between atoms: C_5  and  C_6 
REMARK    2  A    between atoms: C_6  and  O_7 
REMARK    3  A    between atoms: O_7  and  C_8 
REMARK    4  A    between atoms: C_12  and  C_13 
REMARK    5  A    between atoms: C_30  and  O_31 
ROOT
HETATM    1  C   UNL     1     -42.090  57.043 -55.263  1.00  0.00     0.130 A 
HETATM    2  C   UNL     1     -42.661  56.016 -56.031  1.00  0.00     0.048 A 
HETATM    3 BR   UNL     1     -42.579  54.195 -55.497  1.00  0.00    -0.048 Br
HETATM    4  C   UNL     1     -43.307  56.312 -57.234  1.00  0.00     0.033 A 
HETATM    5  C   UNL     1     -43.360  57.632 -57.710  1.00  0.00    -0.012 A 
HETATM    6  C   UNL     1     -42.760  58.643 -56.938  1.00  0.00     0.050 A 
HETATM    7  C   UNL     1     -42.105  58.362 -55.730  1.00  0.00     0.104 A 
ENDROOT
BRANCH   5   8
HETATM    8  C   UNL     1     -44.092  57.996 -58.982  1.00  0.00     0.219 C 
HETATM    9  N   UNL     1     -44.558  59.356 -58.921  1.00  0.00    -0.332 N 
HETATM   10  C   UNL     1     -45.476  59.851 -59.809  1.00  0.00     0.256 C 
HETATM   11  H   UNL     1     -43.937  60.050 -58.531  1.00  0.00     0.165 HD
HETATM   12  O   UNL     1     -45.595  61.050 -60.026  1.00  0.00    -0.267 OA
HETATM   13  C   UNL     1     -46.322  58.851 -60.438  1.00  0.00     0.073 A 
HETATM   14  C   UNL     1     -46.159  57.528 -60.094  1.00  0.00     0.088 A 
HETATM   15  C   UNL     1     -47.378  59.028 -61.387  1.00  0.00    -0.023 A 
HETATM   16  S   UNL     1     -47.280  56.509 -60.865  1.00  0.00    -0.074 SA
HETATM   17  N   UNL     1     -45.218  57.108 -59.222  1.00  0.00    -0.358 N 
HETATM   18  C   UNL     1     -48.000  57.826 -61.670  1.00  0.00     0.018 A 
HETATM   19  C   UNL     1     -49.165  57.659 -62.585  1.00  0.00     0.281 C 
HETATM   20  N   UNL     1     -49.828  58.999 -62.888  1.00  0.00    -0.070 N 
HETATM   21  C   UNL     1     -48.791  60.082 -63.179  1.00  0.00     0.239 C 
HETATM   22  H   UNL     1     -50.362  58.862 -63.754  1.00  0.00     0.279 HD
HETATM   23  C   UNL     1     -50.826  59.402 -61.839  1.00  0.00     0.270 C 
HETATM   24  C   UNL     1     -47.845  60.320 -61.988  1.00  0.00     0.068 C 
HETATM   25  H   UNL     1     -44.989  56.118 -59.184  1.00  0.00     0.162 HD
ENDBRANCH   5   8
BRANCH   7  26
HETATM   26  O   UNL     1     -41.586  59.474 -55.130  1.00  0.00    -0.353 OA
HETATM   27  C   UNL     1     -42.493  60.484 -54.711  1.00  0.00     0.210 C 
ENDBRANCH   7  26
BRANCH   1  28
HETATM   28  O   UNL     1     -41.492  56.724 -54.041  1.00  0.00    -0.271 OA
BRANCH  28  29
HETATM   29  C   UNL     1     -42.405  56.699 -52.999  1.00  0.00     0.298 C 
HETATM   30  O   UNL     1     -43.537  57.158 -53.005  1.00  0.00    -0.259 OA
BRANCH  29  31
HETATM   31  C   UNL     1     -41.823  55.952 -51.852  1.00  0.00     0.040 A 
HETATM   32  C   UNL     1     -41.821  56.572 -50.596  1.00  0.00     0.018 A 
HETATM   33  C   UNL     1     -41.309  55.904 -49.481  1.00  0.00     0.007 A 
HETATM   34  C   UNL     1     -40.794  54.609 -49.606  1.00  0.00    -0.062 A 
HETATM   35  C   UNL     1     -40.220  53.898 -48.415  1.00  0.00     0.048 C 
HETATM   36  C   UNL     1     -40.772  54.001 -50.868  1.00  0.00     0.007 A 
HETATM   37  C   UNL     1     -41.288  54.665 -51.985  1.00  0.00     0.018 A 
ENDBRANCH  29  31
ENDBRANCH  28  29
ENDBRANCH   1  28
TORSDOF 5
ENDMDL
