MODEL 1
REMARK VINA RESULT:      -7.7      0.000      0.000
REMARK  7 active torsions:
REMARK  status: ('A' for Active; 'I' for Inactive)
REMARK    1  A    between atoms: C_7  and  C_8 
REMARK    2  A    between atoms: C_8  and  N_9 
REMARK       I    between atoms: N_9  and  C_10 
REMARK       I    between atoms: C_10  and  N_11 
REMARK    3  A    between atoms: N_11  and  C_12 
REMARK    4  A    between atoms: C_12  and  C_13 
REMARK    5  A    between atoms: C_13  and  C_14 
REMARK    6  A    between atoms: C_14  and  O_15 
REMARK    7  A    between atoms: C_14  and  C_16 
ROOT
HETATM    1  N   UNL     1     -41.781  56.148 -49.863  1.00  0.00    -0.337 N 
HETATM    2  C   UNL     1     -42.995  56.076 -50.505  1.00  0.00     0.316 C 
HETATM    3  N   UNL     1     -43.253  57.235 -51.181  1.00  0.00    -0.339 N 
HETATM    4  O   UNL     1     -43.726  55.094 -50.452  1.00  0.00    -0.247 OA
HETATM    5  H   UNL     1     -41.145  56.788 -50.320  1.00  0.00     0.164 HD
HETATM    6  H   UNL     1     -42.875  58.051 -50.717  1.00  0.00     0.164 HD
ENDROOT
BRANCH   1   7
HETATM    7  C   UNL     1     -41.175  54.975 -49.265  1.00  0.00     0.183 C 
BRANCH   7   8
HETATM    8  C   UNL     1     -40.818  53.961 -50.288  1.00  0.00     0.044 A 
HETATM    9  N   UNL     1     -40.869  54.226 -51.649  1.00  0.00    -0.343 N 
HETATM   10  C   UNL     1     -40.486  53.175 -52.358  1.00  0.00     0.112 A 
HETATM   11  H   UNL     1     -41.237  55.109 -52.024  1.00  0.00     0.167 HD
HETATM   12  N   UNL     1     -40.180  52.189 -51.491  1.00  0.00    -0.311 N 
HETATM   13  C   UNL     1     -40.372  52.992 -53.822  1.00  0.00     0.049 A 
HETATM   14  C   UNL     1     -39.749  50.931 -51.911  1.00  0.00     0.014 A 
HETATM   15  C   UNL     1     -40.381  52.657 -50.198  1.00  0.00     0.125 A 
HETATM   16  C   UNL     1     -39.439  49.849 -50.921  1.00  0.00     0.068 C 
HETATM   17  C   UNL     1     -39.639  50.753 -53.247  1.00  0.00     0.025 A 
HETATM   18  C   UNL     1     -39.945  51.786 -54.231  1.00  0.00     0.006 A 
ENDBRANCH   7   8
ENDBRANCH   1   7
BRANCH   3  19
HETATM   19  C   UNL     1     -44.505  57.518 -51.885  1.00  0.00     0.085 C 
HETATM   20  C   UNL     1     -45.126  58.856 -51.475  1.00  0.00     0.032 C 
BRANCH  19  21
HETATM   21  C   UNL     1     -44.357  57.422 -53.414  1.00  0.00     0.063 C 
BRANCH  21  22
HETATM   22  C   UNL     1     -43.497  56.252 -53.916  1.00  0.00     0.177 C 
BRANCH  22  23
HETATM   23  O   UNL     1     -44.069  55.003 -53.512  1.00  0.00    -0.389 OA
HETATM   24  H   UNL     1     -43.645  54.328 -54.073  1.00  0.00     0.210 HD
ENDBRANCH  22  23
BRANCH  22  25
HETATM   25  C   UNL     1     -43.340  56.222 -55.398  1.00  0.00     0.081 A 
HETATM   26  O   UNL     1     -43.896  57.263 -56.083  1.00  0.00    -0.324 OA
HETATM   27  C   UNL     1     -43.661  57.047 -57.403  1.00  0.00     0.142 A 
HETATM   28  C   UNL     1     -42.953  55.883 -57.581  1.00  0.00     0.027 A 
HETATM   29  C   UNL     1     -42.743  55.348 -56.287  1.00  0.00     0.037 A 
ENDBRANCH  22  25
ENDBRANCH  21  22
ENDBRANCH  19  21
ENDBRANCH   3  19
TORSDOF 7
ENDMDL
MODEL 2
REMARK VINA RESULT:      -7.7      2.949      5.053
REMARK  7 active torsions:
REMARK  status: ('A' for Active; 'I' for Inactive)
REMARK    1  A    between atoms: C_7  and  C_8 
REMARK    2  A    between atoms: C_8  and  N_9 
REMARK       I    between atoms: N_9  and  C_10 
REMARK       I    between atoms: C_10  and  N_11 
REMARK    3  A    between atoms: N_11  and  C_12 
REMARK    4  A    between atoms: C_12  and  C_13 
REMARK    5  A    between atoms: C_13  and  C_14 
REMARK    6  A    between atoms: C_14  and  O_15 
REMARK    7  A    between atoms: C_14  and  C_16 
ROOT
HETATM    1  N   UNL     1     -42.291  55.567 -56.490  1.00  0.00    -0.337 N 
HETATM    2  C   UNL     1     -42.901  56.749 -56.839  1.00  0.00     0.316 C 
HETATM    3  N   UNL     1     -42.136  57.441 -57.735  1.00  0.00    -0.339 N 
HETATM    4  O   UNL     1     -43.981  57.107 -56.385  1.00  0.00    -0.247 OA
HETATM    5  H   UNL     1     -41.675  55.227 -57.217  1.00  0.00     0.164 HD
HETATM    6  H   UNL     1     -41.144  57.306 -57.588  1.00  0.00     0.164 HD
ENDROOT
BRANCH   1   7
HETATM    7  C   UNL     1     -42.996  54.551 -55.733  1.00  0.00     0.183 C 
BRANCH   7   8
HETATM    8  C   UNL     1     -42.121  53.924 -54.711  1.00  0.00     0.044 A 
HETATM    9  N   UNL     1     -41.940  54.470 -53.448  1.00  0.00    -0.343 N 
HETATM   10  C   UNL     1     -41.134  53.722 -52.712  1.00  0.00     0.112 A 
HETATM   11  H   UNL     1     -42.334  55.381 -53.182  1.00  0.00     0.167 HD
HETATM   12  N   UNL     1     -40.755  52.669 -53.465  1.00  0.00    -0.311 N 
HETATM   13  C   UNL     1     -40.664  53.897 -51.320  1.00  0.00     0.049 A 
HETATM   14  C   UNL     1     -39.889  51.685 -52.991  1.00  0.00     0.014 A 
HETATM   15  C   UNL     1     -41.357  52.778 -54.712  1.00  0.00     0.125 A 
HETATM   16  C   UNL     1     -39.469  50.540 -53.862  1.00  0.00     0.068 C 
HETATM   17  C   UNL     1     -39.454  51.833 -51.719  1.00  0.00     0.025 A 
HETATM   18  C   UNL     1     -39.838  52.944 -50.855  1.00  0.00     0.006 A 
ENDBRANCH   7   8
ENDBRANCH   1   7
BRANCH   3  19
HETATM   19  C   UNL     1     -42.454  58.781 -58.229  1.00  0.00     0.085 C 
HETATM   20  C   UNL     1     -41.793  59.889 -57.404  1.00  0.00     0.032 C 
BRANCH  19  21
HETATM   21  C   UNL     1     -42.143  58.947 -59.728  1.00  0.00     0.063 C 
BRANCH  21  22
HETATM   22  C   UNL     1     -42.296  57.674 -60.573  1.00  0.00     0.177 C 
BRANCH  22  23
HETATM   23  O   UNL     1     -41.206  56.778 -60.328  1.00  0.00    -0.389 OA
HETATM   24  H   UNL     1     -41.159  56.204 -61.114  1.00  0.00     0.210 HD
ENDBRANCH  22  23
BRANCH  22  25
HETATM   25  C   UNL     1     -43.562  56.932 -60.309  1.00  0.00     0.081 A 
HETATM   26  O   UNL     1     -43.440  55.589 -60.099  1.00  0.00    -0.324 OA
HETATM   27  C   UNL     1     -44.689  55.099 -59.893  1.00  0.00     0.142 A 
HETATM   28  C   UNL     1     -45.619  56.109 -59.962  1.00  0.00     0.027 A 
HETATM   29  C   UNL     1     -44.894  57.295 -60.229  1.00  0.00     0.037 A 
ENDBRANCH  22  25
ENDBRANCH  21  22
ENDBRANCH  19  21
ENDBRANCH   3  19
TORSDOF 7
ENDMDL
MODEL 3
REMARK VINA RESULT:      -7.6      3.840      5.764
REMARK  7 active torsions:
REMARK  status: ('A' for Active; 'I' for Inactive)
REMARK    1  A    between atoms: C_7  and  C_8 
REMARK    2  A    between atoms: C_8  and  N_9 
REMARK       I    between atoms: N_9  and  C_10 
REMARK       I    between atoms: C_10  and  N_11 
REMARK    3  A    between atoms: N_11  and  C_12 
REMARK    4  A    between atoms: C_12  and  C_13 
REMARK    5  A    between atoms: C_13  and  C_14 
REMARK    6  A    between atoms: C_14  and  O_15 
REMARK    7  A    between atoms: C_14  and  C_16 
ROOT
HETATM    1  N   UNL     1     -43.377  55.331 -56.064  1.00  0.00    -0.337 N 
HETATM    2  C   UNL     1     -43.411  56.323 -57.016  1.00  0.00     0.316 C 
HETATM    3  N   UNL     1     -43.891  55.841 -58.200  1.00  0.00    -0.339 N 
HETATM    4  O   UNL     1     -43.046  57.473 -56.800  1.00  0.00    -0.247 OA
HETATM    5  H   UNL     1     -44.065  54.610 -56.241  1.00  0.00     0.164 HD
HETATM    6  H   UNL     1     -43.637  54.874 -58.360  1.00  0.00     0.164 HD
ENDROOT
BRANCH   1   7
HETATM    7  C   UNL     1     -43.123  55.633 -54.669  1.00  0.00     0.183 C 
BRANCH   7   8
HETATM    8  C   UNL     1     -42.223  54.631 -54.047  1.00  0.00     0.044 A 
HETATM    9  N   UNL     1     -41.816  53.482 -54.708  1.00  0.00    -0.343 N 
HETATM   10  C   UNL     1     -41.002  52.757 -53.957  1.00  0.00     0.112 A 
HETATM   11  H   UNL     1     -42.182  53.220 -55.632  1.00  0.00     0.167 HD
HETATM   12  N   UNL     1     -40.854  53.399 -52.781  1.00  0.00    -0.311 N 
HETATM   13  C   UNL     1     -40.320  51.474 -54.239  1.00  0.00     0.049 A 
HETATM   14  C   UNL     1     -40.063  52.896 -51.749  1.00  0.00     0.014 A 
HETATM   15  C   UNL     1     -41.607  54.566 -52.816  1.00  0.00     0.125 A 
HETATM   16  C   UNL     1     -39.939  53.624 -50.444  1.00  0.00     0.068 C 
HETATM   17  C   UNL     1     -39.433  51.725 -51.995  1.00  0.00     0.025 A 
HETATM   18  C   UNL     1     -39.546  50.991 -53.251  1.00  0.00     0.006 A 
ENDBRANCH   7   8
ENDBRANCH   1   7
BRANCH   3  19
HETATM   19  C   UNL     1     -43.959  56.616 -59.439  1.00  0.00     0.085 C 
HETATM   20  C   UNL     1     -42.586  56.828 -60.083  1.00  0.00     0.032 C 
BRANCH  19  21
HETATM   21  C   UNL     1     -44.959  56.025 -60.451  1.00  0.00     0.063 C 
BRANCH  21  22
HETATM   22  C   UNL     1     -46.437  56.130 -60.047  1.00  0.00     0.177 C 
BRANCH  22  23
HETATM   23  O   UNL     1     -46.561  56.750 -58.762  1.00  0.00    -0.389 OA
HETATM   24  H   UNL     1     -47.194  57.480 -58.886  1.00  0.00     0.210 HD
ENDBRANCH  22  23
BRANCH  22  25
HETATM   25  C   UNL     1     -47.264  56.911 -61.011  1.00  0.00     0.081 A 
HETATM   26  O   UNL     1     -47.783  56.212 -62.062  1.00  0.00    -0.324 OA
HETATM   27  C   UNL     1     -48.483  57.091 -62.824  1.00  0.00     0.142 A 
HETATM   28  C   UNL     1     -48.428  58.351 -62.275  1.00  0.00     0.027 A 
HETATM   29  C   UNL     1     -47.643  58.236 -61.103  1.00  0.00     0.037 A 
ENDBRANCH  22  25
ENDBRANCH  21  22
ENDBRANCH  19  21
ENDBRANCH   3  19
TORSDOF 7
ENDMDL
MODEL 4
REMARK VINA RESULT:      -7.6      3.012      4.983
REMARK  7 active torsions:
REMARK  status: ('A' for Active; 'I' for Inactive)
REMARK    1  A    between atoms: C_7  and  C_8 
REMARK    2  A    between atoms: C_8  and  N_9 
REMARK       I    between atoms: N_9  and  C_10 
REMARK       I    between atoms: C_10  and  N_11 
REMARK    3  A    between atoms: N_11  and  C_12 
REMARK    4  A    between atoms: C_12  and  C_13 
REMARK    5  A    between atoms: C_13  and  C_14 
REMARK    6  A    between atoms: C_14  and  O_15 
REMARK    7  A    between atoms: C_14  and  C_16 
ROOT
HETATM    1  N   UNL     1     -41.955  56.974 -55.495  1.00  0.00    -0.337 N 
HETATM    2  C   UNL     1     -42.823  57.064 -56.558  1.00  0.00     0.316 C 
HETATM    3  N   UNL     1     -42.137  57.165 -57.735  1.00  0.00    -0.339 N 
HETATM    4  O   UNL     1     -44.043  57.058 -56.432  1.00  0.00    -0.247 OA
HETATM    5  H   UNL     1     -41.064  56.577 -55.763  1.00  0.00     0.164 HD
HETATM    6  H   UNL     1     -41.266  57.670 -57.637  1.00  0.00     0.164 HD
ENDROOT
BRANCH   1   7
HETATM    7  C   UNL     1     -42.424  56.633 -54.166  1.00  0.00     0.183 C 
BRANCH   7   8
HETATM    8  C   UNL     1     -41.728  55.437 -53.630  1.00  0.00     0.044 A 
HETATM    9  N   UNL     1     -41.419  54.338 -54.419  1.00  0.00    -0.343 N 
HETATM   10  C   UNL     1     -40.783  53.410 -53.722  1.00  0.00     0.112 A 
HETATM   11  H   UNL     1     -41.731  54.257 -55.394  1.00  0.00     0.167 HD
HETATM   12  N   UNL     1     -40.659  53.863 -52.458  1.00  0.00    -0.311 N 
HETATM   13  C   UNL     1     -40.256  52.090 -54.134  1.00  0.00     0.049 A 
HETATM   14  C   UNL     1     -40.041  53.119 -51.454  1.00  0.00     0.014 A 
HETATM   15  C   UNL     1     -41.242  55.122 -52.380  1.00  0.00     0.125 A 
HETATM   16  C   UNL     1     -39.941  53.643 -50.053  1.00  0.00     0.068 C 
HETATM   17  C   UNL     1     -39.554  51.911 -51.820  1.00  0.00     0.025 A 
HETATM   18  C   UNL     1     -39.648  51.374 -53.173  1.00  0.00     0.006 A 
ENDBRANCH   7   8
ENDBRANCH   1   7
BRANCH   3  19
HETATM   19  C   UNL     1     -42.765  57.376 -59.040  1.00  0.00     0.085 C 
HETATM   20  C   UNL     1     -42.162  58.557 -59.805  1.00  0.00     0.032 C 
BRANCH  19  21
HETATM   21  C   UNL     1     -42.771  56.101 -59.905  1.00  0.00     0.063 C 
BRANCH  21  22
HETATM   22  C   UNL     1     -44.005  55.203 -59.738  1.00  0.00     0.177 C 
BRANCH  22  23
HETATM   23  O   UNL     1     -44.077  54.696 -58.401  1.00  0.00    -0.389 OA
HETATM   24  H   UNL     1     -43.559  55.318 -57.859  1.00  0.00     0.210 HD
ENDBRANCH  22  23
BRANCH  22  25
HETATM   25  C   UNL     1     -45.291  55.897 -60.032  1.00  0.00     0.081 A 
HETATM   26  O   UNL     1     -45.931  55.518 -61.177  1.00  0.00    -0.324 OA
HETATM   27  C   UNL     1     -47.060  56.266 -61.273  1.00  0.00     0.142 A 
HETATM   28  C   UNL     1     -47.162  57.121 -60.200  1.00  0.00     0.027 A 
HETATM   29  C   UNL     1     -46.022  56.883 -59.397  1.00  0.00     0.037 A 
ENDBRANCH  22  25
ENDBRANCH  21  22
ENDBRANCH  19  21
ENDBRANCH   3  19
TORSDOF 7
ENDMDL
MODEL 5
REMARK VINA RESULT:      -7.6      2.833      5.139
REMARK  7 active torsions:
REMARK  status: ('A' for Active; 'I' for Inactive)
REMARK    1  A    between atoms: C_7  and  C_8 
REMARK    2  A    between atoms: C_8  and  N_9 
REMARK       I    between atoms: N_9  and  C_10 
REMARK       I    between atoms: C_10  and  N_11 
REMARK    3  A    between atoms: N_11  and  C_12 
REMARK    4  A    between atoms: C_12  and  C_13 
REMARK    5  A    between atoms: C_13  and  C_14 
REMARK    6  A    between atoms: C_14  and  O_15 
REMARK    7  A    between atoms: C_14  and  C_16 
ROOT
HETATM    1  N   UNL     1     -42.081  55.893 -50.342  1.00  0.00    -0.337 N 
HETATM    2  C   UNL     1     -42.074  57.144 -50.911  1.00  0.00     0.316 C 
HETATM    3  N   UNL     1     -43.338  57.660 -50.961  1.00  0.00    -0.339 N 
HETATM    4  O   UNL     1     -41.055  57.693 -51.316  1.00  0.00    -0.247 OA
HETATM    5  H   UNL     1     -42.858  55.767 -49.707  1.00  0.00     0.164 HD
HETATM    6  H   UNL     1     -44.045  56.948 -51.100  1.00  0.00     0.164 HD
ENDROOT
BRANCH   1   7
HETATM    7  C   UNL     1     -40.847  55.228 -49.970  1.00  0.00     0.183 C 
BRANCH   7   8
HETATM    8  C   UNL     1     -40.581  54.046 -50.828  1.00  0.00     0.044 A 
HETATM    9  N   UNL     1     -40.658  54.097 -52.212  1.00  0.00    -0.343 N 
HETATM   10  C   UNL     1     -40.359  52.927 -52.754  1.00  0.00     0.112 A 
HETATM   11  H   UNL     1     -40.986  54.932 -52.714  1.00  0.00     0.167 HD
HETATM   12  N   UNL     1     -40.085  52.072 -51.749  1.00  0.00    -0.311 N 
HETATM   13  C   UNL     1     -40.301  52.511 -54.173  1.00  0.00     0.049 A 
HETATM   14  C   UNL     1     -39.740  50.740 -51.974  1.00  0.00     0.014 A 
HETATM   15  C   UNL     1     -40.219  52.748 -50.542  1.00  0.00     0.125 A 
HETATM   16  C   UNL     1     -39.463  49.809 -50.833  1.00  0.00     0.068 C 
HETATM   17  C   UNL     1     -39.681  50.348 -53.267  1.00  0.00     0.025 A 
HETATM   18  C   UNL     1     -39.957  51.231 -54.396  1.00  0.00     0.006 A 
ENDBRANCH   7   8
ENDBRANCH   1   7
BRANCH   3  19
HETATM   19  C   UNL     1     -43.686  58.931 -51.597  1.00  0.00     0.085 C 
HETATM   20  C   UNL     1     -44.853  58.802 -52.581  1.00  0.00     0.032 C 
BRANCH  19  21
HETATM   21  C   UNL     1     -43.948  60.051 -50.573  1.00  0.00     0.063 C 
BRANCH  21  22
HETATM   22  C   UNL     1     -45.366  60.081 -49.984  1.00  0.00     0.177 C 
BRANCH  22  23
HETATM   23  O   UNL     1     -45.715  58.796 -49.456  1.00  0.00    -0.389 OA
HETATM   24  H   UNL     1     -46.663  58.684 -49.651  1.00  0.00     0.210 HD
ENDBRANCH  22  23
BRANCH  22  25
HETATM   25  C   UNL     1     -45.537  61.083 -48.893  1.00  0.00     0.081 A 
HETATM   26  O   UNL     1     -46.619  61.907 -48.999  1.00  0.00    -0.324 OA
HETATM   27  C   UNL     1     -46.591  62.746 -47.932  1.00  0.00     0.142 A 
HETATM   28  C   UNL     1     -45.506  62.471 -47.133  1.00  0.00     0.027 A 
HETATM   29  C   UNL     1     -44.825  61.396 -47.751  1.00  0.00     0.037 A 
ENDBRANCH  22  25
ENDBRANCH  21  22
ENDBRANCH  19  21
ENDBRANCH   3  19
TORSDOF 7
ENDMDL
MODEL 6
REMARK VINA RESULT:      -7.2      3.743      5.573
REMARK  7 active torsions:
REMARK  status: ('A' for Active; 'I' for Inactive)
REMARK    1  A    between atoms: C_7  and  C_8 
REMARK    2  A    between atoms: C_8  and  N_9 
REMARK       I    between atoms: N_9  and  C_10 
REMARK       I    between atoms: C_10  and  N_11 
REMARK    3  A    between atoms: N_11  and  C_12 
REMARK    4  A    between atoms: C_12  and  C_13 
REMARK    5  A    between atoms: C_13  and  C_14 
REMARK    6  A    between atoms: C_14  and  O_15 
REMARK    7  A    between atoms: C_14  and  C_16 
ROOT
HETATM    1  N   UNL     1     -43.649  56.010 -55.874  1.00  0.00    -0.337 N 
HETATM    2  C   UNL     1     -42.850  56.999 -56.396  1.00  0.00     0.316 C 
HETATM    3  N   UNL     1     -43.019  57.093 -57.748  1.00  0.00    -0.339 N 
HETATM    4  O   UNL     1     -42.094  57.682 -55.714  1.00  0.00    -0.247 OA
HETATM    5  H   UNL     1     -44.473  55.848 -56.438  1.00  0.00     0.164 HD
HETATM    6  H   UNL     1     -43.215  56.199 -58.180  1.00  0.00     0.164 HD
ENDROOT
BRANCH   1   7
HETATM    7  C   UNL     1     -43.825  55.860 -54.442  1.00  0.00     0.183 C 
BRANCH   7   8
HETATM    8  C   UNL     1     -42.817  54.939 -53.860  1.00  0.00     0.044 A 
HETATM    9  N   UNL     1     -42.289  53.869 -54.567  1.00  0.00    -0.343 N 
HETATM   10  C   UNL     1     -41.398  53.209 -53.845  1.00  0.00     0.112 A 
HETATM   11  H   UNL     1     -42.628  53.606 -55.501  1.00  0.00     0.167 HD
HETATM   12  N   UNL     1     -41.317  53.815 -52.644  1.00  0.00    -0.311 N 
HETATM   13  C   UNL     1     -40.580  52.021 -54.177  1.00  0.00     0.049 A 
HETATM   14  C   UNL     1     -40.471  53.362 -51.632  1.00  0.00     0.014 A 
HETATM   15  C   UNL     1     -42.194  54.894 -52.632  1.00  0.00     0.125 A 
HETATM   16  C   UNL     1     -40.422  54.046 -50.300  1.00  0.00     0.068 C 
HETATM   17  C   UNL     1     -39.717  52.278 -51.925  1.00  0.00     0.025 A 
HETATM   18  C   UNL     1     -39.754  51.587 -53.210  1.00  0.00     0.006 A 
ENDBRANCH   7   8
ENDBRANCH   1   7
BRANCH   3  19
HETATM   19  C   UNL     1     -42.243  57.979 -58.617  1.00  0.00     0.085 C 
HETATM   20  C   UNL     1     -41.902  57.339 -59.965  1.00  0.00     0.032 C 
BRANCH  19  21
HETATM   21  C   UNL     1     -42.913  59.352 -58.810  1.00  0.00     0.063 C 
BRANCH  21  22
HETATM   22  C   UNL     1     -42.253  60.514 -58.054  1.00  0.00     0.177 C 
BRANCH  22  23
HETATM   23  O   UNL     1     -41.440  60.017 -56.985  1.00  0.00    -0.389 OA
HETATM   24  H   UNL     1     -41.925  60.231 -56.168  1.00  0.00     0.210 HD
ENDBRANCH  22  23
BRANCH  22  25
HETATM   25  C   UNL     1     -41.395  61.375 -58.916  1.00  0.00     0.081 A 
HETATM   26  O   UNL     1     -40.297  61.922 -58.317  1.00  0.00    -0.324 OA
HETATM   27  C   UNL     1     -39.662  62.674 -59.252  1.00  0.00     0.142 A 
HETATM   28  C   UNL     1     -40.332  62.617 -60.451  1.00  0.00     0.027 A 
HETATM   29  C   UNL     1     -41.451  61.777 -60.237  1.00  0.00     0.037 A 
ENDBRANCH  22  25
ENDBRANCH  21  22
ENDBRANCH  19  21
ENDBRANCH   3  19
TORSDOF 7
ENDMDL
MODEL 7
REMARK VINA RESULT:      -7.2      2.647      4.455
REMARK  7 active torsions:
REMARK  status: ('A' for Active; 'I' for Inactive)
REMARK    1  A    between atoms: C_7  and  C_8 
REMARK    2  A    between atoms: C_8  and  N_9 
REMARK       I    between atoms: N_9  and  C_10 
REMARK       I    between atoms: C_10  and  N_11 
REMARK    3  A    between atoms: N_11  and  C_12 
REMARK    4  A    between atoms: C_12  and  C_13 
REMARK    5  A    between atoms: C_13  and  C_14 
REMARK    6  A    between atoms: C_14  and  O_15 
REMARK    7  A    between atoms: C_14  and  C_16 
ROOT
HETATM    1  N   UNL     1     -41.016  55.555 -54.754  1.00  0.00    -0.337 N 
HETATM    2  C   UNL     1     -42.075  56.164 -55.386  1.00  0.00     0.316 C 
HETATM    3  N   UNL     1     -41.947  56.068 -56.743  1.00  0.00    -0.339 N 
HETATM    4  O   UNL     1     -42.990  56.715 -54.785  1.00  0.00    -0.247 OA
HETATM    5  H   UNL     1     -40.607  54.822 -55.317  1.00  0.00     0.164 HD
HETATM    6  H   UNL     1     -40.982  56.090 -57.047  1.00  0.00     0.164 HD
ENDROOT
BRANCH   1   7
HETATM    7  C   UNL     1     -41.027  55.322 -53.322  1.00  0.00     0.183 C 
BRANCH   7   8
HETATM    8  C   UNL     1     -40.657  53.922 -52.993  1.00  0.00     0.044 A 
HETATM    9  N   UNL     1     -40.546  53.468 -51.688  1.00  0.00    -0.343 N 
HETATM   10  C   UNL     1     -40.226  52.184 -51.651  1.00  0.00     0.112 A 
HETATM   11  H   UNL     1     -40.630  54.096 -50.878  1.00  0.00     0.167 HD
HETATM   12  N   UNL     1     -40.111  51.757 -52.925  1.00  0.00    -0.311 N 
HETATM   13  C   UNL     1     -40.010  51.279 -50.500  1.00  0.00     0.049 A 
HETATM   14  C   UNL     1     -39.770  50.443 -53.244  1.00  0.00     0.014 A 
HETATM   15  C   UNL     1     -40.374  52.824 -53.775  1.00  0.00     0.125 A 
HETATM   16  C   UNL     1     -39.628  50.007 -54.671  1.00  0.00     0.068 C 
HETATM   17  C   UNL     1     -39.572  49.606 -52.201  1.00  0.00     0.025 A 
HETATM   18  C   UNL     1     -39.693  50.009 -50.804  1.00  0.00     0.006 A 
ENDBRANCH   7   8
ENDBRANCH   1   7
BRANCH   3  19
HETATM   19  C   UNL     1     -42.854  56.698 -57.703  1.00  0.00     0.085 C 
HETATM   20  C   UNL     1     -42.785  58.227 -57.668  1.00  0.00     0.032 C 
BRANCH  19  21
HETATM   21  C   UNL     1     -42.658  56.168 -59.135  1.00  0.00     0.063 C 
BRANCH  21  22
HETATM   22  C   UNL     1     -43.913  55.571 -59.789  1.00  0.00     0.177 C 
BRANCH  22  23
HETATM   23  O   UNL     1     -44.435  54.505 -58.987  1.00  0.00    -0.389 OA
HETATM   24  H   UNL     1     -43.961  54.562 -58.138  1.00  0.00     0.210 HD
ENDBRANCH  22  23
BRANCH  22  25
HETATM   25  C   UNL     1     -45.007  56.562 -59.995  1.00  0.00     0.081 A 
HETATM   26  O   UNL     1     -46.278  56.102 -59.809  1.00  0.00    -0.324 OA
HETATM   27  C   UNL     1     -47.121  57.138 -60.055  1.00  0.00     0.142 A 
HETATM   28  C   UNL     1     -46.411  58.265 -60.392  1.00  0.00     0.027 A 
HETATM   29  C   UNL     1     -45.044  57.896 -60.352  1.00  0.00     0.037 A 
ENDBRANCH  22  25
ENDBRANCH  21  22
ENDBRANCH  19  21
ENDBRANCH   3  19
TORSDOF 7
ENDMDL
MODEL 8
REMARK VINA RESULT:      -7.1      2.662      4.483
REMARK  7 active torsions:
REMARK  status: ('A' for Active; 'I' for Inactive)
REMARK    1  A    between atoms: C_7  and  C_8 
REMARK    2  A    between atoms: C_8  and  N_9 
REMARK       I    between atoms: N_9  and  C_10 
REMARK       I    between atoms: C_10  and  N_11 
REMARK    3  A    between atoms: N_11  and  C_12 
REMARK    4  A    between atoms: C_12  and  C_13 
REMARK    5  A    between atoms: C_13  and  C_14 
REMARK    6  A    between atoms: C_14  and  O_15 
REMARK    7  A    between atoms: C_14  and  C_16 
ROOT
HETATM    1  N   UNL     1     -42.480  58.432 -53.822  1.00  0.00    -0.337 N 
HETATM    2  C   UNL     1     -43.014  58.075 -55.038  1.00  0.00     0.316 C 
HETATM    3  N   UNL     1     -42.312  58.647 -56.061  1.00  0.00    -0.339 N 
HETATM    4  O   UNL     1     -43.992  57.346 -55.154  1.00  0.00    -0.247 OA
HETATM    5  H   UNL     1     -41.495  58.654 -53.889  1.00  0.00     0.164 HD
HETATM    6  H   UNL     1     -41.943  59.558 -55.820  1.00  0.00     0.164 HD
ENDROOT
BRANCH   1   7
HETATM    7  C   UNL     1     -42.899  57.782 -52.595  1.00  0.00     0.183 C 
BRANCH   7   8
HETATM    8  C   UNL     1     -42.166  56.511 -52.372  1.00  0.00     0.044 A 
HETATM    9  N   UNL     1     -42.046  55.537 -53.352  1.00  0.00    -0.343 N 
HETATM   10  C   UNL     1     -41.334  54.507 -52.923  1.00  0.00     0.112 A 
HETATM   11  H   UNL     1     -42.529  55.605 -54.257  1.00  0.00     0.167 HD
HETATM   12  N   UNL     1     -40.970  54.766 -51.650  1.00  0.00    -0.311 N 
HETATM   13  C   UNL     1     -40.942  53.256 -53.609  1.00  0.00     0.049 A 
HETATM   14  C   UNL     1     -40.214  53.874 -50.893  1.00  0.00     0.014 A 
HETATM   15  C   UNL     1     -41.480  56.008 -51.289  1.00  0.00     0.125 A 
HETATM   16  C   UNL     1     -39.846  54.183 -49.473  1.00  0.00     0.068 C 
HETATM   17  C   UNL     1     -39.848  52.727 -51.510  1.00  0.00     0.025 A 
HETATM   18  C   UNL     1     -40.202  52.398 -52.886  1.00  0.00     0.006 A 
ENDBRANCH   7   8
ENDBRANCH   1   7
BRANCH   3  19
HETATM   19  C   UNL     1     -42.683  58.547 -57.473  1.00  0.00     0.085 C 
HETATM   20  C   UNL     1     -42.289  59.787 -58.279  1.00  0.00     0.032 C 
BRANCH  19  21
HETATM   21  C   UNL     1     -42.146  57.264 -58.134  1.00  0.00     0.063 C 
BRANCH  21  22
HETATM   22  C   UNL     1     -42.513  57.088 -59.615  1.00  0.00     0.177 C 
BRANCH  22  23
HETATM   23  O   UNL     1     -41.344  56.795 -60.388  1.00  0.00    -0.389 OA
HETATM   24  H   UNL     1     -40.676  56.495 -59.746  1.00  0.00     0.210 HD
ENDBRANCH  22  23
BRANCH  22  25
HETATM   25  C   UNL     1     -43.504  56.001 -59.859  1.00  0.00     0.081 A 
HETATM   26  O   UNL     1     -44.158  56.042 -61.055  1.00  0.00    -0.324 OA
HETATM   27  C   UNL     1     -45.017  54.990 -61.080  1.00  0.00     0.142 A 
HETATM   28  C   UNL     1     -44.921  54.265 -59.916  1.00  0.00     0.027 A 
HETATM   29  C   UNL     1     -43.943  54.915 -59.126  1.00  0.00     0.037 A 
ENDBRANCH  22  25
ENDBRANCH  21  22
ENDBRANCH  19  21
ENDBRANCH   3  19
TORSDOF 7
ENDMDL
MODEL 9
REMARK VINA RESULT:      -7.1      3.308      5.179
REMARK  7 active torsions:
REMARK  status: ('A' for Active; 'I' for Inactive)
REMARK    1  A    between atoms: C_7  and  C_8 
REMARK    2  A    between atoms: C_8  and  N_9 
REMARK       I    between atoms: N_9  and  C_10 
REMARK       I    between atoms: C_10  and  N_11 
REMARK    3  A    between atoms: N_11  and  C_12 
REMARK    4  A    between atoms: C_12  and  C_13 
REMARK    5  A    between atoms: C_13  and  C_14 
REMARK    6  A    between atoms: C_14  and  O_15 
REMARK    7  A    between atoms: C_14  and  C_16 
ROOT
HETATM    1  N   UNL     1     -43.790  55.468 -55.430  1.00  0.00    -0.337 N 
HETATM    2  C   UNL     1     -43.142  56.348 -56.264  1.00  0.00     0.316 C 
HETATM    3  N   UNL     1     -43.645  56.272 -57.532  1.00  0.00    -0.339 N 
HETATM    4  O   UNL     1     -42.235  57.083 -55.890  1.00  0.00    -0.247 OA
HETATM    5  H   UNL     1     -44.730  55.267 -55.744  1.00  0.00     0.164 HD
HETATM    6  H   UNL     1     -43.949  55.338 -57.776  1.00  0.00     0.164 HD
ENDROOT
BRANCH   1   7
HETATM    7  C   UNL     1     -43.601  55.513 -53.993  1.00  0.00     0.183 C 
BRANCH   7   8
HETATM    8  C   UNL     1     -42.594  54.520 -53.541  1.00  0.00     0.044 A 
HETATM    9  N   UNL     1     -42.030  53.588 -54.399  1.00  0.00    -0.343 N 
HETATM   10  C   UNL     1     -41.147  52.829 -53.770  1.00  0.00     0.112 A 
HETATM   11  H   UNL     1     -42.339  53.479 -55.373  1.00  0.00     0.167 HD
HETATM   12  N   UNL     1     -41.108  53.230 -52.483  1.00  0.00    -0.311 N 
HETATM   13  C   UNL     1     -40.301  51.722 -54.270  1.00  0.00     0.049 A 
HETATM   14  C   UNL     1     -40.282  52.626 -51.537  1.00  0.00     0.014 A 
HETATM   15  C   UNL     1     -42.003  54.281 -52.320  1.00  0.00     0.125 A 
HETATM   16  C   UNL     1     -40.281  53.081 -50.109  1.00  0.00     0.068 C 
HETATM   17  C   UNL     1     -39.503  51.615 -51.982  1.00  0.00     0.025 A 
HETATM   18  C   UNL     1     -39.494  51.145 -53.363  1.00  0.00     0.006 A 
ENDBRANCH   7   8
ENDBRANCH   1   7
BRANCH   3  19
HETATM   19  C   UNL     1     -43.106  57.006 -58.678  1.00  0.00     0.085 C 
HETATM   20  C   UNL     1     -43.124  56.184 -59.970  1.00  0.00     0.032 C 
BRANCH  19  21
HETATM   21  C   UNL     1     -43.792  58.370 -58.880  1.00  0.00     0.063 C 
BRANCH  21  22
HETATM   22  C   UNL     1     -42.934  59.592 -58.523  1.00  0.00     0.177 C 
BRANCH  22  23
HETATM   23  O   UNL     1     -41.829  59.204 -57.698  1.00  0.00    -0.389 OA
HETATM   24  H   UNL     1     -41.615  59.989 -57.163  1.00  0.00     0.210 HD
ENDBRANCH  22  23
BRANCH  22  25
HETATM   25  C   UNL     1     -42.385  60.303 -59.712  1.00  0.00     0.081 A 
HETATM   26  O   UNL     1     -41.783  61.504 -59.471  1.00  0.00    -0.324 OA
HETATM   27  C   UNL     1     -41.368  61.994 -60.667  1.00  0.00     0.142 A 
HETATM   28  C   UNL     1     -41.688  61.122 -61.680  1.00  0.00     0.027 A 
HETATM   29  C   UNL     1     -42.344  60.028 -61.066  1.00  0.00     0.037 A 
ENDBRANCH  22  25
ENDBRANCH  21  22
ENDBRANCH  19  21
ENDBRANCH   3  19
TORSDOF 7
ENDMDL
MODEL 10
REMARK VINA RESULT:      -7.0      2.868      4.565
REMARK  7 active torsions:
REMARK  status: ('A' for Active; 'I' for Inactive)
REMARK    1  A    between atoms: C_7  and  C_8 
REMARK    2  A    between atoms: C_8  and  N_9 
REMARK       I    between atoms: N_9  and  C_10 
REMARK       I    between atoms: C_10  and  N_11 
REMARK    3  A    between atoms: N_11  and  C_12 
REMARK    4  A    between atoms: C_12  and  C_13 
REMARK    5  A    between atoms: C_13  and  C_14 
REMARK    6  A    between atoms: C_14  and  O_15 
REMARK    7  A    between atoms: C_14  and  C_16 
ROOT
HETATM    1  N   UNL     1     -44.433  56.474 -53.374  1.00  0.00    -0.337 N 
HETATM    2  C   UNL     1     -44.399  57.848 -53.412  1.00  0.00     0.316 C 
HETATM    3  N   UNL     1     -44.836  58.375 -52.230  1.00  0.00    -0.339 N 
HETATM    4  O   UNL     1     -44.028  58.484 -54.392  1.00  0.00    -0.247 OA
HETATM    5  H   UNL     1     -44.344  56.116 -52.432  1.00  0.00     0.164 HD
HETATM    6  H   UNL     1     -45.554  57.811 -51.793  1.00  0.00     0.164 HD
ENDROOT
BRANCH   1   7
HETATM    7  C   UNL     1     -43.811  55.676 -54.413  1.00  0.00     0.183 C 
BRANCH   7   8
HETATM    8  C   UNL     1     -42.789  54.754 -53.858  1.00  0.00     0.044 A 
HETATM    9  N   UNL     1     -42.234  53.722 -54.600  1.00  0.00    -0.343 N 
HETATM   10  C   UNL     1     -41.334  53.054 -53.896  1.00  0.00     0.112 A 
HETATM   11  H   UNL     1     -42.561  53.487 -55.546  1.00  0.00     0.167 HD
HETATM   12  N   UNL     1     -41.274  53.617 -52.673  1.00  0.00    -0.311 N 
HETATM   13  C   UNL     1     -40.489  51.896 -54.267  1.00  0.00     0.049 A 
HETATM   14  C   UNL     1     -40.426  53.143 -51.673  1.00  0.00     0.014 A 
HETATM   15  C   UNL     1     -42.173  54.675 -52.628  1.00  0.00     0.125 A 
HETATM   16  C   UNL     1     -40.401  53.778 -50.315  1.00  0.00     0.068 C 
HETATM   17  C   UNL     1     -39.648  52.087 -52.000  1.00  0.00     0.025 A 
HETATM   18  C   UNL     1     -39.661  51.443 -53.309  1.00  0.00     0.006 A 
ENDBRANCH   7   8
ENDBRANCH   1   7
BRANCH   3  19
HETATM   19  C   UNL     1     -45.016  59.805 -51.981  1.00  0.00     0.085 C 
HETATM   20  C   UNL     1     -46.484  60.195 -51.790  1.00  0.00     0.032 C 
BRANCH  19  21
HETATM   21  C   UNL     1     -44.152  60.314 -50.812  1.00  0.00     0.063 C 
BRANCH  21  22
HETATM   22  C   UNL     1     -42.866  61.049 -51.220  1.00  0.00     0.177 C 
BRANCH  22  23
HETATM   23  O   UNL     1     -42.611  62.140 -50.329  1.00  0.00    -0.389 OA
HETATM   24  H   UNL     1     -41.715  62.453 -50.550  1.00  0.00     0.210 HD
ENDBRANCH  22  23
BRANCH  22  25
HETATM   25  C   UNL     1     -41.659  60.175 -51.227  1.00  0.00     0.081 A 
HETATM   26  O   UNL     1     -41.234  59.747 -52.452  1.00  0.00    -0.324 OA
HETATM   27  C   UNL     1     -40.145  58.962 -52.248  1.00  0.00     0.142 A 
HETATM   28  C   UNL     1     -39.856  58.881 -50.907  1.00  0.00     0.027 A 
HETATM   29  C   UNL     1     -40.831  59.665 -50.245  1.00  0.00     0.037 A 
ENDBRANCH  22  25
ENDBRANCH  21  22
ENDBRANCH  19  21
ENDBRANCH   3  19
TORSDOF 7
ENDMDL
