MODEL 1
REMARK VINA RESULT:      -7.9      0.000      0.000
REMARK  3 active torsions:
REMARK  status: ('A' for Active; 'I' for Inactive)
REMARK    1  A    between atoms: C_4  and  C_5 
REMARK    2  A    between atoms: C_9  and  C_10 
REMARK       I    between atoms: C_10  and  N_11 
REMARK    3  A    between atoms: N_11  and  N_12 
ROOT
HETATM    1  C   UNL     1     -41.284  56.939 -53.584  1.00  0.00     0.289 C 
HETATM    2  N   UNL     1     -41.313  57.297 -52.246  1.00  0.00    -0.241 N 
HETATM    3  O   UNL     1     -41.569  57.700 -54.506  1.00  0.00    -0.264 OA
HETATM    4  H   UNL     1     -41.066  56.626 -51.519  1.00  0.00     0.192 HD
ENDROOT
BRANCH   2   5
HETATM    5  N   UNL     1     -41.677  58.566 -51.884  1.00  0.00    -0.165 NA
HETATM    6  C   UNL     1     -42.874  58.722 -51.422  1.00  0.00     0.157 A 
HETATM    7  C   UNL     1     -43.966  57.669 -51.217  1.00  0.00     0.277 A 
HETATM    8  C   UNL     1     -43.451  59.986 -50.983  1.00  0.00     0.028 A 
HETATM    9  O   UNL     1     -43.842  56.491 -51.475  1.00  0.00    -0.266 OA
HETATM   10  N   UNL     1     -45.047  58.351 -50.701  1.00  0.00    -0.321 N 
HETATM   11  C   UNL     1     -44.751  59.706 -50.563  1.00  0.00     0.048 A 
HETATM   12  H   UNL     1     -45.922  57.906 -50.464  1.00  0.00     0.169 HD
HETATM   13  C   UNL     1     -45.577  60.700 -50.083  1.00  0.00     0.032 A 
HETATM   14  C   UNL     1     -45.056  62.000 -50.036  1.00  0.00     0.021 A 
HETATM   15  C   UNL     1     -43.738  62.269 -50.465  1.00  0.00     0.012 A 
HETATM   16 BR   UNL     1     -43.083  64.041 -50.381  1.00  0.00    -0.051 Br
HETATM   17  C   UNL     1     -42.912  61.255 -50.948  1.00  0.00     0.035 A 
ENDBRANCH   2   5
BRANCH   1  18
HETATM   18  C   UNL     1     -40.885  55.579 -53.844  1.00  0.00     0.121 A 
HETATM   19  N   UNL     1     -40.485  55.195 -55.097  1.00  0.00    -0.272 N 
HETATM   20  N   UNL     1     -40.142  53.901 -55.195  1.00  0.00    -0.172 NA
HETATM   21  H   UNL     1     -40.431  55.787 -55.922  1.00  0.00     0.189 HD
HETATM   22  C   UNL     1     -40.327  53.429 -53.956  1.00  0.00     0.113 A 
HETATM   23  C   UNL     1     -40.789  54.435 -53.075  1.00  0.00     0.073 A 
BRANCH  22  24
HETATM   24  C   UNL     1     -40.066  52.009 -53.586  1.00  0.00     0.105 A 
HETATM   25  O   UNL     1     -39.688  51.584 -52.340  1.00  0.00    -0.320 OA
HETATM   26  C   UNL     1     -39.548  50.235 -52.400  1.00  0.00     0.142 A 
HETATM   27  C   UNL     1     -39.831  49.775 -53.664  1.00  0.00     0.027 A 
HETATM   28  C   UNL     1     -40.164  50.918 -54.429  1.00  0.00     0.041 A 
ENDBRANCH  22  24
ENDBRANCH   1  18
TORSDOF 3
ENDMDL
MODEL 2
REMARK VINA RESULT:      -7.8      5.766      7.040
REMARK  3 active torsions:
REMARK  status: ('A' for Active; 'I' for Inactive)
REMARK    1  A    between atoms: C_4  and  C_5 
REMARK    2  A    between atoms: C_9  and  C_10 
REMARK       I    between atoms: C_10  and  N_11 
REMARK    3  A    between atoms: N_11  and  N_12 
ROOT
HETATM    1  C   UNL     1     -43.023  55.787 -55.885  1.00  0.00     0.289 C 
HETATM    2  N   UNL     1     -43.031  55.956 -57.259  1.00  0.00    -0.241 N 
HETATM    3  O   UNL     1     -43.791  56.362 -55.116  1.00  0.00    -0.264 OA
HETATM    4  H   UNL     1     -42.370  55.454 -57.852  1.00  0.00     0.192 HD
ENDROOT
BRANCH   2   5
HETATM    5  N   UNL     1     -43.934  56.805 -57.840  1.00  0.00    -0.165 NA
HETATM    6  C   UNL     1     -44.683  56.314 -58.773  1.00  0.00     0.157 A 
HETATM    7  C   UNL     1     -44.704  54.889 -59.331  1.00  0.00     0.277 A 
HETATM    8  C   UNL     1     -45.701  57.048 -59.512  1.00  0.00     0.028 A 
HETATM    9  O   UNL     1     -43.985  53.990 -58.951  1.00  0.00    -0.266 OA
HETATM   10  N   UNL     1     -45.679  54.887 -60.305  1.00  0.00    -0.321 N 
HETATM   11  C   UNL     1     -46.265  56.147 -60.415  1.00  0.00     0.048 A 
HETATM   12  H   UNL     1     -45.919  54.072 -60.850  1.00  0.00     0.169 HD
HETATM   13  C   UNL     1     -47.271  56.533 -61.275  1.00  0.00     0.032 A 
HETATM   14  C   UNL     1     -47.702  57.864 -61.203  1.00  0.00     0.021 A 
HETATM   15  C   UNL     1     -47.121  58.765 -60.284  1.00  0.00     0.012 A 
HETATM   16 BR   UNL     1     -47.739  60.553 -60.227  1.00  0.00    -0.051 Br
HETATM   17  C   UNL     1     -46.104  58.364 -59.419  1.00  0.00     0.035 A 
ENDBRANCH   2   5
BRANCH   1  18
HETATM   18  C   UNL     1     -42.030  54.868 -55.387  1.00  0.00     0.121 A 
HETATM   19  N   UNL     1     -40.695  55.110 -55.577  1.00  0.00    -0.272 N 
HETATM   20  N   UNL     1     -39.885  54.173 -55.062  1.00  0.00    -0.172 NA
HETATM   21  H   UNL     1     -40.288  55.909 -56.058  1.00  0.00     0.189 HD
HETATM   22  C   UNL     1     -40.729  53.289 -54.516  1.00  0.00     0.113 A 
HETATM   23  C   UNL     1     -42.078  53.676 -54.691  1.00  0.00     0.073 A 
BRANCH  22  24
HETATM   24  C   UNL     1     -40.267  52.057 -53.816  1.00  0.00     0.105 A 
HETATM   25  O   UNL     1     -39.806  52.019 -52.527  1.00  0.00    -0.320 OA
HETATM   26  C   UNL     1     -39.483  50.728 -52.253  1.00  0.00     0.142 A 
HETATM   27  C   UNL     1     -39.728  49.927 -53.343  1.00  0.00     0.027 A 
HETATM   28  C   UNL     1     -40.233  50.783 -54.351  1.00  0.00     0.041 A 
ENDBRANCH  22  24
ENDBRANCH   1  18
TORSDOF 3
ENDMDL
MODEL 3
REMARK VINA RESULT:      -7.8      5.124      8.250
REMARK  3 active torsions:
REMARK  status: ('A' for Active; 'I' for Inactive)
REMARK    1  A    between atoms: C_4  and  C_5 
REMARK    2  A    between atoms: C_9  and  C_10 
REMARK       I    between atoms: C_10  and  N_11 
REMARK    3  A    between atoms: N_11  and  N_12 
ROOT
HETATM    1  C   UNL     1     -42.647  55.157 -56.432  1.00  0.00     0.289 C 
HETATM    2  N   UNL     1     -41.412  55.230 -55.810  1.00  0.00    -0.241 N 
HETATM    3  O   UNL     1     -43.480  54.281 -56.209  1.00  0.00    -0.264 OA
HETATM    4  H   UNL     1     -40.758  55.981 -56.032  1.00  0.00     0.192 HD
ENDROOT
BRANCH   2   5
HETATM    5  N   UNL     1     -41.056  54.289 -54.882  1.00  0.00    -0.165 NA
HETATM    6  C   UNL     1     -41.069  54.656 -53.642  1.00  0.00     0.157 A 
HETATM    7  C   UNL     1     -41.433  56.021 -53.052  1.00  0.00     0.277 A 
HETATM    8  C   UNL     1     -40.724  53.809 -52.507  1.00  0.00     0.028 A 
HETATM    9  O   UNL     1     -41.775  56.984 -53.704  1.00  0.00    -0.266 OA
HETATM   10  N   UNL     1     -41.285  55.886 -51.688  1.00  0.00    -0.321 N 
HETATM   11  C   UNL     1     -40.870  54.595 -51.365  1.00  0.00     0.048 A 
HETATM   12  H   UNL     1     -41.459  56.635 -51.034  1.00  0.00     0.169 HD
HETATM   13  C   UNL     1     -40.617  54.085 -50.109  1.00  0.00     0.032 A 
HETATM   14  C   UNL     1     -40.208  52.747 -50.031  1.00  0.00     0.021 A 
HETATM   15  C   UNL     1     -40.064  51.964 -51.196  1.00  0.00     0.012 A 
HETATM   16 BR   UNL     1     -39.509  50.162 -51.036  1.00  0.00    -0.051 Br
HETATM   17  C   UNL     1     -40.323  52.490 -52.461  1.00  0.00     0.035 A 
ENDBRANCH   2   5
BRANCH   1  18
HETATM   18  C   UNL     1     -42.913  56.202 -57.389  1.00  0.00     0.121 A 
HETATM   19  N   UNL     1     -44.018  56.147 -58.196  1.00  0.00    -0.272 N 
HETATM   20  N   UNL     1     -44.140  57.186 -59.038  1.00  0.00    -0.172 NA
HETATM   21  H   UNL     1     -44.722  55.414 -58.208  1.00  0.00     0.189 HD
HETATM   22  C   UNL     1     -43.071  57.943 -58.764  1.00  0.00     0.113 A 
HETATM   23  C   UNL     1     -42.273  57.375 -57.743  1.00  0.00     0.073 A 
BRANCH  22  24
HETATM   24  C   UNL     1     -42.787  59.225 -59.470  1.00  0.00     0.105 A 
HETATM   25  O   UNL     1     -43.189  60.460 -59.037  1.00  0.00    -0.320 OA
HETATM   26  C   UNL     1     -42.743  61.369 -59.941  1.00  0.00     0.142 A 
HETATM   27  C   UNL     1     -42.057  60.745 -60.955  1.00  0.00     0.027 A 
HETATM   28  C   UNL     1     -42.084  59.363 -60.653  1.00  0.00     0.041 A 
ENDBRANCH  22  24
ENDBRANCH   1  18
TORSDOF 3
ENDMDL
MODEL 4
REMARK VINA RESULT:      -7.7      3.725      9.154
REMARK  3 active torsions:
REMARK  status: ('A' for Active; 'I' for Inactive)
REMARK    1  A    between atoms: C_4  and  C_5 
REMARK    2  A    between atoms: C_9  and  C_10 
REMARK       I    between atoms: C_10  and  N_11 
REMARK    3  A    between atoms: N_11  and  N_12 
ROOT
HETATM    1  C   UNL     1     -42.695  56.841 -52.164  1.00  0.00     0.289 C 
HETATM    2  N   UNL     1     -41.403  56.393 -51.942  1.00  0.00    -0.241 N 
HETATM    3  O   UNL     1     -43.554  56.195 -52.760  1.00  0.00    -0.264 OA
HETATM    4  H   UNL     1     -40.729  56.970 -51.440  1.00  0.00     0.192 HD
ENDROOT
BRANCH   2   5
HETATM    5  N   UNL     1     -41.017  55.161 -52.397  1.00  0.00    -0.165 NA
HETATM    6  C   UNL     1     -40.818  54.245 -51.507  1.00  0.00     0.157 A 
HETATM    7  C   UNL     1     -40.954  54.343 -49.985  1.00  0.00     0.277 A 
HETATM    8  C   UNL     1     -40.405  52.875 -51.783  1.00  0.00     0.028 A 
HETATM    9  O   UNL     1     -41.285  55.345 -49.388  1.00  0.00    -0.266 OA
HETATM   10  N   UNL     1     -40.630  53.094 -49.503  1.00  0.00    -0.321 N 
HETATM   11  C   UNL     1     -40.307  52.232 -50.549  1.00  0.00     0.048 A 
HETATM   12  H   UNL     1     -40.633  52.860 -48.520  1.00  0.00     0.169 HD
HETATM   13  C   UNL     1     -39.933  50.908 -50.461  1.00  0.00     0.032 A 
HETATM   14  C   UNL     1     -39.656  50.238 -51.660  1.00  0.00     0.021 A 
HETATM   15  C   UNL     1     -39.758  50.902 -52.902  1.00  0.00     0.012 A 
HETATM   16 BR   UNL     1     -39.372  49.953 -54.492  1.00  0.00    -0.051 Br
HETATM   17  C   UNL     1     -40.137  52.242 -52.979  1.00  0.00     0.035 A 
ENDBRANCH   2   5
BRANCH   1  18
HETATM   18  C   UNL     1     -42.987  58.151 -51.639  1.00  0.00     0.121 A 
HETATM   19  N   UNL     1     -41.976  59.024 -51.336  1.00  0.00    -0.272 N 
HETATM   20  N   UNL     1     -42.392  60.207 -50.856  1.00  0.00    -0.172 NA
HETATM   21  H   UNL     1     -40.979  58.853 -51.439  1.00  0.00     0.189 HD
HETATM   22  C   UNL     1     -43.726  60.094 -50.849  1.00  0.00     0.113 A 
HETATM   23  C   UNL     1     -44.148  58.832 -51.329  1.00  0.00     0.073 A 
BRANCH  22  24
HETATM   24  C   UNL     1     -44.626  61.188 -50.387  1.00  0.00     0.105 A 
HETATM   25  O   UNL     1     -45.987  61.087 -50.284  1.00  0.00    -0.320 OA
HETATM   26  C   UNL     1     -46.447  62.283 -49.831  1.00  0.00     0.142 A 
HETATM   27  C   UNL     1     -45.406  63.158 -49.638  1.00  0.00     0.027 A 
HETATM   28  C   UNL     1     -44.232  62.455 -49.996  1.00  0.00     0.041 A 
ENDBRANCH  22  24
ENDBRANCH   1  18
TORSDOF 3
ENDMDL
MODEL 5
REMARK VINA RESULT:      -7.6      1.679      1.821
REMARK  3 active torsions:
REMARK  status: ('A' for Active; 'I' for Inactive)
REMARK    1  A    between atoms: C_4  and  C_5 
REMARK    2  A    between atoms: C_9  and  C_10 
REMARK       I    between atoms: C_10  and  N_11 
REMARK    3  A    between atoms: N_11  and  N_12 
ROOT
HETATM    1  C   UNL     1     -42.056  56.503 -54.211  1.00  0.00     0.289 C 
HETATM    2  N   UNL     1     -41.244  57.576 -53.882  1.00  0.00    -0.241 N 
HETATM    3  O   UNL     1     -43.258  56.598 -54.448  1.00  0.00    -0.264 OA
HETATM    4  H   UNL     1     -40.250  57.442 -53.695  1.00  0.00     0.192 HD
ENDROOT
BRANCH   2   5
HETATM    5  N   UNL     1     -41.771  58.837 -53.805  1.00  0.00    -0.165 NA
HETATM    6  C   UNL     1     -41.980  59.313 -52.622  1.00  0.00     0.157 A 
HETATM    7  C   UNL     1     -41.716  58.655 -51.265  1.00  0.00     0.277 A 
HETATM    8  C   UNL     1     -42.532  60.629 -52.327  1.00  0.00     0.028 A 
HETATM    9  O   UNL     1     -41.253  57.544 -51.118  1.00  0.00    -0.266 OA
HETATM   10  N   UNL     1     -42.110  59.579 -50.322  1.00  0.00    -0.321 N 
HETATM   11  C   UNL     1     -42.588  60.735 -50.937  1.00  0.00     0.048 A 
HETATM   12  H   UNL     1     -42.050  59.417 -49.327  1.00  0.00     0.169 HD
HETATM   13  C   UNL     1     -43.069  61.873 -50.326  1.00  0.00     0.032 A 
HETATM   14  C   UNL     1     -43.497  62.916 -51.158  1.00  0.00     0.021 A 
HETATM   15  C   UNL     1     -43.435  62.795 -52.563  1.00  0.00     0.012 A 
HETATM   16 BR   UNL     1     -44.026  64.232 -53.642  1.00  0.00    -0.051 Br
HETATM   17  C   UNL     1     -42.947  61.638 -53.170  1.00  0.00     0.035 A 
ENDBRANCH   2   5
BRANCH   1  18
HETATM   18  C   UNL     1     -41.391  55.226 -54.262  1.00  0.00     0.121 A 
HETATM   19  N   UNL     1     -40.624  54.879 -55.344  1.00  0.00    -0.272 N 
HETATM   20  N   UNL     1     -40.065  53.662 -55.257  1.00  0.00    -0.172 NA
HETATM   21  H   UNL     1     -40.455  55.446 -56.170  1.00  0.00     0.189 HD
HETATM   22  C   UNL     1     -40.485  53.203 -54.072  1.00  0.00     0.113 A 
HETATM   23  C   UNL     1     -41.315  54.140 -53.411  1.00  0.00     0.073 A 
BRANCH  22  24
HETATM   24  C   UNL     1     -40.105  51.862 -53.545  1.00  0.00     0.105 A 
HETATM   25  O   UNL     1     -39.749  51.606 -52.248  1.00  0.00    -0.320 OA
HETATM   26  C   UNL     1     -39.476  50.279 -52.159  1.00  0.00     0.142 A 
HETATM   27  C   UNL     1     -39.649  49.668 -53.378  1.00  0.00     0.027 A 
HETATM   28  C   UNL     1     -40.054  50.687 -54.272  1.00  0.00     0.041 A 
ENDBRANCH  22  24
ENDBRANCH   1  18
TORSDOF 3
ENDMDL
MODEL 6
REMARK VINA RESULT:      -7.6      1.939      2.311
REMARK  3 active torsions:
REMARK  status: ('A' for Active; 'I' for Inactive)
REMARK    1  A    between atoms: C_4  and  C_5 
REMARK    2  A    between atoms: C_9  and  C_10 
REMARK       I    between atoms: C_10  and  N_11 
REMARK    3  A    between atoms: N_11  and  N_12 
ROOT
HETATM    1  C   UNL     1     -41.086  55.950 -50.368  1.00  0.00     0.289 C 
HETATM    2  N   UNL     1     -41.253  56.836 -51.420  1.00  0.00    -0.241 N 
HETATM    3  O   UNL     1     -41.223  56.252 -49.185  1.00  0.00    -0.264 OA
HETATM    4  H   UNL     1     -41.127  56.532 -52.385  1.00  0.00     0.192 HD
ENDROOT
BRANCH   2   5
HETATM    5  N   UNL     1     -41.592  58.138 -51.171  1.00  0.00    -0.165 NA
HETATM    6  C   UNL     1     -42.802  58.493 -51.458  1.00  0.00     0.157 A 
HETATM    7  C   UNL     1     -43.932  57.646 -52.049  1.00  0.00     0.277 A 
HETATM    8  C   UNL     1     -43.358  59.827 -51.270  1.00  0.00     0.028 A 
HETATM    9  O   UNL     1     -43.835  56.473 -52.338  1.00  0.00    -0.266 OA
HETATM   10  N   UNL     1     -45.012  58.496 -52.159  1.00  0.00    -0.321 N 
HETATM   11  C   UNL     1     -44.682  59.771 -51.706  1.00  0.00     0.048 A 
HETATM   12  H   UNL     1     -45.910  58.208 -52.522  1.00  0.00     0.169 HD
HETATM   13  C   UNL     1     -45.496  60.883 -51.660  1.00  0.00     0.032 A 
HETATM   14  C   UNL     1     -44.938  62.067 -51.160  1.00  0.00     0.021 A 
HETATM   15  C   UNL     1     -43.596  62.108 -50.723  1.00  0.00     0.012 A 
HETATM   16 BR   UNL     1     -42.891  63.732 -50.055  1.00  0.00    -0.051 Br
HETATM   17  C   UNL     1     -42.782  60.977 -50.773  1.00  0.00     0.035 A 
ENDBRANCH   2   5
BRANCH   1  18
HETATM   18  C   UNL     1     -40.731  54.606 -50.751  1.00  0.00     0.121 A 
HETATM   19  N   UNL     1     -40.393  53.675 -49.804  1.00  0.00    -0.272 N 
HETATM   20  N   UNL     1     -40.086  52.467 -50.302  1.00  0.00    -0.172 NA
HETATM   21  H   UNL     1     -40.357  53.822 -48.799  1.00  0.00     0.189 HD
HETATM   22  C   UNL     1     -40.232  52.623 -51.624  1.00  0.00     0.113 A 
HETATM   23  C   UNL     1     -40.633  53.938 -51.956  1.00  0.00     0.073 A 
BRANCH  22  24
HETATM   24  C   UNL     1     -39.992  51.520 -52.598  1.00  0.00     0.105 A 
HETATM   25  O   UNL     1     -39.638  50.242 -52.258  1.00  0.00    -0.320 OA
HETATM   26  C   UNL     1     -39.511  49.538 -53.412  1.00  0.00     0.142 A 
HETATM   27  C   UNL     1     -39.778  50.338 -54.497  1.00  0.00     0.027 A 
HETATM   28  C   UNL     1     -40.087  51.616 -53.974  1.00  0.00     0.041 A 
ENDBRANCH  22  24
ENDBRANCH   1  18
TORSDOF 3
ENDMDL
MODEL 7
REMARK VINA RESULT:      -7.6      1.923      2.175
REMARK  3 active torsions:
REMARK  status: ('A' for Active; 'I' for Inactive)
REMARK    1  A    between atoms: C_4  and  C_5 
REMARK    2  A    between atoms: C_9  and  C_10 
REMARK       I    between atoms: C_10  and  N_11 
REMARK    3  A    between atoms: N_11  and  N_12 
ROOT
HETATM    1  C   UNL     1     -41.814  56.411 -51.680  1.00  0.00     0.289 C 
HETATM    2  N   UNL     1     -43.153  56.674 -51.916  1.00  0.00    -0.241 N 
HETATM    3  O   UNL     1     -41.096  57.094 -50.953  1.00  0.00    -0.264 OA
HETATM    4  H   UNL     1     -43.704  56.073 -52.529  1.00  0.00     0.192 HD
ENDROOT
BRANCH   2   5
HETATM    5  N   UNL     1     -43.755  57.751 -51.323  1.00  0.00    -0.165 NA
HETATM    6  C   UNL     1     -44.465  58.518 -52.085  1.00  0.00     0.157 A 
HETATM    7  C   UNL     1     -44.734  58.390 -53.586  1.00  0.00     0.277 A 
HETATM    8  C   UNL     1     -45.183  59.708 -51.650  1.00  0.00     0.028 A 
HETATM    9  O   UNL     1     -44.294  57.507 -54.292  1.00  0.00    -0.266 OA
HETATM   10  N   UNL     1     -45.546  59.456 -53.909  1.00  0.00    -0.321 N 
HETATM   11  C   UNL     1     -45.811  60.230 -52.781  1.00  0.00     0.048 A 
HETATM   12  H   UNL     1     -45.889  59.629 -54.843  1.00  0.00     0.169 HD
HETATM   13  C   UNL     1     -46.581  61.371 -52.709  1.00  0.00     0.032 A 
HETATM   14  C   UNL     1     -46.705  61.983 -51.454  1.00  0.00     0.021 A 
HETATM   15  C   UNL     1     -46.063  61.444 -50.318  1.00  0.00     0.012 A 
HETATM   16 BR   UNL     1     -46.262  62.309 -48.647  1.00  0.00    -0.051 Br
HETATM   17  C   UNL     1     -45.287  60.289 -50.403  1.00  0.00     0.035 A 
ENDBRANCH   2   5
BRANCH   1  18
HETATM   18  C   UNL     1     -41.290  55.251 -52.356  1.00  0.00     0.121 A 
HETATM   19  N   UNL     1     -40.854  55.335 -53.653  1.00  0.00    -0.272 N 
HETATM   20  N   UNL     1     -40.392  54.179 -54.156  1.00  0.00    -0.172 NA
HETATM   21  H   UNL     1     -40.855  56.166 -54.237  1.00  0.00     0.189 HD
HETATM   22  C   UNL     1     -40.534  53.314 -53.144  1.00  0.00     0.113 A 
HETATM   23  C   UNL     1     -41.089  53.932 -51.999  1.00  0.00     0.073 A 
BRANCH  22  24
HETATM   24  C   UNL     1     -40.143  51.879 -53.248  1.00  0.00     0.105 A 
HETATM   25  O   UNL     1     -39.761  51.096 -52.192  1.00  0.00    -0.320 OA
HETATM   26  C   UNL     1     -39.485  49.861 -52.685  1.00  0.00     0.142 A 
HETATM   27  C   UNL     1     -39.682  49.829 -54.045  1.00  0.00     0.027 A 
HETATM   28  C   UNL     1     -40.106  51.129 -54.409  1.00  0.00     0.041 A 
ENDBRANCH  22  24
ENDBRANCH   1  18
TORSDOF 3
ENDMDL
MODEL 8
REMARK VINA RESULT:      -7.6     17.791     19.467
REMARK  3 active torsions:
REMARK  status: ('A' for Active; 'I' for Inactive)
REMARK    1  A    between atoms: C_4  and  C_5 
REMARK    2  A    between atoms: C_9  and  C_10 
REMARK       I    between atoms: C_10  and  N_11 
REMARK    3  A    between atoms: N_11  and  N_12 
ROOT
HETATM    1  C   UNL     1     -33.252  40.806 -53.933  1.00  0.00     0.289 C 
HETATM    2  N   UNL     1     -33.778  41.074 -52.681  1.00  0.00    -0.241 N 
HETATM    3  O   UNL     1     -32.142  40.313 -54.122  1.00  0.00    -0.264 OA
HETATM    4  H   UNL     1     -34.706  41.484 -52.580  1.00  0.00     0.192 HD
ENDROOT
BRANCH   2   5
HETATM    5  N   UNL     1     -33.051  40.788 -51.556  1.00  0.00    -0.165 NA
HETATM    6  C   UNL     1     -33.563  39.935 -50.730  1.00  0.00     0.157 A 
HETATM    7  C   UNL     1     -34.894  39.185 -50.832  1.00  0.00     0.277 A 
HETATM    8  C   UNL     1     -32.952  39.498 -49.482  1.00  0.00     0.028 A 
HETATM    9  O   UNL     1     -35.680  39.299 -51.748  1.00  0.00    -0.266 OA
HETATM   10  N   UNL     1     -34.966  38.404 -49.699  1.00  0.00    -0.321 N 
HETATM   11  C   UNL     1     -33.834  38.583 -48.906  1.00  0.00     0.048 A 
HETATM   12  H   UNL     1     -35.744  37.793 -49.494  1.00  0.00     0.169 HD
HETATM   13  C   UNL     1     -33.547  37.975 -47.702  1.00  0.00     0.032 A 
HETATM   14  C   UNL     1     -32.337  38.315 -47.084  1.00  0.00     0.021 A 
HETATM   15  C   UNL     1     -31.455  39.243 -47.678  1.00  0.00     0.012 A 
HETATM   16 BR   UNL     1     -29.833  39.668 -46.802  1.00  0.00    -0.051 Br
HETATM   17  C   UNL     1     -31.755  39.852 -48.896  1.00  0.00     0.035 A 
ENDBRANCH   2   5
BRANCH   1  18
HETATM   18  C   UNL     1     -34.107  41.148 -55.042  1.00  0.00     0.121 A 
HETATM   19  N   UNL     1     -34.658  42.398 -55.141  1.00  0.00    -0.272 N 
HETATM   20  N   UNL     1     -35.432  42.577 -56.223  1.00  0.00    -0.172 NA
HETATM   21  H   UNL     1     -34.533  43.166 -54.487  1.00  0.00     0.189 HD
HETATM   22  C   UNL     1     -35.379  41.395 -56.849  1.00  0.00     0.113 A 
HETATM   23  C   UNL     1     -34.566  40.469 -56.154  1.00  0.00     0.073 A 
BRANCH  22  24
HETATM   24  C   UNL     1     -36.103  41.124 -58.124  1.00  0.00     0.105 A 
HETATM   25  O   UNL     1     -36.078  39.932 -58.796  1.00  0.00    -0.320 OA
HETATM   26  C   UNL     1     -36.853  40.077 -59.902  1.00  0.00     0.142 A 
HETATM   27  C   UNL     1     -37.382  41.345 -59.958  1.00  0.00     0.027 A 
HETATM   28  C   UNL     1     -36.899  42.020 -58.813  1.00  0.00     0.041 A 
ENDBRANCH  22  24
ENDBRANCH   1  18
TORSDOF 3
ENDMDL
MODEL 9
REMARK VINA RESULT:      -7.6      3.456      9.185
REMARK  3 active torsions:
REMARK  status: ('A' for Active; 'I' for Inactive)
REMARK    1  A    between atoms: C_4  and  C_5 
REMARK    2  A    between atoms: C_9  and  C_10 
REMARK       I    between atoms: C_10  and  N_11 
REMARK    3  A    between atoms: N_11  and  N_12 
ROOT
HETATM    1  C   UNL     1     -42.745  57.075 -51.562  1.00  0.00     0.289 C 
HETATM    2  N   UNL     1     -41.468  56.668 -51.912  1.00  0.00    -0.241 N 
HETATM    3  O   UNL     1     -43.600  56.327 -51.094  1.00  0.00    -0.264 OA
HETATM    4  H   UNL     1     -40.795  57.331 -52.298  1.00  0.00     0.192 HD
ENDROOT
BRANCH   2   5
HETATM    5  N   UNL     1     -41.093  55.363 -51.742  1.00  0.00    -0.165 NA
HETATM    6  C   UNL     1     -40.869  54.674 -52.813  1.00  0.00     0.157 A 
HETATM    7  C   UNL     1     -40.964  55.120 -54.275  1.00  0.00     0.277 A 
HETATM    8  C   UNL     1     -40.462  53.276 -52.848  1.00  0.00     0.028 A 
HETATM    9  O   UNL     1     -41.278  56.234 -54.636  1.00  0.00    -0.266 OA
HETATM   10  N   UNL     1     -40.626  54.013 -55.023  1.00  0.00    -0.321 N 
HETATM   11  C   UNL     1     -40.332  52.932 -54.193  1.00  0.00     0.048 A 
HETATM   12  H   UNL     1     -40.601  54.011 -56.032  1.00  0.00     0.169 HD
HETATM   13  C   UNL     1     -39.955  51.661 -54.573  1.00  0.00     0.032 A 
HETATM   14  C   UNL     1     -39.709  50.733 -53.552  1.00  0.00     0.021 A 
HETATM   15  C   UNL     1     -39.845  51.095 -52.195  1.00  0.00     0.012 A 
HETATM   16 BR   UNL     1     -39.502  49.804 -50.855  1.00  0.00    -0.051 Br
HETATM   17  C   UNL     1     -40.227  52.383 -51.823  1.00  0.00     0.035 A 
ENDBRANCH   2   5
BRANCH   1  18
HETATM   18  C   UNL     1     -43.025  58.471 -51.785  1.00  0.00     0.121 A 
HETATM   19  N   UNL     1     -43.767  58.873 -52.864  1.00  0.00    -0.272 N 
HETATM   20  N   UNL     1     -43.949  60.200 -52.946  1.00  0.00    -0.172 NA
HETATM   21  H   UNL     1     -44.171  58.270 -53.577  1.00  0.00     0.189 HD
HETATM   22  C   UNL     1     -43.300  60.676 -51.877  1.00  0.00     0.113 A 
HETATM   23  C   UNL     1     -42.706  59.639 -51.119  1.00  0.00     0.073 A 
BRANCH  22  24
HETATM   24  C   UNL     1     -43.232  62.130 -51.555  1.00  0.00     0.105 A 
HETATM   25  O   UNL     1     -43.401  63.139 -52.464  1.00  0.00    -0.320 OA
HETATM   26  C   UNL     1     -43.268  64.312 -51.793  1.00  0.00     0.142 A 
HETATM   27  C   UNL     1     -43.015  64.081 -50.462  1.00  0.00     0.027 A 
HETATM   28  C   UNL     1     -42.991  62.675 -50.307  1.00  0.00     0.041 A 
ENDBRANCH  22  24
ENDBRANCH   1  18
TORSDOF 3
ENDMDL
MODEL 10
REMARK VINA RESULT:      -7.4      5.616      6.764
REMARK  3 active torsions:
REMARK  status: ('A' for Active; 'I' for Inactive)
REMARK    1  A    between atoms: C_4  and  C_5 
REMARK    2  A    between atoms: C_9  and  C_10 
REMARK       I    between atoms: C_10  and  N_11 
REMARK    3  A    between atoms: N_11  and  N_12 
ROOT
HETATM    1  C   UNL     1     -42.775  56.148 -57.323  1.00  0.00     0.289 C 
HETATM    2  N   UNL     1     -42.031  57.314 -57.399  1.00  0.00    -0.241 N 
HETATM    3  O   UNL     1     -43.544  55.764 -58.201  1.00  0.00    -0.264 OA
HETATM    4  H   UNL     1     -41.406  57.586 -56.640  1.00  0.00     0.192 HD
ENDROOT
BRANCH   2   5
HETATM    5  N   UNL     1     -42.126  58.117 -58.503  1.00  0.00    -0.165 NA
HETATM    6  C   UNL     1     -42.011  59.391 -58.312  1.00  0.00     0.157 A 
HETATM    7  C   UNL     1     -41.778  60.144 -57.000  1.00  0.00     0.277 A 
HETATM    8  C   UNL     1     -42.082  60.410 -59.351  1.00  0.00     0.028 A 
HETATM    9  O   UNL     1     -41.665  59.616 -55.914  1.00  0.00    -0.266 OA
HETATM   10  N   UNL     1     -41.731  61.478 -57.342  1.00  0.00    -0.321 N 
HETATM   11  C   UNL     1     -41.909  61.639 -58.715  1.00  0.00     0.048 A 
HETATM   12  H   UNL     1     -41.587  62.219 -56.671  1.00  0.00     0.169 HD
HETATM   13  C   UNL     1     -41.924  62.820 -59.426  1.00  0.00     0.032 A 
HETATM   14  C   UNL     1     -42.121  62.733 -60.811  1.00  0.00     0.021 A 
HETATM   15  C   UNL     1     -42.295  61.481 -61.441  1.00  0.00     0.012 A 
HETATM   16 BR   UNL     1     -42.557  61.418 -63.313  1.00  0.00    -0.051 Br
HETATM   17  C   UNL     1     -42.278  60.294 -60.711  1.00  0.00     0.035 A 
ENDBRANCH   2   5
BRANCH   1  18
HETATM   18  C   UNL     1     -42.592  55.383 -56.115  1.00  0.00     0.121 A 
HETATM   19  N   UNL     1     -43.654  55.103 -55.296  1.00  0.00    -0.272 N 
HETATM   20  N   UNL     1     -43.338  54.383 -54.208  1.00  0.00    -0.172 NA
HETATM   21  H   UNL     1     -44.619  55.386 -55.442  1.00  0.00     0.189 HD
HETATM   22  C   UNL     1     -42.019  54.190 -54.328  1.00  0.00     0.113 A 
HETATM   23  C   UNL     1     -41.505  54.793 -55.500  1.00  0.00     0.073 A 
BRANCH  22  24
HETATM   24  C   UNL     1     -41.221  53.426 -53.327  1.00  0.00     0.105 A 
HETATM   25  O   UNL     1     -41.232  53.659 -51.978  1.00  0.00    -0.320 OA
HETATM   26  C   UNL     1     -40.383  52.765 -51.408  1.00  0.00     0.142 A 
HETATM   27  C   UNL     1     -39.820  51.955 -52.365  1.00  0.00     0.027 A 
HETATM   28  C   UNL     1     -40.359  52.380 -53.602  1.00  0.00     0.041 A 
ENDBRANCH  22  24
ENDBRANCH   1  18
TORSDOF 3
ENDMDL
