MODEL 1
REMARK VINA RESULT:      -7.7      0.000      0.000
REMARK  6 active torsions:
REMARK  status: ('A' for Active; 'I' for Inactive)
REMARK    1  A    between atoms: C_2  and  C_3 
REMARK    2  A    between atoms: C_7  and  C_8 
REMARK       I    between atoms: C_8  and  N_9 
REMARK    3  A    between atoms: N_9  and  C_10 
REMARK    4  A    between atoms: C_11  and  O_12 
REMARK    5  A    between atoms: O_12  and  C_13 
REMARK    6  A    between atoms: C_13  and  C_14 
ROOT
HETATM    1  C   UNL     1     -40.683  53.597 -52.921  1.00  0.00     0.068 A 
HETATM    2  C   UNL     1     -39.928  52.714 -52.130  1.00  0.00     0.096 A 
HETATM    3  C   UNL     1     -39.550  51.458 -52.609  1.00  0.00     0.046 A 
HETATM    4  C   UNL     1     -39.969  51.042 -53.878  1.00  0.00    -0.059 A 
HETATM    5  C   UNL     1     -39.543  49.711 -54.424  1.00  0.00     0.048 C 
HETATM    6  C   UNL     1     -40.736  51.914 -54.661  1.00  0.00     0.009 A 
HETATM    7  C   UNL     1     -41.091  53.183 -54.187  1.00  0.00     0.033 A 
ENDROOT
BRANCH   1   8
HETATM    8  N   UNL     1     -40.958  54.870 -52.379  1.00  0.00    -0.319 N 
HETATM    9  C   UNL     1     -42.184  55.404 -52.039  1.00  0.00     0.274 C 
HETATM   10  O   UNL     1     -43.242  54.787 -52.027  1.00  0.00    -0.266 OA
HETATM   11  H   UNL     1     -40.128  55.388 -52.112  1.00  0.00     0.169 HD
BRANCH   9  12
HETATM   12  C   UNL     1     -42.103  56.787 -51.637  1.00  0.00     0.120 A 
HETATM   13  N   UNL     1     -43.103  57.712 -51.772  1.00  0.00    -0.273 N 
HETATM   14  N   UNL     1     -42.775  58.939 -51.344  1.00  0.00    -0.179 NA
HETATM   15  H   UNL     1     -44.039  57.568 -52.138  1.00  0.00     0.189 HD
HETATM   16  C   UNL     1     -41.535  58.793 -50.861  1.00  0.00     0.056 A 
HETATM   17  C   UNL     1     -41.084  57.460 -50.994  1.00  0.00     0.065 A 
BRANCH  16  18
HETATM   18  C   UNL     1     -40.807  59.957 -50.283  1.00  0.00     0.056 C 
HETATM   19  C   UNL     1     -39.297  59.780 -50.347  1.00  0.00     0.011 C 
ENDBRANCH  16  18
ENDBRANCH   9  12
ENDBRANCH   1   8
BRANCH   2  20
HETATM   20  O   UNL     1     -39.535  53.153 -50.886  1.00  0.00    -0.340 OA
BRANCH  20  21
HETATM   21  C   UNL     1     -40.444  52.721 -49.854  1.00  0.00     0.293 C 
BRANCH  21  22
HETATM   22  C   UNL     1     -40.732  53.869 -48.901  1.00  0.00     0.408 C 
HETATM   23  F   UNL     1     -40.551  53.494 -47.614  1.00  0.00    -0.169 F 
HETATM   24  F   UNL     1     -39.903  54.911 -49.143  1.00  0.00    -0.169 F 
HETATM   25  F   UNL     1     -41.999  54.317 -49.028  1.00  0.00    -0.169 F 
ENDBRANCH  21  22
ENDBRANCH  20  21
ENDBRANCH   2  20
TORSDOF 6
ENDMDL
MODEL 2
REMARK VINA RESULT:      -7.2      4.115      5.934
REMARK  6 active torsions:
REMARK  status: ('A' for Active; 'I' for Inactive)
REMARK    1  A    between atoms: C_2  and  C_3 
REMARK    2  A    between atoms: C_7  and  C_8 
REMARK       I    between atoms: C_8  and  N_9 
REMARK    3  A    between atoms: N_9  and  C_10 
REMARK    4  A    between atoms: C_11  and  O_12 
REMARK    5  A    between atoms: O_12  and  C_13 
REMARK    6  A    between atoms: C_13  and  C_14 
ROOT
HETATM    1  C   UNL     1     -41.425  55.001 -52.884  1.00  0.00     0.068 A 
HETATM    2  C   UNL     1     -41.089  53.644 -52.751  1.00  0.00     0.096 A 
HETATM    3  C   UNL     1     -40.726  53.108 -51.513  1.00  0.00     0.046 A 
HETATM    4  C   UNL     1     -40.643  53.940 -50.391  1.00  0.00    -0.059 A 
HETATM    5  C   UNL     1     -40.290  53.376 -49.047  1.00  0.00     0.048 C 
HETATM    6  C   UNL     1     -40.962  55.297 -50.525  1.00  0.00     0.009 A 
HETATM    7  C   UNL     1     -41.350  55.826 -51.763  1.00  0.00     0.033 A 
ENDROOT
BRANCH   1   8
HETATM    8  N   UNL     1     -41.846  55.437 -54.158  1.00  0.00    -0.319 N 
HETATM    9  C   UNL     1     -43.053  56.005 -54.509  1.00  0.00     0.274 C 
HETATM   10  O   UNL     1     -43.922  56.357 -53.719  1.00  0.00    -0.266 OA
HETATM   11  H   UNL     1     -41.112  55.421 -54.858  1.00  0.00     0.169 HD
BRANCH   9  12
HETATM   12  C   UNL     1     -43.190  56.204 -55.931  1.00  0.00     0.120 A 
HETATM   13  N   UNL     1     -43.536  57.381 -56.538  1.00  0.00    -0.273 N 
HETATM   14  N   UNL     1     -43.621  57.303 -57.874  1.00  0.00    -0.179 NA
HETATM   15  H   UNL     1     -43.717  58.277 -56.099  1.00  0.00     0.189 HD
HETATM   16  C   UNL     1     -43.261  56.044 -58.148  1.00  0.00     0.056 A 
HETATM   17  C   UNL     1     -42.953  55.327 -56.970  1.00  0.00     0.065 A 
BRANCH  16  18
HETATM   18  C   UNL     1     -43.229  55.557 -59.556  1.00  0.00     0.056 C 
HETATM   19  C   UNL     1     -44.372  54.598 -59.858  1.00  0.00     0.011 C 
ENDBRANCH  16  18
ENDBRANCH   9  12
ENDBRANCH   1   8
BRANCH   2  20
HETATM   20  O   UNL     1     -41.178  52.853 -53.874  1.00  0.00    -0.340 OA
BRANCH  20  21
HETATM   21  C   UNL     1     -39.955  52.129 -54.116  1.00  0.00     0.293 C 
BRANCH  21  22
HETATM   22  C   UNL     1     -40.243  50.639 -54.205  1.00  0.00     0.408 C 
HETATM   23  F   UNL     1     -41.512  50.410 -54.612  1.00  0.00    -0.169 F 
HETATM   24  F   UNL     1     -39.415  50.044 -55.094  1.00  0.00    -0.169 F 
HETATM   25  F   UNL     1     -40.072  50.026 -53.014  1.00  0.00    -0.169 F 
ENDBRANCH  21  22
ENDBRANCH  20  21
ENDBRANCH   2  20
TORSDOF 6
ENDMDL
MODEL 3
REMARK VINA RESULT:      -7.1      3.784      5.066
REMARK  6 active torsions:
REMARK  status: ('A' for Active; 'I' for Inactive)
REMARK    1  A    between atoms: C_2  and  C_3 
REMARK    2  A    between atoms: C_7  and  C_8 
REMARK       I    between atoms: C_8  and  N_9 
REMARK    3  A    between atoms: N_9  and  C_10 
REMARK    4  A    between atoms: C_11  and  O_12 
REMARK    5  A    between atoms: O_12  and  C_13 
REMARK    6  A    between atoms: C_13  and  C_14 
ROOT
HETATM    1  C   UNL     1     -40.810  53.516 -54.223  1.00  0.00     0.068 A 
HETATM    2  C   UNL     1     -40.700  53.884 -52.872  1.00  0.00     0.096 A 
HETATM    3  C   UNL     1     -40.205  52.992 -51.917  1.00  0.00     0.046 A 
HETATM    4  C   UNL     1     -39.859  51.691 -52.295  1.00  0.00    -0.059 A 
HETATM    5  C   UNL     1     -39.291  50.730 -51.292  1.00  0.00     0.048 C 
HETATM    6  C   UNL     1     -39.982  51.316 -53.639  1.00  0.00     0.009 A 
HETATM    7  C   UNL     1     -40.455  52.222 -54.597  1.00  0.00     0.033 A 
ENDROOT
BRANCH   1   8
HETATM    8  N   UNL     1     -41.255  54.505 -55.125  1.00  0.00    -0.319 N 
HETATM    9  C   UNL     1     -42.509  54.646 -55.683  1.00  0.00     0.274 C 
HETATM   10  O   UNL     1     -43.498  53.996 -55.368  1.00  0.00    -0.266 OA
HETATM   11  H   UNL     1     -40.586  55.253 -55.274  1.00  0.00     0.169 HD
BRANCH   9  12
HETATM   12  C   UNL     1     -42.571  55.697 -56.670  1.00  0.00     0.120 A 
HETATM   13  N   UNL     1     -42.056  56.956 -56.520  1.00  0.00    -0.273 N 
HETATM   14  N   UNL     1     -42.262  57.760 -57.573  1.00  0.00    -0.179 NA
HETATM   15  H   UNL     1     -41.541  57.329 -55.729  1.00  0.00     0.189 HD
HETATM   16  C   UNL     1     -42.885  56.977 -58.462  1.00  0.00     0.056 A 
HETATM   17  C   UNL     1     -43.072  55.670 -57.955  1.00  0.00     0.065 A 
BRANCH  16  18
HETATM   18  C   UNL     1     -43.293  57.516 -59.789  1.00  0.00     0.056 C 
HETATM   19  C   UNL     1     -42.212  58.385 -60.414  1.00  0.00     0.011 C 
ENDBRANCH  16  18
ENDBRANCH   9  12
ENDBRANCH   1   8
BRANCH   2  20
HETATM   20  O   UNL     1     -41.053  55.171 -52.533  1.00  0.00    -0.340 OA
BRANCH  20  21
HETATM   21  C   UNL     1     -41.837  55.210 -51.323  1.00  0.00     0.293 C 
BRANCH  21  22
HETATM   22  C   UNL     1     -43.314  55.087 -51.658  1.00  0.00     0.408 C 
HETATM   23  F   UNL     1     -43.625  55.796 -52.767  1.00  0.00    -0.169 F 
HETATM   24  F   UNL     1     -43.646  53.797 -51.891  1.00  0.00    -0.169 F 
HETATM   25  F   UNL     1     -44.093  55.533 -50.649  1.00  0.00    -0.169 F 
ENDBRANCH  21  22
ENDBRANCH  20  21
ENDBRANCH   2  20
TORSDOF 6
ENDMDL
MODEL 4
REMARK VINA RESULT:      -7.1      3.280      4.154
REMARK  6 active torsions:
REMARK  status: ('A' for Active; 'I' for Inactive)
REMARK    1  A    between atoms: C_2  and  C_3 
REMARK    2  A    between atoms: C_7  and  C_8 
REMARK       I    between atoms: C_8  and  N_9 
REMARK    3  A    between atoms: N_9  and  C_10 
REMARK    4  A    between atoms: C_11  and  O_12 
REMARK    5  A    between atoms: O_12  and  C_13 
REMARK    6  A    between atoms: C_13  and  C_14 
ROOT
HETATM    1  C   UNL     1     -40.702  52.793 -53.847  1.00  0.00     0.068 A 
HETATM    2  C   UNL     1     -40.435  53.129 -52.509  1.00  0.00     0.096 A 
HETATM    3  C   UNL     1     -39.905  52.191 -51.620  1.00  0.00     0.046 A 
HETATM    4  C   UNL     1     -39.680  50.878 -52.047  1.00  0.00    -0.059 A 
HETATM    5  C   UNL     1     -39.077  49.866 -51.118  1.00  0.00     0.048 C 
HETATM    6  C   UNL     1     -39.960  50.536 -53.376  1.00  0.00     0.009 A 
HETATM    7  C   UNL     1     -40.468  51.487 -54.271  1.00  0.00     0.033 A 
ENDROOT
BRANCH   1   8
HETATM    8  N   UNL     1     -41.171  53.825 -54.687  1.00  0.00    -0.319 N 
HETATM    9  C   UNL     1     -42.449  54.339 -54.771  1.00  0.00     0.274 C 
HETATM   10  O   UNL     1     -43.370  54.066 -54.011  1.00  0.00    -0.266 OA
HETATM   11  H   UNL     1     -40.437  54.303 -55.197  1.00  0.00     0.169 HD
BRANCH   9  12
HETATM   12  C   UNL     1     -42.600  55.298 -55.839  1.00  0.00     0.120 A 
HETATM   13  N   UNL     1     -43.301  55.092 -56.996  1.00  0.00    -0.273 N 
HETATM   14  N   UNL     1     -43.273  56.129 -57.845  1.00  0.00    -0.179 NA
HETATM   15  H   UNL     1     -43.832  54.270 -57.265  1.00  0.00     0.189 HD
HETATM   16  C   UNL     1     -42.576  57.065 -57.189  1.00  0.00     0.056 A 
HETATM   17  C   UNL     1     -42.160  56.603 -55.919  1.00  0.00     0.065 A 
BRANCH  16  18
HETATM   18  C   UNL     1     -42.319  58.393 -57.814  1.00  0.00     0.056 C 
HETATM   19  C   UNL     1     -41.921  58.271 -59.278  1.00  0.00     0.011 C 
ENDBRANCH  16  18
ENDBRANCH   9  12
ENDBRANCH   1   8
BRANCH   2  20
HETATM   20  O   UNL     1     -40.671  54.428 -52.121  1.00  0.00    -0.340 OA
BRANCH  20  21
HETATM   21  C   UNL     1     -41.469  54.492 -50.922  1.00  0.00     0.293 C 
BRANCH  21  22
HETATM   22  C   UNL     1     -40.745  55.302 -49.859  1.00  0.00     0.408 C 
HETATM   23  F   UNL     1     -39.475  54.866 -49.692  1.00  0.00    -0.169 F 
HETATM   24  F   UNL     1     -40.685  56.607 -50.209  1.00  0.00    -0.169 F 
HETATM   25  F   UNL     1     -41.369  55.228 -48.664  1.00  0.00    -0.169 F 
ENDBRANCH  21  22
ENDBRANCH  20  21
ENDBRANCH   2  20
TORSDOF 6
ENDMDL
MODEL 5
REMARK VINA RESULT:      -7.1     14.876     16.652
REMARK  6 active torsions:
REMARK  status: ('A' for Active; 'I' for Inactive)
REMARK    1  A    between atoms: C_2  and  C_3 
REMARK    2  A    between atoms: C_7  and  C_8 
REMARK       I    between atoms: C_8  and  N_9 
REMARK    3  A    between atoms: N_9  and  C_10 
REMARK    4  A    between atoms: C_11  and  O_12 
REMARK    5  A    between atoms: O_12  and  C_13 
REMARK    6  A    between atoms: C_13  and  C_14 
ROOT
HETATM    1  C   UNL     1     -34.017  40.613 -52.420  1.00  0.00     0.068 A 
HETATM    2  C   UNL     1     -32.619  40.525 -52.531  1.00  0.00     0.096 A 
HETATM    3  C   UNL     1     -31.829  40.157 -51.440  1.00  0.00     0.046 A 
HETATM    4  C   UNL     1     -32.427  39.919 -50.198  1.00  0.00    -0.059 A 
HETATM    5  C   UNL     1     -31.600  39.486 -49.023  1.00  0.00     0.048 C 
HETATM    6  C   UNL     1     -33.819  40.021 -50.080  1.00  0.00     0.009 A 
HETATM    7  C   UNL     1     -34.610  40.366 -51.184  1.00  0.00     0.033 A 
ENDROOT
BRANCH   1   8
HETATM    8  N   UNL     1     -34.736  40.925 -53.593  1.00  0.00    -0.319 N 
HETATM    9  C   UNL     1     -35.565  42.004 -53.822  1.00  0.00     0.274 C 
HETATM   10  O   UNL     1     -35.702  42.960 -53.068  1.00  0.00    -0.266 OA
HETATM   11  H   UNL     1     -34.509  40.330 -54.382  1.00  0.00     0.169 HD
BRANCH   9  12
HETATM   12  C   UNL     1     -36.244  41.933 -55.093  1.00  0.00     0.120 A 
HETATM   13  N   UNL     1     -37.568  41.635 -55.270  1.00  0.00    -0.273 N 
HETATM   14  N   UNL     1     -37.956  41.607 -56.552  1.00  0.00    -0.179 NA
HETATM   15  H   UNL     1     -38.265  41.452 -54.556  1.00  0.00     0.189 HD
HETATM   16  C   UNL     1     -36.857  41.956 -57.231  1.00  0.00     0.056 A 
HETATM   17  C   UNL     1     -35.769  42.199 -56.361  1.00  0.00     0.065 A 
BRANCH  16  18
HETATM   18  C   UNL     1     -36.881  42.040 -58.719  1.00  0.00     0.056 C 
HETATM   19  C   UNL     1     -37.585  40.848 -59.350  1.00  0.00     0.011 C 
ENDBRANCH  16  18
ENDBRANCH   9  12
ENDBRANCH   1   8
BRANCH   2  20
HETATM   20  O   UNL     1     -32.063  40.769 -53.766  1.00  0.00    -0.340 OA
BRANCH  20  21
HETATM   21  C   UNL     1     -31.621  39.554 -54.404  1.00  0.00     0.293 C 
BRANCH  21  22
HETATM   22  C   UNL     1     -31.672  39.712 -55.915  1.00  0.00     0.408 C 
HETATM   23  F   UNL     1     -30.454  40.024 -56.415  1.00  0.00    -0.169 F 
HETATM   24  F   UNL     1     -32.073  38.562 -56.503  1.00  0.00    -0.169 F 
HETATM   25  F   UNL     1     -32.534  40.683 -56.286  1.00  0.00    -0.169 F 
ENDBRANCH  21  22
ENDBRANCH  20  21
ENDBRANCH   2  20
TORSDOF 6
ENDMDL
MODEL 6
REMARK VINA RESULT:      -7.1      3.024      3.870
REMARK  6 active torsions:
REMARK  status: ('A' for Active; 'I' for Inactive)
REMARK    1  A    between atoms: C_2  and  C_3 
REMARK    2  A    between atoms: C_7  and  C_8 
REMARK       I    between atoms: C_8  and  N_9 
REMARK    3  A    between atoms: N_9  and  C_10 
REMARK    4  A    between atoms: C_11  and  O_12 
REMARK    5  A    between atoms: O_12  and  C_13 
REMARK    6  A    between atoms: C_13  and  C_14 
ROOT
HETATM    1  C   UNL     1     -41.083  53.529 -52.667  1.00  0.00     0.068 A 
HETATM    2  C   UNL     1     -41.363  53.071 -53.966  1.00  0.00     0.096 A 
HETATM    3  C   UNL     1     -40.804  51.886 -54.451  1.00  0.00     0.046 A 
HETATM    4  C   UNL     1     -39.910  51.162 -53.655  1.00  0.00    -0.059 A 
HETATM    5  C   UNL     1     -39.329  49.868 -54.143  1.00  0.00     0.048 C 
HETATM    6  C   UNL     1     -39.617  51.625 -52.366  1.00  0.00     0.009 A 
HETATM    7  C   UNL     1     -40.199  52.800 -51.874  1.00  0.00     0.033 A 
ENDROOT
BRANCH   1   8
HETATM    8  N   UNL     1     -41.747  54.699 -52.241  1.00  0.00    -0.319 N 
HETATM    9  C   UNL     1     -43.002  54.809 -51.678  1.00  0.00     0.274 C 
HETATM   10  O   UNL     1     -43.700  53.866 -51.324  1.00  0.00    -0.266 OA
HETATM   11  H   UNL     1     -41.164  55.528 -52.259  1.00  0.00     0.169 HD
BRANCH   9  12
HETATM   12  C   UNL     1     -43.416  56.178 -51.490  1.00  0.00     0.120 A 
HETATM   13  N   UNL     1     -44.677  56.585 -51.147  1.00  0.00    -0.273 N 
HETATM   14  N   UNL     1     -44.816  57.915 -51.056  1.00  0.00    -0.179 NA
HETATM   15  H   UNL     1     -45.486  56.005 -50.950  1.00  0.00     0.189 HD
HETATM   16  C   UNL     1     -43.586  58.387 -51.292  1.00  0.00     0.056 A 
HETATM   17  C   UNL     1     -42.671  57.338 -51.538  1.00  0.00     0.065 A 
BRANCH  16  18
HETATM   18  C   UNL     1     -43.324  59.853 -51.281  1.00  0.00     0.056 C 
HETATM   19  C   UNL     1     -42.623  60.321 -52.548  1.00  0.00     0.011 C 
ENDBRANCH  16  18
ENDBRANCH   9  12
ENDBRANCH   1   8
BRANCH   2  20
HETATM   20  O   UNL     1     -42.244  53.809 -54.724  1.00  0.00    -0.340 OA
BRANCH  20  21
HETATM   21  C   UNL     1     -41.559  54.715 -55.611  1.00  0.00     0.293 C 
BRANCH  21  22
HETATM   22  C   UNL     1     -42.088  56.127 -55.422  1.00  0.00     0.408 C 
HETATM   23  F   UNL     1     -41.284  56.844 -54.602  1.00  0.00    -0.169 F 
HETATM   24  F   UNL     1     -42.149  56.778 -56.605  1.00  0.00    -0.169 F 
HETATM   25  F   UNL     1     -43.329  56.127 -54.890  1.00  0.00    -0.169 F 
ENDBRANCH  21  22
ENDBRANCH  20  21
ENDBRANCH   2  20
TORSDOF 6
ENDMDL
MODEL 7
REMARK VINA RESULT:      -6.8      3.586      4.677
REMARK  6 active torsions:
REMARK  status: ('A' for Active; 'I' for Inactive)
REMARK    1  A    between atoms: C_2  and  C_3 
REMARK    2  A    between atoms: C_7  and  C_8 
REMARK       I    between atoms: C_8  and  N_9 
REMARK    3  A    between atoms: N_9  and  C_10 
REMARK    4  A    between atoms: C_11  and  O_12 
REMARK    5  A    between atoms: O_12  and  C_13 
REMARK    6  A    between atoms: C_13  and  C_14 
ROOT
HETATM    1  C   UNL     1     -41.996  54.441 -52.605  1.00  0.00     0.068 A 
HETATM    2  C   UNL     1     -42.235  53.838 -53.852  1.00  0.00     0.096 A 
HETATM    3  C   UNL     1     -41.467  52.756 -54.289  1.00  0.00     0.046 A 
HETATM    4  C   UNL     1     -40.408  52.291 -53.503  1.00  0.00    -0.059 A 
HETATM    5  C   UNL     1     -39.596  51.107 -53.939  1.00  0.00     0.048 C 
HETATM    6  C   UNL     1     -40.158  52.901 -52.267  1.00  0.00     0.009 A 
HETATM    7  C   UNL     1     -40.946  53.969 -51.820  1.00  0.00     0.033 A 
ENDROOT
BRANCH   1   8
HETATM    8  N   UNL     1     -42.866  55.482 -52.218  1.00  0.00    -0.319 N 
HETATM    9  C   UNL     1     -42.640  56.843 -52.266  1.00  0.00     0.274 C 
HETATM   10  O   UNL     1     -41.673  57.378 -52.795  1.00  0.00    -0.266 OA
HETATM   11  H   UNL     1     -43.802  55.168 -51.988  1.00  0.00     0.169 HD
BRANCH   9  12
HETATM   12  C   UNL     1     -43.702  57.611 -51.662  1.00  0.00     0.120 A 
HETATM   13  N   UNL     1     -44.914  57.114 -51.267  1.00  0.00    -0.273 N 
HETATM   14  N   UNL     1     -45.742  58.035 -50.754  1.00  0.00    -0.179 NA
HETATM   15  H   UNL     1     -45.236  56.152 -51.308  1.00  0.00     0.189 HD
HETATM   16  C   UNL     1     -45.020  59.162 -50.765  1.00  0.00     0.056 A 
HETATM   17  C   UNL     1     -43.728  58.941 -51.295  1.00  0.00     0.065 A 
BRANCH  16  18
HETATM   18  C   UNL     1     -45.603  60.438 -50.264  1.00  0.00     0.056 C 
HETATM   19  C   UNL     1     -44.535  61.399 -49.762  1.00  0.00     0.011 C 
ENDBRANCH  16  18
ENDBRANCH   9  12
ENDBRANCH   1   8
BRANCH   2  20
HETATM   20  O   UNL     1     -43.282  54.322 -54.602  1.00  0.00    -0.340 OA
BRANCH  20  21
HETATM   21  C   UNL     1     -42.886  54.591 -55.962  1.00  0.00     0.293 C 
BRANCH  21  22
HETATM   22  C   UNL     1     -42.727  56.089 -56.170  1.00  0.00     0.408 C 
HETATM   23  F   UNL     1     -42.868  56.419 -57.474  1.00  0.00    -0.169 F 
HETATM   24  F   UNL     1     -43.663  56.771 -55.472  1.00  0.00    -0.169 F 
HETATM   25  F   UNL     1     -41.516  56.523 -55.761  1.00  0.00    -0.169 F 
ENDBRANCH  21  22
ENDBRANCH  20  21
ENDBRANCH   2  20
TORSDOF 6
ENDMDL
MODEL 8
REMARK VINA RESULT:      -6.6      3.956      5.685
REMARK  6 active torsions:
REMARK  status: ('A' for Active; 'I' for Inactive)
REMARK    1  A    between atoms: C_2  and  C_3 
REMARK    2  A    between atoms: C_7  and  C_8 
REMARK       I    between atoms: C_8  and  N_9 
REMARK    3  A    between atoms: N_9  and  C_10 
REMARK    4  A    between atoms: C_11  and  O_12 
REMARK    5  A    between atoms: O_12  and  C_13 
REMARK    6  A    between atoms: C_13  and  C_14 
ROOT
HETATM    1  C   UNL     1     -41.343  55.139 -52.909  1.00  0.00     0.068 A 
HETATM    2  C   UNL     1     -41.451  56.045 -51.841  1.00  0.00     0.096 A 
HETATM    3  C   UNL     1     -40.994  55.713 -50.563  1.00  0.00     0.046 A 
HETATM    4  C   UNL     1     -40.464  54.441 -50.323  1.00  0.00    -0.059 A 
HETATM    5  C   UNL     1     -39.933  54.079 -48.967  1.00  0.00     0.048 C 
HETATM    6  C   UNL     1     -40.370  53.531 -51.383  1.00  0.00     0.009 A 
HETATM    7  C   UNL     1     -40.806  53.877 -52.668  1.00  0.00     0.033 A 
ENDROOT
BRANCH   1   8
HETATM    8  N   UNL     1     -41.769  55.588 -54.177  1.00  0.00    -0.319 N 
HETATM    9  C   UNL     1     -42.876  55.185 -54.895  1.00  0.00     0.274 C 
HETATM   10  O   UNL     1     -43.762  54.453 -54.472  1.00  0.00    -0.266 OA
HETATM   11  H   UNL     1     -41.243  56.381 -54.527  1.00  0.00     0.169 HD
BRANCH   9  12
HETATM   12  C   UNL     1     -42.928  55.759 -56.218  1.00  0.00     0.120 A 
HETATM   13  N   UNL     1     -43.442  55.146 -57.329  1.00  0.00    -0.273 N 
HETATM   14  N   UNL     1     -43.353  55.879 -58.448  1.00  0.00    -0.179 NA
HETATM   15  H   UNL     1     -43.879  54.233 -57.389  1.00  0.00     0.189 HD
HETATM   16  C   UNL     1     -42.814  57.033 -58.038  1.00  0.00     0.056 A 
HETATM   17  C   UNL     1     -42.559  57.017 -56.647  1.00  0.00     0.065 A 
BRANCH  16  18
HETATM   18  C   UNL     1     -42.549  58.131 -59.009  1.00  0.00     0.056 C 
HETATM   19  C   UNL     1     -41.795  57.642 -60.238  1.00  0.00     0.011 C 
ENDBRANCH  16  18
ENDBRANCH   9  12
ENDBRANCH   1   8
BRANCH   2  20
HETATM   20  O   UNL     1     -41.980  57.287 -52.110  1.00  0.00    -0.340 OA
BRANCH  20  21
HETATM   21  C   UNL     1     -42.863  57.732 -51.061  1.00  0.00     0.293 C 
BRANCH  21  22
HETATM   22  C   UNL     1     -44.267  57.202 -51.304  1.00  0.00     0.408 C 
HETATM   23  F   UNL     1     -44.487  56.986 -52.621  1.00  0.00    -0.169 F 
HETATM   24  F   UNL     1     -44.453  56.027 -50.661  1.00  0.00    -0.169 F 
HETATM   25  F   UNL     1     -45.208  58.064 -50.863  1.00  0.00    -0.169 F 
ENDBRANCH  21  22
ENDBRANCH  20  21
ENDBRANCH   2  20
TORSDOF 6
ENDMDL
MODEL 9
REMARK VINA RESULT:      -6.6     15.237     16.508
REMARK  6 active torsions:
REMARK  status: ('A' for Active; 'I' for Inactive)
REMARK    1  A    between atoms: C_2  and  C_3 
REMARK    2  A    between atoms: C_7  and  C_8 
REMARK       I    between atoms: C_8  and  N_9 
REMARK    3  A    between atoms: N_9  and  C_10 
REMARK    4  A    between atoms: C_11  and  O_12 
REMARK    5  A    between atoms: O_12  and  C_13 
REMARK    6  A    between atoms: C_13  and  C_14 
ROOT
HETATM    1  C   UNL     1     -35.993  41.023 -55.300  1.00  0.00     0.068 A 
HETATM    2  C   UNL     1     -35.033  41.422 -56.245  1.00  0.00     0.096 A 
HETATM    3  C   UNL     1     -35.406  41.818 -57.531  1.00  0.00     0.046 A 
HETATM    4  C   UNL     1     -36.752  41.771 -57.911  1.00  0.00    -0.059 A 
HETATM    5  C   UNL     1     -37.176  42.227 -59.275  1.00  0.00     0.048 C 
HETATM    6  C   UNL     1     -37.709  41.357 -56.976  1.00  0.00     0.009 A 
HETATM    7  C   UNL     1     -37.333  40.985 -55.679  1.00  0.00     0.033 A 
ENDROOT
BRANCH   1   8
HETATM    8  N   UNL     1     -35.528  40.706 -54.006  1.00  0.00    -0.319 N 
HETATM    9  C   UNL     1     -35.454  41.531 -52.902  1.00  0.00     0.274 C 
HETATM   10  O   UNL     1     -35.922  42.661 -52.835  1.00  0.00    -0.266 OA
HETATM   11  H   UNL     1     -35.339  39.719 -53.870  1.00  0.00     0.169 HD
BRANCH   9  12
HETATM   12  C   UNL     1     -34.800  40.908 -51.778  1.00  0.00     0.120 A 
HETATM   13  N   UNL     1     -35.370  39.992 -50.936  1.00  0.00    -0.273 N 
HETATM   14  N   UNL     1     -34.562  39.578 -49.949  1.00  0.00    -0.179 NA
HETATM   15  H   UNL     1     -36.304  39.598 -50.985  1.00  0.00     0.189 HD
HETATM   16  C   UNL     1     -33.406  40.206 -50.193  1.00  0.00     0.056 A 
HETATM   17  C   UNL     1     -33.495  41.024 -51.342  1.00  0.00     0.065 A 
BRANCH  16  18
HETATM   18  C   UNL     1     -32.232  40.003 -49.298  1.00  0.00     0.056 C 
HETATM   19  C   UNL     1     -32.418  38.814 -48.367  1.00  0.00     0.011 C 
ENDBRANCH  16  18
ENDBRANCH   9  12
ENDBRANCH   1   8
BRANCH   2  20
HETATM   20  O   UNL     1     -33.718  41.454 -55.840  1.00  0.00    -0.340 OA
BRANCH  20  21
HETATM   21  C   UNL     1     -32.950  40.387 -56.432  1.00  0.00     0.293 C 
BRANCH  21  22
HETATM   22  C   UNL     1     -32.015  39.784 -55.396  1.00  0.00     0.408 C 
HETATM   23  F   UNL     1     -30.737  39.771 -55.839  1.00  0.00    -0.169 F 
HETATM   24  F   UNL     1     -32.043  40.502 -54.250  1.00  0.00    -0.169 F 
HETATM   25  F   UNL     1     -32.361  38.515 -55.091  1.00  0.00    -0.169 F 
ENDBRANCH  21  22
ENDBRANCH  20  21
ENDBRANCH   2  20
TORSDOF 6
ENDMDL
MODEL 10
REMARK VINA RESULT:      -6.6     14.958     16.451
REMARK  6 active torsions:
REMARK  status: ('A' for Active; 'I' for Inactive)
REMARK    1  A    between atoms: C_2  and  C_3 
REMARK    2  A    between atoms: C_7  and  C_8 
REMARK       I    between atoms: C_8  and  N_9 
REMARK    3  A    between atoms: N_9  and  C_10 
REMARK    4  A    between atoms: C_11  and  O_12 
REMARK    5  A    between atoms: O_12  and  C_13 
REMARK    6  A    between atoms: C_13  and  C_14 
ROOT
HETATM    1  C   UNL     1     -33.539  40.104 -52.744  1.00  0.00     0.068 A 
HETATM    2  C   UNL     1     -34.384  39.725 -51.687  1.00  0.00     0.096 A 
HETATM    3  C   UNL     1     -33.907  39.635 -50.377  1.00  0.00     0.046 A 
HETATM    4  C   UNL     1     -32.554  39.873 -50.112  1.00  0.00    -0.059 A 
HETATM    5  C   UNL     1     -32.030  39.816 -48.707  1.00  0.00     0.048 C 
HETATM    6  C   UNL     1     -31.706  40.234 -51.167  1.00  0.00     0.009 A 
HETATM    7  C   UNL     1     -32.194  40.349 -52.474  1.00  0.00     0.033 A 
ENDROOT
BRANCH   1   8
HETATM    8  N   UNL     1     -34.126  40.235 -54.020  1.00  0.00    -0.319 N 
HETATM    9  C   UNL     1     -33.518  40.597 -55.204  1.00  0.00     0.274 C 
HETATM   10  O   UNL     1     -32.311  40.733 -55.363  1.00  0.00    -0.266 OA
HETATM   11  H   UNL     1     -35.085  39.909 -54.064  1.00  0.00     0.169 HD
BRANCH   9  12
HETATM   12  C   UNL     1     -34.453  40.761 -56.290  1.00  0.00     0.120 A 
HETATM   13  N   UNL     1     -34.805  39.788 -57.187  1.00  0.00    -0.273 N 
HETATM   14  N   UNL     1     -35.677  40.195 -58.120  1.00  0.00    -0.179 NA
HETATM   15  H   UNL     1     -34.496  38.822 -57.210  1.00  0.00     0.189 HD
HETATM   16  C   UNL     1     -35.945  41.462 -57.784  1.00  0.00     0.056 A 
HETATM   17  C   UNL     1     -35.227  41.852 -56.630  1.00  0.00     0.065 A 
BRANCH  16  18
HETATM   18  C   UNL     1     -36.891  42.277 -58.597  1.00  0.00     0.056 C 
HETATM   19  C   UNL     1     -37.368  41.535 -59.838  1.00  0.00     0.011 C 
ENDBRANCH  16  18
ENDBRANCH   9  12
ENDBRANCH   1   8
BRANCH   2  20
HETATM   20  O   UNL     1     -35.708  39.495 -51.983  1.00  0.00    -0.340 OA
BRANCH  20  21
HETATM   21  C   UNL     1     -36.560  40.543 -51.477  1.00  0.00     0.293 C 
BRANCH  21  22
HETATM   22  C   UNL     1     -37.258  41.246 -52.630  1.00  0.00     0.408 C 
HETATM   23  F   UNL     1     -36.552  42.323 -53.045  1.00  0.00    -0.169 F 
HETATM   24  F   UNL     1     -37.392  40.414 -53.687  1.00  0.00    -0.169 F 
HETATM   25  F   UNL     1     -38.492  41.668 -52.282  1.00  0.00    -0.169 F 
ENDBRANCH  21  22
ENDBRANCH  20  21
ENDBRANCH   2  20
TORSDOF 6
ENDMDL
