MODEL 1
REMARK VINA RESULT:      -8.6      0.000      0.000
REMARK  10 active torsions:
REMARK  status: ('A' for Active; 'I' for Inactive)
REMARK    1  A    between atoms: C_1  and  C_17 
REMARK    2  A    between atoms: C_4  and  C_5 
REMARK    3  A    between atoms: C_5  and  O_18 
REMARK    4  A    between atoms: C_6  and  C_11 
REMARK    5  A    between atoms: C_6  and  C_14 
REMARK    6  A    between atoms: C_6  and  N_15 
REMARK    7  A    between atoms: C_8  and  O_20 
REMARK    8  A    between atoms: C_11  and  O_34 
REMARK    9  A    between atoms: C_13  and  C_14 
REMARK       I    between atoms: N_15  and  C_16 
REMARK   10  A    between atoms: C_16  and  C_17 
ROOT
HETATM    1  C           1     -42.092  55.975 -54.813  0.00  0.00     0.056 C 
HETATM    2  C           1     -42.812  57.132 -54.035  0.00  0.00    -0.030 C 
HETATM    3  C           1     -44.133  56.582 -53.451  0.00  0.00     0.016 C 
HETATM    4  C           1     -42.098  59.075 -52.301  0.00  0.00     0.008 C 
HETATM    5  C           1     -41.840  57.661 -52.929  0.00  0.00     0.012 C 
HETATM    6  C           1     -42.430  60.069 -53.433  0.00  0.00     0.128 C 
HETATM    7  C           1     -43.127  58.273 -55.032  0.00  0.00     0.013 C 
HETATM    8  C           1     -40.271  51.937 -53.179  0.00  0.00     0.017 A 
HETATM    9  C           1     -40.785  59.564 -51.627  0.00  0.00     0.020 C 
HETATM   10  C           1     -43.537  59.583 -54.359  0.00  0.00     0.033 C 
HETATM   11  C           1     -41.525  56.565 -51.888  0.00  0.00     0.054 C 
HETATM   12  C           1     -41.237  55.250 -52.553  0.00  0.00     0.010 A 
HETATM   13  C           1     -41.493  54.995 -53.838  0.00  0.00     0.054 A 
HETATM   14  N           1     -41.181  53.813 -54.143  0.00  0.00    -0.244 NA
HETATM   15  C           1     -40.703  53.218 -53.130  0.00  0.00     0.110 A 
HETATM   16  C           1     -40.307  51.233 -54.332  0.00  0.00     0.130 A 
HETATM   17  N           1     -39.936  50.033 -54.488  0.00  0.00    -0.272 NA
HETATM   18  C           1     -39.481  49.421 -53.480  0.00  0.00     0.116 A 
HETATM   19  C           1     -39.377  49.986 -52.269  0.00  0.00     0.020 A 
HETATM   20  C           1     -39.776  51.258 -52.123  0.00  0.00     0.017 A 
HETATM   21  S           1     -40.680  54.054 -51.916  0.00  0.00    -0.072 SA
ENDROOT
BRANCH   1  22
HETATM   22  C           1     -42.948  55.254 -55.879  0.00  0.00     0.114 C 
BRANCH  22  23
HETATM   23  C           1     -42.926  55.848 -57.281  0.00  0.00     0.218 C 
HETATM   24  N           1     -43.953  55.409 -58.073  0.00  0.00    -0.354 N 
HETATM   25  H           1     -44.580  54.705 -57.685  0.00  0.00     0.162 HD
HETATM   26  O           1     -42.093  56.638 -57.652  0.00  0.00    -0.274 OA
BRANCH  24  27
HETATM   27  C           1     -44.134  55.788 -59.481  0.00  0.00     0.108 C 
BRANCH  27  28
HETATM   28  C           1     -44.748  54.673 -60.336  0.00  0.00     0.189 C 
BRANCH  28  29
HETATM   29  O           1     -45.144  53.599 -59.507  0.00  0.00    -0.399 OA
HETATM   30  H           1     -44.867  52.771 -59.904  0.00  0.00     0.209 HD
ENDBRANCH  28  29
ENDBRANCH  27  28
BRANCH  27  31
HETATM   31  C           1     -44.893  57.119 -59.629  0.00  0.00     0.031 C 
BRANCH  31  32
HETATM   32  C           1     -46.423  57.084 -59.426  0.00  0.00    -0.021 C 
HETATM   33  C           1     -47.184  57.495 -60.699  0.00  0.00     0.009 C 
HETATM   34  C           1     -46.923  57.902 -58.225  0.00  0.00     0.009 C 
ENDBRANCH  31  32
ENDBRANCH  27  31
ENDBRANCH  24  27
ENDBRANCH  22  23
ENDBRANCH   1  22
BRANCH   4  35
HETATM   35  C           1     -43.196  59.086 -51.218  0.00  0.00     0.176 C 
BRANCH  35  36
HETATM   36  O           1     -42.931  60.046 -50.211  0.00  0.00    -0.400 OA
HETATM   37  H           1     -42.954  60.928 -50.585  0.00  0.00     0.209 HD
ENDBRANCH  35  36
ENDBRANCH   4  35
BRANCH   6  38
HETATM   38  O           1     -42.811  61.321 -52.914  0.00  0.00    -0.395 OA
HETATM   39  H           1     -42.039  61.800 -52.611  0.00  0.00     0.210 HD
ENDBRANCH   6  38
TORSDOF 10
ENDMDL
MODEL 2
REMARK VINA RESULT:      -8.4      0.953      1.235
REMARK  10 active torsions:
REMARK  status: ('A' for Active; 'I' for Inactive)
REMARK    1  A    between atoms: C_1  and  C_17 
REMARK    2  A    between atoms: C_4  and  C_5 
REMARK    3  A    between atoms: C_5  and  O_18 
REMARK    4  A    between atoms: C_6  and  C_11 
REMARK    5  A    between atoms: C_6  and  C_14 
REMARK    6  A    between atoms: C_6  and  N_15 
REMARK    7  A    between atoms: C_8  and  O_20 
REMARK    8  A    between atoms: C_11  and  O_34 
REMARK    9  A    between atoms: C_13  and  C_14 
REMARK       I    between atoms: N_15  and  C_16 
REMARK   10  A    between atoms: C_16  and  C_17 
ROOT
HETATM    1  C           1     -42.202  56.358 -54.542  0.00  0.00     0.056 C 
HETATM    2  C           1     -42.935  57.485 -53.733  0.00  0.00    -0.030 C 
HETATM    3  C           1     -44.255  56.908 -53.173  0.00  0.00     0.016 C 
HETATM    4  C           1     -42.245  59.381 -51.938  0.00  0.00     0.008 C 
HETATM    5  C           1     -41.973  57.989 -52.607  0.00  0.00     0.012 C 
HETATM    6  C           1     -42.579  60.406 -53.041  0.00  0.00     0.128 C 
HETATM    7  C           1     -43.254  58.653 -54.698  0.00  0.00     0.013 C 
HETATM    8  C           1     -40.358  52.287 -53.019  0.00  0.00     0.017 A 
HETATM    9  C           1     -40.939  59.860 -51.243  0.00  0.00     0.020 C 
HETATM   10  C           1     -43.678  59.940 -53.987  0.00  0.00     0.033 C 
HETATM   11  C           1     -41.654  56.864 -51.597  0.00  0.00     0.054 C 
HETATM   12  C           1     -41.354  55.572 -52.299  0.00  0.00     0.010 A 
HETATM   13  C           1     -41.601  55.354 -53.593  0.00  0.00     0.054 A 
HETATM   14  N           1     -41.278  54.183 -53.931  0.00  0.00    -0.244 NA
HETATM   15  C           1     -40.800  53.563 -52.934  0.00  0.00     0.110 A 
HETATM   16  C           1     -40.383  51.618 -54.193  0.00  0.00     0.130 A 
HETATM   17  N           1     -40.002  50.425 -54.382  0.00  0.00    -0.272 NA
HETATM   18  C           1     -39.547  49.787 -53.390  0.00  0.00     0.116 A 
HETATM   19  C           1     -39.454  50.316 -52.163  0.00  0.00     0.020 A 
HETATM   20  C           1     -39.864  51.581 -51.981  0.00  0.00     0.017 A 
HETATM   21  S           1     -40.790  54.362 -51.695  0.00  0.00    -0.072 SA
ENDROOT
BRANCH   1  22
HETATM   22  C           1     -43.047  55.662 -55.633  0.00  0.00     0.114 C 
BRANCH  22  23
HETATM   23  C           1     -42.930  56.227 -57.043  0.00  0.00     0.218 C 
HETATM   24  N           1     -43.898  55.767 -57.894  0.00  0.00    -0.354 N 
HETATM   25  H           1     -44.549  55.068 -57.535  0.00  0.00     0.162 HD
HETATM   26  O           1     -42.077  57.014 -57.371  0.00  0.00    -0.274 OA
BRANCH  24  27
HETATM   27  C           1     -43.984  56.115 -59.319  0.00  0.00     0.108 C 
BRANCH  27  28
HETATM   28  C           1     -44.378  54.933 -60.210  0.00  0.00     0.189 C 
BRANCH  28  29
HETATM   29  O           1     -44.693  55.397 -61.508  0.00  0.00    -0.399 OA
HETATM   30  H           1     -43.883  55.622 -61.971  0.00  0.00     0.209 HD
ENDBRANCH  28  29
ENDBRANCH  27  28
BRANCH  27  31
HETATM   31  C           1     -44.873  57.348 -59.561  0.00  0.00     0.031 C 
BRANCH  31  32
HETATM   32  C           1     -44.157  58.692 -59.821  0.00  0.00    -0.021 C 
HETATM   33  C           1     -42.753  58.492 -60.418  0.00  0.00     0.009 C 
HETATM   34  C           1     -44.084  59.618 -58.597  0.00  0.00     0.009 C 
ENDBRANCH  31  32
ENDBRANCH  27  31
ENDBRANCH  24  27
ENDBRANCH  22  23
ENDBRANCH   1  22
BRANCH   4  35
HETATM   35  C           1     -43.349  59.352 -50.861  0.00  0.00     0.176 C 
BRANCH  35  36
HETATM   36  O           1     -43.097  60.283 -49.825  0.00  0.00    -0.400 OA
HETATM   37  H           1     -42.579  61.017 -50.162  0.00  0.00     0.209 HD
ENDBRANCH  35  36
ENDBRANCH   4  35
BRANCH   6  38
HETATM   38  O           1     -42.972  61.639 -52.488  0.00  0.00    -0.395 OA
HETATM   39  H           1     -42.452  61.830 -51.706  0.00  0.00     0.210 HD
ENDBRANCH   6  38
TORSDOF 10
ENDMDL
MODEL 3
REMARK VINA RESULT:      -8.0      1.608      2.112
REMARK  10 active torsions:
REMARK  status: ('A' for Active; 'I' for Inactive)
REMARK    1  A    between atoms: C_1  and  C_17 
REMARK    2  A    between atoms: C_4  and  C_5 
REMARK    3  A    between atoms: C_5  and  O_18 
REMARK    4  A    between atoms: C_6  and  C_11 
REMARK    5  A    between atoms: C_6  and  C_14 
REMARK    6  A    between atoms: C_6  and  N_15 
REMARK    7  A    between atoms: C_8  and  O_20 
REMARK    8  A    between atoms: C_11  and  O_34 
REMARK    9  A    between atoms: C_13  and  C_14 
REMARK       I    between atoms: N_15  and  C_16 
REMARK   10  A    between atoms: C_16  and  C_17 
ROOT
HETATM    1  C           1     -42.730  57.228 -54.180  0.00  0.00     0.056 C 
HETATM    2  C           1     -43.551  58.255 -53.323  0.00  0.00    -0.030 C 
HETATM    3  C           1     -44.825  57.553 -52.804  0.00  0.00     0.016 C 
HETATM    4  C           1     -43.016  60.107 -51.432  0.00  0.00     0.008 C 
HETATM    5  C           1     -42.635  58.775 -52.166  0.00  0.00     0.012 C 
HETATM    6  C           1     -43.422  61.157 -52.487  0.00  0.00     0.128 C 
HETATM    7  C           1     -43.953  59.442 -54.233  0.00  0.00     0.013 C 
HETATM    8  C           1     -40.586  53.239 -52.842  0.00  0.00     0.017 A 
HETATM    9  C           1     -41.754  60.650 -50.704  0.00  0.00     0.020 C 
HETATM   10  C           1     -44.478  60.656 -53.464  0.00  0.00     0.033 C 
HETATM   11  C           1     -42.236  57.629 -51.209  0.00  0.00     0.054 C 
HETATM   12  C           1     -41.834  56.400 -51.971  0.00  0.00     0.010 A 
HETATM   13  C           1     -42.058  56.228 -53.276  0.00  0.00     0.054 A 
HETATM   14  N           1     -41.644  55.103 -53.669  0.00  0.00    -0.244 NA
HETATM   15  C           1     -41.125  54.472 -52.699  0.00  0.00     0.110 A 
HETATM   16  C           1     -40.555  52.629 -54.048  0.00  0.00     0.130 A 
HETATM   17  N           1     -40.082  51.480 -54.292  0.00  0.00    -0.272 NA
HETATM   18  C           1     -39.585  50.830 -53.328  0.00  0.00     0.116 A 
HETATM   19  C           1     -39.539  51.304 -52.076  0.00  0.00     0.020 A 
HETATM   20  C           1     -40.045  52.523 -51.836  0.00  0.00     0.017 A 
HETATM   21  S           1     -41.183  55.208 -51.423  0.00  0.00    -0.072 SA
ENDROOT
BRANCH   1  22
HETATM   22  C           1     -43.513  56.525 -55.311  0.00  0.00     0.114 C 
BRANCH  22  23
HETATM   23  C           1     -43.248  57.019 -56.728  0.00  0.00     0.218 C 
HETATM   24  N           1     -44.377  57.090 -57.499  0.00  0.00    -0.354 N 
HETATM   25  H           1     -45.251  56.761 -57.087  0.00  0.00     0.162 HD
HETATM   26  O           1     -42.152  57.329 -57.125  0.00  0.00    -0.274 OA
BRANCH  24  27
HETATM   27  C           1     -44.391  57.486 -58.913  0.00  0.00     0.108 C 
BRANCH  27  28
HETATM   28  C           1     -43.857  58.902 -59.153  0.00  0.00     0.189 C 
BRANCH  28  29
HETATM   29  O           1     -42.536  58.836 -59.652  0.00  0.00    -0.399 OA
HETATM   30  H           1     -41.995  59.494 -59.209  0.00  0.00     0.209 HD
ENDBRANCH  28  29
ENDBRANCH  27  28
BRANCH  27  31
HETATM   31  C           1     -43.702  56.444 -59.813  0.00  0.00     0.031 C 
BRANCH  31  32
HETATM   32  C           1     -44.602  55.368 -60.459  0.00  0.00    -0.021 C 
HETATM   33  C           1     -46.027  55.886 -60.720  0.00  0.00     0.009 C 
HETATM   34  C           1     -44.655  54.040 -59.687  0.00  0.00     0.009 C 
ENDBRANCH  31  32
ENDBRANCH  27  31
ENDBRANCH  24  27
ENDBRANCH  22  23
ENDBRANCH   1  22
BRANCH   4  35
HETATM   35  C           1     -44.120  59.941 -50.368  0.00  0.00     0.176 C 
BRANCH  35  36
HETATM   36  O           1     -43.903  60.784 -49.251  0.00  0.00    -0.400 OA
HETATM   37  H           1     -44.488  61.542 -49.294  0.00  0.00     0.209 HD
ENDBRANCH  35  36
ENDBRANCH   4  35
BRANCH   6  38
HETATM   38  O           1     -43.912  62.328 -51.878  0.00  0.00    -0.395 OA
HETATM   39  H           1     -44.468  62.102 -51.131  0.00  0.00     0.210 HD
ENDBRANCH   6  38
TORSDOF 10
ENDMDL
MODEL 4
REMARK VINA RESULT:      -8.0      3.377      6.903
REMARK  10 active torsions:
REMARK  status: ('A' for Active; 'I' for Inactive)
REMARK    1  A    between atoms: C_1  and  C_17 
REMARK    2  A    between atoms: C_4  and  C_5 
REMARK    3  A    between atoms: C_5  and  O_18 
REMARK    4  A    between atoms: C_6  and  C_11 
REMARK    5  A    between atoms: C_6  and  C_14 
REMARK    6  A    between atoms: C_6  and  N_15 
REMARK    7  A    between atoms: C_8  and  O_20 
REMARK    8  A    between atoms: C_11  and  O_34 
REMARK    9  A    between atoms: C_13  and  C_14 
REMARK       I    between atoms: N_15  and  C_16 
REMARK   10  A    between atoms: C_16  and  C_17 
ROOT
HETATM    1  C           1     -42.928  57.625 -54.683  0.00  0.00     0.056 C 
HETATM    2  C           1     -41.919  56.745 -53.864  0.00  0.00    -0.030 C 
HETATM    3  C           1     -40.876  57.678 -53.207  0.00  0.00     0.016 C 
HETATM    4  C           1     -42.067  54.646 -52.172  0.00  0.00     0.008 C 
HETATM    5  C           1     -42.728  55.914 -52.815  0.00  0.00     0.012 C 
HETATM    6  C           1     -41.374  53.830 -53.282  0.00  0.00     0.128 C 
HETATM    7  C           1     -41.202  55.782 -54.841  0.00  0.00     0.013 C 
HETATM    8  C           1     -46.030  60.841 -53.159  0.00  0.00     0.017 A 
HETATM    9  C           1     -43.188  53.751 -51.573  0.00  0.00     0.020 C 
HETATM   10  C           1     -40.431  54.659 -54.144  0.00  0.00     0.033 C 
HETATM   11  C           1     -43.434  56.834 -51.794  0.00  0.00     0.054 C 
HETATM   12  C           1     -44.090  58.000 -52.475  0.00  0.00     0.010 A 
HETATM   13  C           1     -43.860  58.345 -53.744  0.00  0.00     0.054 A 
HETATM   14  N           1     -44.517  59.371 -54.067  0.00  0.00    -0.244 NA
HETATM   15  C           1     -45.214  59.764 -53.084  0.00  0.00     0.110 A 
HETATM   16  C           1     -46.158  61.540 -54.308  0.00  0.00     0.130 A 
HETATM   17  N           1     -46.885  62.561 -54.486  0.00  0.00    -0.272 NA
HETATM   18  C           1     -47.565  62.979 -53.505  0.00  0.00     0.116 A 
HETATM   19  C           1     -47.548  62.389 -52.302  0.00  0.00     0.020 A 
HETATM   20  C           1     -46.771  61.308 -52.133  0.00  0.00     0.017 A 
HETATM   21  S           1     -45.034  58.944 -51.872  0.00  0.00    -0.072 SA
ENDROOT
BRANCH   1  22
HETATM   22  C           1     -42.291  58.600 -55.699  0.00  0.00     0.114 C 
BRANCH  22  23
HETATM   23  C           1     -42.860  58.573 -57.112  0.00  0.00     0.218 C 
HETATM   24  N           1     -42.744  57.353 -57.721  0.00  0.00    -0.354 N 
HETATM   25  H           1     -42.251  56.617 -57.214  0.00  0.00     0.162 HD
HETATM   26  O           1     -43.375  59.530 -57.636  0.00  0.00    -0.274 OA
BRANCH  24  27
HETATM   27  C           1     -43.166  57.070 -59.100  0.00  0.00     0.108 C 
BRANCH  27  28
HETATM   28  C           1     -42.125  57.477 -60.149  0.00  0.00     0.189 C 
BRANCH  28  29
HETATM   29  O           1     -41.248  56.396 -60.396  0.00  0.00    -0.399 OA
HETATM   30  H           1     -40.384  56.596 -60.029  0.00  0.00     0.209 HD
ENDBRANCH  28  29
ENDBRANCH  27  28
BRANCH  27  31
HETATM   31  C           1     -43.631  55.613 -59.276  0.00  0.00     0.031 C 
BRANCH  31  32
HETATM   32  C           1     -45.038  55.391 -59.871  0.00  0.00    -0.021 C 
HETATM   33  C           1     -44.978  54.929 -61.338  0.00  0.00     0.009 C 
HETATM   34  C           1     -45.981  56.597 -59.735  0.00  0.00     0.009 C 
ENDBRANCH  31  32
ENDBRANCH  27  31
ENDBRANCH  24  27
ENDBRANCH  22  23
ENDBRANCH   1  22
BRANCH   4  35
HETATM   35  C           1     -41.082  54.967 -51.029  0.00  0.00     0.176 C 
BRANCH  35  36
HETATM   36  O           1     -40.997  53.906 -50.095  0.00  0.00    -0.400 OA
HETATM   37  H           1     -41.721  53.961 -49.469  0.00  0.00     0.209 HD
ENDBRANCH  35  36
ENDBRANCH   4  35
BRANCH   6  38
HETATM   38  O           1     -40.641  52.756 -52.742  0.00  0.00    -0.395 OA
HETATM   39  H           1     -39.968  53.085 -52.143  0.00  0.00     0.210 HD
ENDBRANCH   6  38
TORSDOF 10
ENDMDL
MODEL 5
REMARK VINA RESULT:      -7.8      3.347      6.162
REMARK  10 active torsions:
REMARK  status: ('A' for Active; 'I' for Inactive)
REMARK    1  A    between atoms: C_1  and  C_17 
REMARK    2  A    between atoms: C_4  and  C_5 
REMARK    3  A    between atoms: C_5  and  O_18 
REMARK    4  A    between atoms: C_6  and  C_11 
REMARK    5  A    between atoms: C_6  and  C_14 
REMARK    6  A    between atoms: C_6  and  N_15 
REMARK    7  A    between atoms: C_8  and  O_20 
REMARK    8  A    between atoms: C_11  and  O_34 
REMARK    9  A    between atoms: C_13  and  C_14 
REMARK       I    between atoms: N_15  and  C_16 
REMARK   10  A    between atoms: C_16  and  C_17 
ROOT
HETATM    1  C           1     -43.061  56.405 -56.096  0.00  0.00     0.056 C 
HETATM    2  C           1     -42.576  56.007 -54.658  0.00  0.00    -0.030 C 
HETATM    3  C           1     -41.056  55.738 -54.710  0.00  0.00     0.016 C 
HETATM    4  C           1     -42.995  56.871 -52.134  0.00  0.00     0.008 C 
HETATM    5  C           1     -42.950  57.164 -53.674  0.00  0.00     0.012 C 
HETATM    6  C           1     -43.729  55.534 -51.904  0.00  0.00     0.128 C 
HETATM    7  C           1     -43.312  54.713 -54.233  0.00  0.00     0.013 C 
HETATM    8  C           1     -41.974  60.200 -58.686  0.00  0.00     0.017 A 
HETATM    9  C           1     -43.834  57.982 -51.442  0.00  0.00     0.020 C 
HETATM   10  C           1     -43.178  54.389 -52.744  0.00  0.00     0.033 C 
HETATM   11  C           1     -42.209  58.470 -54.037  0.00  0.00     0.054 C 
HETATM   12  C           1     -42.245  58.721 -55.517  0.00  0.00     0.010 A 
HETATM   13  C           1     -42.616  57.808 -56.417  0.00  0.00     0.054 A 
HETATM   14  N           1     -42.536  58.262 -57.591  0.00  0.00    -0.244 NA
HETATM   15  C           1     -42.135  59.464 -57.562  0.00  0.00     0.110 A 
HETATM   16  C           1     -42.262  59.688 -59.902  0.00  0.00     0.130 A 
HETATM   17  N           1     -42.143  60.284 -61.013  0.00  0.00    -0.272 NA
HETATM   18  C           1     -41.719  61.475 -61.000  0.00  0.00     0.116 A 
HETATM   19  C           1     -41.396  62.122 -59.872  0.00  0.00     0.020 A 
HETATM   20  C           1     -41.528  61.474 -58.705  0.00  0.00     0.017 A 
HETATM   21  S           1     -41.857  59.957 -56.201  0.00  0.00    -0.072 SA
ENDROOT
BRANCH   1  22
HETATM   22  C           1     -42.678  55.423 -57.226  0.00  0.00     0.114 C 
BRANCH  22  23
HETATM   23  C           1     -43.092  55.818 -58.637  0.00  0.00     0.218 C 
HETATM   24  N           1     -44.398  56.219 -58.728  0.00  0.00    -0.354 N 
HETATM   25  H           1     -44.969  56.160 -57.885  0.00  0.00     0.162 HD
HETATM   26  O           1     -42.338  55.794 -59.579  0.00  0.00    -0.274 OA
BRANCH  24  27
HETATM   27  C           1     -45.062  56.603 -59.981  0.00  0.00     0.108 C 
BRANCH  27  28
HETATM   28  C           1     -45.799  55.443 -60.659  0.00  0.00     0.189 C 
BRANCH  28  29
HETATM   29  O           1     -45.102  55.051 -61.824  0.00  0.00    -0.399 OA
HETATM   30  H           1     -45.643  55.233 -62.596  0.00  0.00     0.209 HD
ENDBRANCH  28  29
ENDBRANCH  27  28
BRANCH  27  31
HETATM   31  C           1     -45.963  57.839 -59.802  0.00  0.00     0.031 C 
BRANCH  31  32
HETATM   32  C           1     -45.986  58.498 -58.406  0.00  0.00    -0.021 C 
HETATM   33  C           1     -47.265  58.149 -57.624  0.00  0.00     0.009 C 
HETATM   34  C           1     -45.774  60.020 -58.420  0.00  0.00     0.009 C 
ENDBRANCH  31  32
ENDBRANCH  27  31
ENDBRANCH  24  27
ENDBRANCH  22  23
ENDBRANCH   1  22
BRANCH   4  35
HETATM   35  C           1     -41.609  56.861 -51.459  0.00  0.00     0.176 C 
BRANCH  35  36
HETATM   36  O           1     -41.699  57.121 -50.070  0.00  0.00    -0.400 OA
HETATM   37  H           1     -40.884  57.517 -49.757  0.00  0.00     0.209 HD
ENDBRANCH  35  36
ENDBRANCH   4  35
BRANCH   6  38
HETATM   38  O           1     -43.674  55.149 -50.551  0.00  0.00    -0.395 OA
HETATM   39  H           1     -44.010  54.258 -50.448  0.00  0.00     0.210 HD
ENDBRANCH   6  38
TORSDOF 10
ENDMDL
MODEL 6
REMARK VINA RESULT:      -7.7      2.973      6.531
REMARK  10 active torsions:
REMARK  status: ('A' for Active; 'I' for Inactive)
REMARK    1  A    between atoms: C_1  and  C_17 
REMARK    2  A    between atoms: C_4  and  C_5 
REMARK    3  A    between atoms: C_5  and  O_18 
REMARK    4  A    between atoms: C_6  and  C_11 
REMARK    5  A    between atoms: C_6  and  C_14 
REMARK    6  A    between atoms: C_6  and  N_15 
REMARK    7  A    between atoms: C_8  and  O_20 
REMARK    8  A    between atoms: C_11  and  O_34 
REMARK    9  A    between atoms: C_13  and  C_14 
REMARK       I    between atoms: N_15  and  C_16 
REMARK   10  A    between atoms: C_16  and  C_17 
ROOT
HETATM    1  C           1     -43.616  57.193 -54.594  0.00  0.00     0.056 C 
HETATM    2  C           1     -43.440  57.763 -56.046  0.00  0.00    -0.030 C 
HETATM    3  C           1     -42.074  58.478 -56.130  0.00  0.00     0.016 C 
HETATM    4  C           1     -43.871  56.890 -58.565  0.00  0.00     0.008 C 
HETATM    5  C           1     -43.563  56.577 -57.059  0.00  0.00     0.012 C 
HETATM    6  C           1     -44.991  57.948 -58.634  0.00  0.00     0.128 C 
HETATM    7  C           1     -44.572  58.785 -56.311  0.00  0.00     0.013 C 
HETATM    8  C           1     -41.158  53.828 -52.374  0.00  0.00     0.017 A 
HETATM    9  C           1     -44.414  55.598 -59.238  0.00  0.00     0.020 C 
HETATM   10  C           1     -44.712  59.180 -57.783  0.00  0.00     0.033 C 
HETATM   11  C           1     -42.431  55.546 -56.855  0.00  0.00     0.054 C 
HETATM   12  C           1     -42.219  55.251 -55.399  0.00  0.00     0.010 A 
HETATM   13  C           1     -42.739  55.982 -54.410  0.00  0.00     0.054 A 
HETATM   14  N           1     -42.394  55.538 -53.281  0.00  0.00    -0.244 NA
HETATM   15  C           1     -41.659  54.515 -53.426  0.00  0.00     0.110 A 
HETATM   16  C           1     -41.444  54.192 -51.104  0.00  0.00     0.130 A 
HETATM   17  N           1     -41.025  53.627 -50.051  0.00  0.00    -0.272 NA
HETATM   18  C           1     -40.271  52.621 -50.183  0.00  0.00     0.116 A 
HETATM   19  C           1     -39.902  52.137 -51.377  0.00  0.00     0.020 A 
HETATM   20  C           1     -40.354  52.750 -52.481  0.00  0.00     0.017 A 
HETATM   21  S           1     -41.405  54.171 -54.837  0.00  0.00    -0.072 SA
ENDROOT
BRANCH   1  22
HETATM   22  C           1     -43.416  58.210 -53.448  0.00  0.00     0.114 C 
BRANCH  22  23
HETATM   23  C           1     -44.570  58.361 -52.466  0.00  0.00     0.218 C 
HETATM   24  N           1     -45.106  59.620 -52.447  0.00  0.00    -0.354 N 
HETATM   25  H           1     -44.661  60.331 -53.028  0.00  0.00     0.162 HD
HETATM   26  O           1     -44.980  57.455 -51.784  0.00  0.00    -0.274 OA
BRANCH  24  27
HETATM   27  C           1     -46.194  60.045 -51.556  0.00  0.00     0.108 C 
BRANCH  27  28
HETATM   28  C           1     -45.729  60.334 -50.124  0.00  0.00     0.189 C 
BRANCH  28  29
HETATM   29  O           1     -45.900  59.180 -49.325  0.00  0.00    -0.399 OA
HETATM   30  H           1     -45.312  59.228 -48.567  0.00  0.00     0.209 HD
ENDBRANCH  28  29
ENDBRANCH  27  28
BRANCH  27  31
HETATM   31  C           1     -47.007  61.210 -52.149  0.00  0.00     0.031 C 
BRANCH  31  32
HETATM   32  C           1     -46.792  62.607 -51.527  0.00  0.00    -0.021 C 
HETATM   33  C           1     -48.109  63.393 -51.402  0.00  0.00     0.009 C 
HETATM   34  C           1     -45.732  63.462 -52.240  0.00  0.00     0.009 C 
ENDBRANCH  31  32
ENDBRANCH  27  31
ENDBRANCH  24  27
ENDBRANCH  22  23
ENDBRANCH   1  22
BRANCH   4  35
HETATM   35  C           1     -42.637  57.340 -59.374  0.00  0.00     0.176 C 
BRANCH  35  36
HETATM   36  O           1     -42.653  56.818 -60.690  0.00  0.00    -0.400 OA
HETATM   37  H           1     -41.802  56.956 -61.108  0.00  0.00     0.209 HD
ENDBRANCH  35  36
ENDBRANCH   4  35
BRANCH   6  38
HETATM   38  O           1     -45.208  58.372 -59.959  0.00  0.00    -0.395 OA
HETATM   39  H           1     -44.379  58.637 -60.360  0.00  0.00     0.210 HD
ENDBRANCH   6  38
TORSDOF 10
ENDMDL
MODEL 7
REMARK VINA RESULT:      -7.5      2.357      6.875
REMARK  10 active torsions:
REMARK  status: ('A' for Active; 'I' for Inactive)
REMARK    1  A    between atoms: C_1  and  C_17 
REMARK    2  A    between atoms: C_4  and  C_5 
REMARK    3  A    between atoms: C_5  and  O_18 
REMARK    4  A    between atoms: C_6  and  C_11 
REMARK    5  A    between atoms: C_6  and  C_14 
REMARK    6  A    between atoms: C_6  and  N_15 
REMARK    7  A    between atoms: C_8  and  O_20 
REMARK    8  A    between atoms: C_11  and  O_34 
REMARK    9  A    between atoms: C_13  and  C_14 
REMARK       I    between atoms: N_15  and  C_16 
REMARK   10  A    between atoms: C_16  and  C_17 
ROOT
HETATM    1  C           1     -42.584  56.941 -54.273  0.00  0.00     0.056 C 
HETATM    2  C           1     -42.276  58.218 -53.416  0.00  0.00    -0.030 C 
HETATM    3  C           1     -41.157  59.021 -54.117  0.00  0.00     0.016 C 
HETATM    4  C           1     -43.705  60.102 -52.112  0.00  0.00     0.008 C 
HETATM    5  C           1     -43.599  59.038 -53.259  0.00  0.00     0.012 C 
HETATM    6  C           1     -43.139  59.490 -50.813  0.00  0.00     0.128 C 
HETATM    7  C           1     -41.784  57.764 -52.020  0.00  0.00     0.013 C 
HETATM    8  C           1     -44.390  56.611 -58.624  0.00  0.00     0.017 A 
HETATM    9  C           1     -45.208  60.409 -51.860  0.00  0.00     0.020 C 
HETATM   10  C           1     -41.750  58.889 -50.983  0.00  0.00     0.033 C 
HETATM   11  C           1     -44.110  59.544 -54.627  0.00  0.00     0.054 C 
HETATM   12  C           1     -44.030  58.467 -55.669  0.00  0.00     0.010 A 
HETATM   13  C           1     -43.354  57.327 -55.510  0.00  0.00     0.054 A 
HETATM   14  N           1     -43.426  56.602 -56.539  0.00  0.00    -0.244 NA
HETATM   15  C           1     -44.135  57.175 -57.421  0.00  0.00     0.110 A 
HETATM   16  C           1     -43.915  55.384 -58.932  0.00  0.00     0.130 A 
HETATM   17  N           1     -44.088  54.768 -60.025  0.00  0.00    -0.272 NA
HETATM   18  C           1     -44.771  55.340 -60.922  0.00  0.00     0.116 A 
HETATM   19  C           1     -45.313  56.555 -60.763  0.00  0.00     0.020 A 
HETATM   20  C           1     -45.118  57.193 -59.599  0.00  0.00     0.017 A 
HETATM   21  S           1     -44.630  58.500 -57.005  0.00  0.00    -0.072 SA
ENDROOT
BRANCH   1  22
HETATM   22  C           1     -41.363  56.061 -54.624  0.00  0.00     0.114 C 
BRANCH  22  23
HETATM   23  C           1     -41.456  54.589 -54.240  0.00  0.00     0.218 C 
HETATM   24  N           1     -40.598  54.236 -53.233  0.00  0.00    -0.354 N 
HETATM   25  H           1     -39.958  54.951 -52.886  0.00  0.00     0.162 HD
HETATM   26  O           1     -42.220  53.816 -54.764  0.00  0.00    -0.274 OA
BRANCH  24  27
HETATM   27  C           1     -40.451  52.871 -52.710  0.00  0.00     0.108 C 
BRANCH  27  28
HETATM   28  C           1     -39.653  51.948 -53.637  0.00  0.00     0.189 C 
BRANCH  28  29
HETATM   29  O           1     -40.539  51.188 -54.433  0.00  0.00    -0.399 OA
HETATM   30  H           1     -40.444  50.257 -54.216  0.00  0.00     0.209 HD
ENDBRANCH  28  29
ENDBRANCH  27  28
BRANCH  27  31
HETATM   31  C           1     -39.909  52.859 -51.269  0.00  0.00     0.031 C 
BRANCH  31  32
HETATM   32  C           1     -40.763  53.561 -50.190  0.00  0.00    -0.021 C 
HETATM   33  C           1     -42.213  53.783 -50.655  0.00  0.00     0.009 C 
HETATM   34  C           1     -40.167  54.879 -49.670  0.00  0.00     0.009 C 
ENDBRANCH  31  32
ENDBRANCH  27  31
ENDBRANCH  24  27
ENDBRANCH  22  23
ENDBRANCH   1  22
BRANCH   4  35
HETATM   35  C           1     -43.015  61.442 -52.436  0.00  0.00     0.176 C 
BRANCH  35  36
HETATM   36  O           1     -43.621  62.524 -51.753  0.00  0.00    -0.400 OA
HETATM   37  H           1     -43.073  62.794 -51.014  0.00  0.00     0.209 HD
ENDBRANCH  35  36
ENDBRANCH   4  35
BRANCH   6  38
HETATM   38  O           1     -43.078  60.450 -49.784  0.00  0.00    -0.395 OA
HETATM   39  H           1     -43.925  60.887 -49.692  0.00  0.00     0.210 HD
ENDBRANCH   6  38
TORSDOF 10
ENDMDL
MODEL 8
REMARK VINA RESULT:      -7.5      2.993      6.883
REMARK  10 active torsions:
REMARK  status: ('A' for Active; 'I' for Inactive)
REMARK    1  A    between atoms: C_1  and  C_17 
REMARK    2  A    between atoms: C_4  and  C_5 
REMARK    3  A    between atoms: C_5  and  O_18 
REMARK    4  A    between atoms: C_6  and  C_11 
REMARK    5  A    between atoms: C_6  and  C_14 
REMARK    6  A    between atoms: C_6  and  N_15 
REMARK    7  A    between atoms: C_8  and  O_20 
REMARK    8  A    between atoms: C_11  and  O_34 
REMARK    9  A    between atoms: C_13  and  C_14 
REMARK       I    between atoms: N_15  and  C_16 
REMARK   10  A    between atoms: C_16  and  C_17 
ROOT
HETATM    1  C           1     -43.314  58.741 -53.413  0.00  0.00     0.056 C 
HETATM    2  C           1     -43.577  60.145 -52.761  0.00  0.00    -0.030 C 
HETATM    3  C           1     -42.637  61.177 -53.424  0.00  0.00     0.016 C 
HETATM    4  C           1     -45.732  61.602 -52.038  0.00  0.00     0.008 C 
HETATM    5  C           1     -45.089  60.499 -52.948  0.00  0.00     0.012 C 
HETATM    6  C           1     -45.273  61.375 -50.582  0.00  0.00     0.128 C 
HETATM    7  C           1     -43.253  60.052 -51.250  0.00  0.00     0.013 C 
HETATM    8  C           1     -44.052  57.306 -57.850  0.00  0.00     0.017 A 
HETATM    9  C           1     -47.277  61.430 -52.066  0.00  0.00     0.020 C 
HETATM   10  C           1     -43.762  61.245 -50.438  0.00  0.00     0.033 C 
HETATM   11  C           1     -45.451  60.638 -54.444  0.00  0.00     0.054 C 
HETATM   12  C           1     -44.849  59.526 -55.254  0.00  0.00     0.010 A 
HETATM   13  C           1     -43.907  58.699 -54.797  0.00  0.00     0.054 A 
HETATM   14  N           1     -43.556  57.870 -55.679  0.00  0.00    -0.244 NA
HETATM   15  C           1     -44.218  58.066 -56.743  0.00  0.00     0.110 A 
HETATM   16  C           1     -43.180  56.274 -57.862  0.00  0.00     0.130 A 
HETATM   17  N           1     -42.943  55.506 -58.840  0.00  0.00    -0.272 NA
HETATM   18  C           1     -43.578  55.707 -59.915  0.00  0.00     0.116 A 
HETATM   19  C           1     -44.480  56.688 -60.056  0.00  0.00     0.020 A 
HETATM   20  C           1     -44.717  57.493 -59.009  0.00  0.00     0.017 A 
HETATM   21  S           1     -45.159  59.197 -56.647  0.00  0.00    -0.072 SA
ENDROOT
BRANCH   1  22
HETATM   22  C           1     -41.841  58.273 -53.419  0.00  0.00     0.114 C 
BRANCH  22  23
HETATM   23  C           1     -41.473  57.181 -52.423  0.00  0.00     0.218 C 
HETATM   24  N           1     -41.829  55.926 -52.838  0.00  0.00    -0.354 N 
HETATM   25  H           1     -42.343  55.847 -53.716  0.00  0.00     0.162 HD
HETATM   26  O           1     -40.910  57.400 -51.379  0.00  0.00    -0.274 OA
BRANCH  24  27
HETATM   27  C           1     -41.635  54.704 -52.046  0.00  0.00     0.108 C 
BRANCH  27  28
HETATM   28  C           1     -42.937  53.946 -51.768  0.00  0.00     0.189 C 
BRANCH  28  29
HETATM   29  O           1     -43.957  54.418 -52.627  0.00  0.00    -0.399 OA
HETATM   30  H           1     -43.574  55.005 -53.283  0.00  0.00     0.209 HD
ENDBRANCH  28  29
ENDBRANCH  27  28
BRANCH  27  31
HETATM   31  C           1     -40.548  53.793 -52.644  0.00  0.00     0.031 C 
BRANCH  31  32
HETATM   32  C           1     -40.809  53.218 -54.053  0.00  0.00    -0.021 C 
HETATM   33  C           1     -40.406  51.736 -54.156  0.00  0.00     0.009 C 
HETATM   34  C           1     -40.164  54.021 -55.195  0.00  0.00     0.009 C 
ENDBRANCH  31  32
ENDBRANCH  27  31
ENDBRANCH  24  27
ENDBRANCH  22  23
ENDBRANCH   1  22
BRANCH   4  35
HETATM   35  C           1     -45.426  63.044 -52.492  0.00  0.00     0.176 C 
BRANCH  35  36
HETATM   36  O           1     -46.447  63.945 -52.101  0.00  0.00    -0.400 OA
HETATM   37  H           1     -46.613  64.576 -52.804  0.00  0.00     0.209 HD
ENDBRANCH  35  36
ENDBRANCH   4  35
BRANCH   6  38
HETATM   38  O           1     -45.704  62.420 -49.744  0.00  0.00    -0.395 OA
HETATM   39  H           1     -45.719  63.246 -50.229  0.00  0.00     0.210 HD
ENDBRANCH   6  38
TORSDOF 10
ENDMDL
MODEL 9
REMARK VINA RESULT:      -7.4      3.783      8.889
REMARK  10 active torsions:
REMARK  status: ('A' for Active; 'I' for Inactive)
REMARK    1  A    between atoms: C_1  and  C_17 
REMARK    2  A    between atoms: C_4  and  C_5 
REMARK    3  A    between atoms: C_5  and  O_18 
REMARK    4  A    between atoms: C_6  and  C_11 
REMARK    5  A    between atoms: C_6  and  C_14 
REMARK    6  A    between atoms: C_6  and  N_15 
REMARK    7  A    between atoms: C_8  and  O_20 
REMARK    8  A    between atoms: C_11  and  O_34 
REMARK    9  A    between atoms: C_13  and  C_14 
REMARK       I    between atoms: N_15  and  C_16 
REMARK   10  A    between atoms: C_16  and  C_17 
ROOT
HETATM    1  C           1     -43.114  57.970 -52.521  0.00  0.00     0.056 C 
HETATM    2  C           1     -43.397  57.409 -53.960  0.00  0.00    -0.030 C 
HETATM    3  C           1     -44.711  56.597 -53.919  0.00  0.00     0.016 C 
HETATM    4  C           1     -43.293  58.347 -56.490  0.00  0.00     0.008 C 
HETATM    5  C           1     -43.464  58.615 -54.954  0.00  0.00     0.012 C 
HETATM    6  C           1     -42.113  57.375 -56.696  0.00  0.00     0.128 C 
HETATM    7  C           1     -42.229  56.476 -54.361  0.00  0.00     0.013 C 
HETATM    8  C           1     -45.564  61.113 -49.989  0.00  0.00     0.017 A 
HETATM    9  C           1     -42.915  59.685 -57.186  0.00  0.00     0.020 C 
HETATM   10  C           1     -42.213  56.114 -55.848  0.00  0.00     0.033 C 
HETATM   11  C           1     -44.641  59.557 -54.614  0.00  0.00     0.054 C 
HETATM   12  C           1     -44.721  59.815 -53.137  0.00  0.00     0.010 A 
HETATM   13  C           1     -44.051  59.110 -52.222  0.00  0.00     0.054 A 
HETATM   14  N           1     -44.308  59.511 -51.055  0.00  0.00    -0.244 NA
HETATM   15  C           1     -45.126  60.479 -51.102  0.00  0.00     0.110 A 
HETATM   16  C           1     -45.123  60.752 -48.764  0.00  0.00     0.130 A 
HETATM   17  N           1     -45.469  61.271 -47.661  0.00  0.00    -0.272 NA
HETATM   18  C           1     -46.304  62.220 -47.693  0.00  0.00     0.116 A 
HETATM   19  C           1     -46.828  62.693 -48.832  0.00  0.00     0.020 A 
HETATM   20  C           1     -46.449  62.131 -49.990  0.00  0.00     0.017 A 
HETATM   21  S           1     -45.548  60.824 -52.472  0.00  0.00    -0.072 SA
ENDROOT
BRANCH   1  22
HETATM   22  C           1     -43.121  56.924 -51.384  0.00  0.00     0.114 C 
BRANCH  22  23
HETATM   23  C           1     -41.769  56.576 -50.774  0.00  0.00     0.218 C 
HETATM   24  N           1     -41.620  55.242 -50.509  0.00  0.00    -0.354 N 
HETATM   25  H           1     -42.421  54.634 -50.683  0.00  0.00     0.162 HD
HETATM   26  O           1     -40.911  57.396 -50.559  0.00  0.00    -0.274 OA
BRANCH  24  27
HETATM   27  C           1     -40.434  54.650 -49.875  0.00  0.00     0.108 C 
BRANCH  27  28
HETATM   28  C           1     -40.756  53.863 -48.600  0.00  0.00     0.189 C 
BRANCH  28  29
HETATM   29  O           1     -40.821  54.746 -47.498  0.00  0.00    -0.399 OA
HETATM   30  H           1     -40.852  54.239 -46.684  0.00  0.00     0.209 HD
ENDBRANCH  28  29
ENDBRANCH  27  28
BRANCH  27  31
HETATM   31  C           1     -39.596  53.826 -50.870  0.00  0.00     0.031 C 
BRANCH  31  32
HETATM   32  C           1     -40.337  52.748 -51.690  0.00  0.00    -0.021 C 
HETATM   33  C           1     -39.603  51.395 -51.660  0.00  0.00     0.009 C 
HETATM   34  C           1     -40.640  53.152 -53.142  0.00  0.00     0.009 C 
ENDBRANCH  31  32
ENDBRANCH  27  31
ENDBRANCH  24  27
ENDBRANCH  22  23
ENDBRANCH   1  22
BRANCH   4  35
HETATM   35  C           1     -44.568  57.820 -57.178  0.00  0.00     0.176 C 
BRANCH  35  36
HETATM   36  O           1     -44.994  58.676 -58.223  0.00  0.00    -0.400 OA
HETATM   37  H           1     -44.992  59.586 -57.921  0.00  0.00     0.209 HD
ENDBRANCH  35  36
ENDBRANCH   4  35
BRANCH   6  38
HETATM   38  O           1     -42.004  56.987 -58.045  0.00  0.00    -0.395 OA
HETATM   39  H           1     -41.083  56.965 -58.307  0.00  0.00     0.210 HD
ENDBRANCH   6  38
TORSDOF 10
ENDMDL
MODEL 10
REMARK VINA RESULT:      -7.3      2.705      7.111
REMARK  10 active torsions:
REMARK  status: ('A' for Active; 'I' for Inactive)
REMARK    1  A    between atoms: C_1  and  C_17 
REMARK    2  A    between atoms: C_4  and  C_5 
REMARK    3  A    between atoms: C_5  and  O_18 
REMARK    4  A    between atoms: C_6  and  C_11 
REMARK    5  A    between atoms: C_6  and  C_14 
REMARK    6  A    between atoms: C_6  and  N_15 
REMARK    7  A    between atoms: C_8  and  O_20 
REMARK    8  A    between atoms: C_11  and  O_34 
REMARK    9  A    between atoms: C_13  and  C_14 
REMARK       I    between atoms: N_15  and  C_16 
REMARK   10  A    between atoms: C_16  and  C_17 
ROOT
HETATM    1  C           1     -43.447  58.577 -55.560  0.00  0.00     0.056 C 
HETATM    2  C           1     -43.501  58.821 -57.109  0.00  0.00    -0.030 C 
HETATM    3  C           1     -42.059  59.028 -57.623  0.00  0.00     0.016 C 
HETATM    4  C           1     -44.795  57.750 -59.223  0.00  0.00     0.008 C 
HETATM    5  C           1     -44.209  57.597 -57.777  0.00  0.00     0.012 C 
HETATM    6  C           1     -45.552  59.091 -59.312  0.00  0.00     0.128 C 
HETATM    7  C           1     -44.330  60.102 -57.374  0.00  0.00     0.013 C 
HETATM    8  C           1     -41.542  54.989 -53.153  0.00  0.00     0.017 A 
HETATM    9  C           1     -45.834  56.618 -59.460  0.00  0.00     0.020 C 
HETATM   10  C           1     -44.730  60.283 -58.840  0.00  0.00     0.033 C 
HETATM   11  C           1     -43.398  56.298 -57.569  0.00  0.00     0.054 C 
HETATM   12  C           1     -42.908  56.184 -56.154  0.00  0.00     0.010 A 
HETATM   13  C           1     -42.928  57.191 -55.277  0.00  0.00     0.054 A 
HETATM   14  N           1     -42.441  56.843 -54.168  0.00  0.00    -0.244 NA
HETATM   15  C           1     -42.085  55.627 -54.215  0.00  0.00     0.110 A 
HETATM   16  C           1     -41.376  55.622 -51.971  0.00  0.00     0.130 A 
HETATM   17  N           1     -40.875  55.125 -50.920  0.00  0.00    -0.272 NA
HETATM   18  C           1     -40.492  53.920 -50.962  0.00  0.00     0.116 A 
HETATM   19  C           1     -40.596  53.160 -52.060  0.00  0.00     0.020 A 
HETATM   20  C           1     -41.129  53.705 -53.165  0.00  0.00     0.017 A 
HETATM   21  S           1     -42.313  55.000 -55.530  0.00  0.00    -0.072 SA
ENDROOT
BRANCH   1  22
HETATM   22  C           1     -42.680  59.640 -54.742  0.00  0.00     0.114 C 
BRANCH  22  23
HETATM   23  C           1     -43.483  60.394 -53.689  0.00  0.00     0.218 C 
HETATM   24  N           1     -43.883  59.606 -52.644  0.00  0.00    -0.354 N 
HETATM   25  H           1     -43.665  58.610 -52.694  0.00  0.00     0.162 HD
HETATM   26  O           1     -43.729  61.572 -53.764  0.00  0.00    -0.274 OA
BRANCH  24  27
HETATM   27  C           1     -44.710  60.071 -51.523  0.00  0.00     0.108 C 
BRANCH  27  28
HETATM   28  C           1     -45.708  59.020 -51.027  0.00  0.00     0.189 C 
BRANCH  28  29
HETATM   29  O           1     -45.048  58.093 -50.188  0.00  0.00    -0.399 OA
HETATM   30  H           1     -44.870  57.289 -50.680  0.00  0.00     0.209 HD
ENDBRANCH  28  29
ENDBRANCH  27  28
BRANCH  27  31
HETATM   31  C           1     -43.860  60.653 -50.378  0.00  0.00     0.031 C 
BRANCH  31  32
HETATM   32  C           1     -44.500  61.767 -49.522  0.00  0.00    -0.021 C 
HETATM   33  C           1     -43.717  63.088 -49.615  0.00  0.00     0.009 C 
HETATM   34  C           1     -44.722  61.386 -48.050  0.00  0.00     0.009 C 
ENDBRANCH  31  32
ENDBRANCH  27  31
ENDBRANCH  24  27
ENDBRANCH  22  23
ENDBRANCH   1  22
BRANCH   4  35
HETATM   35  C           1     -43.739  57.639 -60.341  0.00  0.00     0.176 C 
BRANCH  35  36
HETATM   36  O           1     -43.834  56.407 -61.033  0.00  0.00    -0.400 OA
HETATM   37  H           1     -43.700  55.678 -60.424  0.00  0.00     0.209 HD
ENDBRANCH  35  36
ENDBRANCH   4  35
BRANCH   6  38
HETATM   38  O           1     -45.978  59.349 -60.630  0.00  0.00    -0.395 OA
HETATM   39  H           1     -46.307  60.246 -60.700  0.00  0.00     0.210 HD
ENDBRANCH   6  38
TORSDOF 10
ENDMDL
