MODEL 1
REMARK VINA RESULT:      -8.0      0.000      0.000
REMARK  7 active torsions:
REMARK  status: ('A' for Active; 'I' for Inactive)
REMARK    1  A    between atoms: O_2  and  C_3 
REMARK    2  A    between atoms: C_6  and  C_7 
REMARK    3  A    between atoms: C_7  and  C_8 
REMARK       I    between atoms: C_8  and  N_9 
REMARK    4  A    between atoms: N_9  and  C_10 
REMARK    5  A    between atoms: C_10  and  C_11 
REMARK    6  A    between atoms: C_14  and  N_15 
REMARK       I    between atoms: N_15  and  C_16 
REMARK    7  A    between atoms: C_16  and  C_17 
ROOT
HETATM    1  C   UNL     1     -42.461  56.452 -52.443  1.00  0.00    -0.040 A 
HETATM    2  C   UNL     1     -41.535  55.830 -53.290  1.00  0.00     0.011 A 
HETATM    3  C   UNL     1     -41.840  55.590 -54.637  1.00  0.00     0.030 A 
HETATM    4  C   UNL     1     -43.083  55.949 -55.157  1.00  0.00     0.035 A 
HETATM    5  C   UNL     1     -44.016  56.558 -54.313  1.00  0.00     0.030 A 
HETATM    6  C   UNL     1     -43.709  56.809 -52.972  1.00  0.00     0.011 A 
ENDROOT
BRANCH   1   7
HETATM    7  C   UNL     1     -42.177  56.683 -50.980  1.00  0.00     0.161 C 
BRANCH   7   8
HETATM    8  N   UNL     1     -41.162  55.796 -50.454  1.00  0.00    -0.357 N 
HETATM    9  C   UNL     1     -41.496  54.564 -49.935  1.00  0.00     0.222 C 
HETATM   10  O   UNL     1     -42.657  54.207 -49.751  1.00  0.00    -0.273 OA
HETATM   11  H   UNL     1     -40.204  55.958 -50.731  1.00  0.00     0.162 HD
BRANCH   9  12
HETATM   12  C   UNL     1     -40.311  53.658 -49.638  1.00  0.00     0.141 C 
BRANCH  12  13
HETATM   13  C   UNL     1     -40.136  52.485 -50.581  1.00  0.00    -0.049 A 
HETATM   14  C   UNL     1     -40.122  51.150 -50.154  1.00  0.00     0.010 A 
HETATM   15  C   UNL     1     -39.922  50.102 -51.062  1.00  0.00     0.037 A 
HETATM   16  C   UNL     1     -39.721  50.370 -52.414  1.00  0.00     0.068 A 
HETATM   17  C   UNL     1     -39.728  51.696 -52.848  1.00  0.00     0.037 A 
HETATM   18  C   UNL     1     -39.931  52.743 -51.944  1.00  0.00     0.010 A 
BRANCH  16  19
HETATM   19  O   UNL     1     -39.507  49.443 -53.396  1.00  0.00    -0.356 OA
HETATM   20  C   UNL     1     -39.988  49.763 -54.695  1.00  0.00     0.210 C 
ENDBRANCH  16  19
ENDBRANCH  12  13
ENDBRANCH   9  12
ENDBRANCH   7   8
ENDBRANCH   1   7
BRANCH   4  21
HETATM   21  N   UNL     1     -43.476  55.728 -56.490  1.00  0.00    -0.321 N 
HETATM   22  C   UNL     1     -43.139  56.453 -57.620  1.00  0.00     0.279 C 
HETATM   23  O   UNL     1     -42.429  57.453 -57.641  1.00  0.00    -0.265 OA
HETATM   24  H   UNL     1     -44.089  54.940 -56.665  1.00  0.00     0.169 HD
BRANCH  22  25
HETATM   25  C   UNL     1     -43.731  55.901 -58.827  1.00  0.00     0.142 A 
HETATM   26  O   UNL     1     -44.197  54.609 -58.822  1.00  0.00    -0.317 OA
HETATM   27  C   UNL     1     -44.687  54.355 -60.063  1.00  0.00     0.143 A 
HETATM   28  C   UNL     1     -44.552  55.459 -60.871  1.00  0.00     0.027 A 
HETATM   29  C   UNL     1     -43.936  56.456 -60.077  1.00  0.00     0.045 A 
ENDBRANCH  22  25
ENDBRANCH   4  21
TORSDOF 7
ENDMDL
MODEL 2
REMARK VINA RESULT:      -7.4      3.750      7.134
REMARK  7 active torsions:
REMARK  status: ('A' for Active; 'I' for Inactive)
REMARK    1  A    between atoms: O_2  and  C_3 
REMARK    2  A    between atoms: C_6  and  C_7 
REMARK    3  A    between atoms: C_7  and  C_8 
REMARK       I    between atoms: C_8  and  N_9 
REMARK    4  A    between atoms: N_9  and  C_10 
REMARK    5  A    between atoms: C_10  and  C_11 
REMARK    6  A    between atoms: C_14  and  N_15 
REMARK       I    between atoms: N_15  and  C_16 
REMARK    7  A    between atoms: C_16  and  C_17 
ROOT
HETATM    1  C   UNL     1     -43.228  57.911 -54.524  1.00  0.00    -0.040 A 
HETATM    2  C   UNL     1     -44.434  58.621 -54.483  1.00  0.00     0.011 A 
HETATM    3  C   UNL     1     -44.819  59.320 -53.330  1.00  0.00     0.030 A 
HETATM    4  C   UNL     1     -44.015  59.304 -52.191  1.00  0.00     0.035 A 
HETATM    5  C   UNL     1     -42.816  58.585 -52.222  1.00  0.00     0.030 A 
HETATM    6  C   UNL     1     -42.426  57.898 -53.375  1.00  0.00     0.011 A 
ENDROOT
BRANCH   1   7
HETATM    7  C   UNL     1     -42.811  57.114 -55.735  1.00  0.00     0.161 C 
BRANCH   7   8
HETATM    8  N   UNL     1     -41.710  56.213 -55.469  1.00  0.00    -0.357 N 
HETATM    9  C   UNL     1     -41.887  54.847 -55.511  1.00  0.00     0.222 C 
HETATM   10  O   UNL     1     -42.989  54.317 -55.626  1.00  0.00    -0.273 OA
HETATM   11  H   UNL     1     -40.771  56.580 -55.540  1.00  0.00     0.162 HD
BRANCH   9  12
HETATM   12  C   UNL     1     -40.600  54.039 -55.440  1.00  0.00     0.141 C 
BRANCH  12  13
HETATM   13  C   UNL     1     -40.386  53.267 -54.154  1.00  0.00    -0.049 A 
HETATM   14  C   UNL     1     -40.597  53.817 -52.882  1.00  0.00     0.010 A 
HETATM   15  C   UNL     1     -40.352  53.071 -51.721  1.00  0.00     0.037 A 
HETATM   16  C   UNL     1     -39.879  51.763 -51.811  1.00  0.00     0.068 A 
HETATM   17  C   UNL     1     -39.661  51.209 -53.073  1.00  0.00     0.037 A 
HETATM   18  C   UNL     1     -39.909  51.951 -54.232  1.00  0.00     0.010 A 
BRANCH  16  19
HETATM   19  O   UNL     1     -39.593  50.937 -50.760  1.00  0.00    -0.356 OA
HETATM   20  C   UNL     1     -39.606  49.540 -51.023  1.00  0.00     0.210 C 
ENDBRANCH  16  19
ENDBRANCH  12  13
ENDBRANCH   9  12
ENDBRANCH   7   8
ENDBRANCH   1   7
BRANCH   4  21
HETATM   21  N   UNL     1     -44.334  59.962 -50.988  1.00  0.00    -0.321 N 
HETATM   22  C   UNL     1     -45.430  59.771 -50.165  1.00  0.00     0.279 C 
HETATM   23  O   UNL     1     -46.345  58.979 -50.366  1.00  0.00    -0.265 OA
HETATM   24  H   UNL     1     -43.689  60.675 -50.668  1.00  0.00     0.169 HD
BRANCH  22  25
HETATM   25  C   UNL     1     -45.400  60.634 -48.996  1.00  0.00     0.142 A 
HETATM   26  O   UNL     1     -46.042  60.237 -47.848  1.00  0.00    -0.317 OA
HETATM   27  C   UNL     1     -45.860  61.220 -46.928  1.00  0.00     0.143 A 
HETATM   28  C   UNL     1     -45.109  62.243 -47.456  1.00  0.00     0.027 A 
HETATM   29  C   UNL     1     -44.812  61.868 -48.789  1.00  0.00     0.045 A 
ENDBRANCH  22  25
ENDBRANCH   4  21
TORSDOF 7
ENDMDL
MODEL 3
REMARK VINA RESULT:      -7.4      4.125      7.882
REMARK  7 active torsions:
REMARK  status: ('A' for Active; 'I' for Inactive)
REMARK    1  A    between atoms: O_2  and  C_3 
REMARK    2  A    between atoms: C_6  and  C_7 
REMARK    3  A    between atoms: C_7  and  C_8 
REMARK       I    between atoms: C_8  and  N_9 
REMARK    4  A    between atoms: N_9  and  C_10 
REMARK    5  A    between atoms: C_10  and  C_11 
REMARK    6  A    between atoms: C_14  and  N_15 
REMARK       I    between atoms: N_15  and  C_16 
REMARK    7  A    between atoms: C_16  and  C_17 
ROOT
HETATM    1  C   UNL     1     -44.682  58.125 -53.826  1.00  0.00    -0.040 A 
HETATM    2  C   UNL     1     -45.227  59.410 -53.705  1.00  0.00     0.011 A 
HETATM    3  C   UNL     1     -45.451  59.979 -52.444  1.00  0.00     0.030 A 
HETATM    4  C   UNL     1     -45.154  59.268 -51.282  1.00  0.00     0.035 A 
HETATM    5  C   UNL     1     -44.622  57.980 -51.398  1.00  0.00     0.030 A 
HETATM    6  C   UNL     1     -44.387  57.415 -52.655  1.00  0.00     0.011 A 
ENDROOT
BRANCH   1   7
HETATM    7  C   UNL     1     -44.472  57.471 -55.169  1.00  0.00     0.161 C 
BRANCH   7   8
HETATM    8  N   UNL     1     -44.202  56.052 -55.072  1.00  0.00    -0.357 N 
HETATM    9  C   UNL     1     -42.949  55.549 -55.349  1.00  0.00     0.222 C 
HETATM   10  O   UNL     1     -42.045  56.228 -55.828  1.00  0.00    -0.273 OA
HETATM   11  H   UNL     1     -44.840  55.486 -54.530  1.00  0.00     0.162 HD
BRANCH   9  12
HETATM   12  C   UNL     1     -42.759  54.085 -54.981  1.00  0.00     0.141 C 
BRANCH  12  13
HETATM   13  C   UNL     1     -42.093  53.832 -53.644  1.00  0.00    -0.049 A 
HETATM   14  C   UNL     1     -40.811  53.281 -53.514  1.00  0.00     0.010 A 
HETATM   15  C   UNL     1     -40.254  53.034 -52.252  1.00  0.00     0.037 A 
HETATM   16  C   UNL     1     -40.973  53.323 -51.095  1.00  0.00     0.068 A 
HETATM   17  C   UNL     1     -42.253  53.867 -51.214  1.00  0.00     0.037 A 
HETATM   18  C   UNL     1     -42.809  54.117 -52.472  1.00  0.00     0.010 A 
BRANCH  16  19
HETATM   19  O   UNL     1     -40.548  53.122 -49.811  1.00  0.00    -0.356 OA
HETATM   20  C   UNL     1     -40.808  54.164 -48.880  1.00  0.00     0.210 C 
ENDBRANCH  16  19
ENDBRANCH  12  13
ENDBRANCH   9  12
ENDBRANCH   7   8
ENDBRANCH   1   7
BRANCH   4  21
HETATM   21  N   UNL     1     -45.364  59.757 -49.979  1.00  0.00    -0.321 N 
HETATM   22  C   UNL     1     -44.819  60.879 -49.380  1.00  0.00     0.279 C 
HETATM   23  O   UNL     1     -44.021  61.650 -49.902  1.00  0.00    -0.265 OA
HETATM   24  H   UNL     1     -45.994  59.229 -49.385  1.00  0.00     0.169 HD
BRANCH  22  25
HETATM   25  C   UNL     1     -45.294  61.065 -48.019  1.00  0.00     0.142 A 
HETATM   26  O   UNL     1     -46.067  60.092 -47.435  1.00  0.00    -0.317 OA
HETATM   27  C   UNL     1     -46.371  60.522 -46.182  1.00  0.00     0.143 A 
HETATM   28  C   UNL     1     -45.806  61.751 -45.942  1.00  0.00     0.027 A 
HETATM   29  C   UNL     1     -45.112  62.104 -47.125  1.00  0.00     0.045 A 
ENDBRANCH  22  25
ENDBRANCH   4  21
TORSDOF 7
ENDMDL
MODEL 4
REMARK VINA RESULT:      -7.3      1.973      2.524
REMARK  7 active torsions:
REMARK  status: ('A' for Active; 'I' for Inactive)
REMARK    1  A    between atoms: O_2  and  C_3 
REMARK    2  A    between atoms: C_6  and  C_7 
REMARK    3  A    between atoms: C_7  and  C_8 
REMARK       I    between atoms: C_8  and  N_9 
REMARK    4  A    between atoms: N_9  and  C_10 
REMARK    5  A    between atoms: C_10  and  C_11 
REMARK    6  A    between atoms: C_14  and  N_15 
REMARK       I    between atoms: N_15  and  C_16 
REMARK    7  A    between atoms: C_16  and  C_17 
ROOT
HETATM    1  C   UNL     1     -43.444  57.550 -52.606  1.00  0.00    -0.040 A 
HETATM    2  C   UNL     1     -42.179  57.271 -53.140  1.00  0.00     0.011 A 
HETATM    3  C   UNL     1     -41.866  57.613 -54.463  1.00  0.00     0.030 A 
HETATM    4  C   UNL     1     -42.816  58.222 -55.282  1.00  0.00     0.035 A 
HETATM    5  C   UNL     1     -44.084  58.490 -54.757  1.00  0.00     0.030 A 
HETATM    6  C   UNL     1     -44.394  58.160 -53.434  1.00  0.00     0.011 A 
ENDROOT
BRANCH   1   7
HETATM    7  C   UNL     1     -43.823  57.153 -51.201  1.00  0.00     0.161 C 
BRANCH   7   8
HETATM    8  N   UNL     1     -42.798  56.378 -50.535  1.00  0.00    -0.357 N 
HETATM    9  C   UNL     1     -42.975  55.034 -50.287  1.00  0.00     0.222 C 
HETATM   10  O   UNL     1     -44.042  54.453 -50.471  1.00  0.00    -0.273 OA
HETATM   11  H   UNL     1     -41.859  56.751 -50.520  1.00  0.00     0.162 HD
BRANCH   9  12
HETATM   12  C   UNL     1     -41.730  54.310 -49.797  1.00  0.00     0.141 C 
BRANCH  12  13
HETATM   13  C   UNL     1     -41.056  53.413 -50.814  1.00  0.00    -0.049 A 
HETATM   14  C   UNL     1     -40.366  52.242 -50.471  1.00  0.00     0.010 A 
HETATM   15  C   UNL     1     -39.729  51.465 -51.447  1.00  0.00     0.037 A 
HETATM   16  C   UNL     1     -39.761  51.849 -52.785  1.00  0.00     0.068 A 
HETATM   17  C   UNL     1     -40.440  53.016 -53.137  1.00  0.00     0.037 A 
HETATM   18  C   UNL     1     -41.079  53.792 -52.164  1.00  0.00     0.010 A 
BRANCH  16  19
HETATM   19  O   UNL     1     -39.175  51.187 -53.828  1.00  0.00    -0.356 OA
HETATM   20  C   UNL     1     -39.753  49.944 -54.202  1.00  0.00     0.210 C 
ENDBRANCH  16  19
ENDBRANCH  12  13
ENDBRANCH   9  12
ENDBRANCH   7   8
ENDBRANCH   1   7
BRANCH   4  21
HETATM   21  N   UNL     1     -42.591  58.581 -56.623  1.00  0.00    -0.321 N 
HETATM   22  C   UNL     1     -42.576  57.769 -57.743  1.00  0.00     0.279 C 
HETATM   23  O   UNL     1     -42.748  56.554 -57.747  1.00  0.00    -0.265 OA
HETATM   24  H   UNL     1     -42.411  59.560 -56.814  1.00  0.00     0.169 HD
BRANCH  22  25
HETATM   25  C   UNL     1     -42.324  58.515 -58.965  1.00  0.00     0.142 A 
HETATM   26  O   UNL     1     -42.417  59.885 -58.950  1.00  0.00    -0.317 OA
HETATM   27  C   UNL     1     -42.141  60.318 -60.208  1.00  0.00     0.143 A 
HETATM   28  C   UNL     1     -41.866  59.256 -61.035  1.00  0.00     0.027 A 
HETATM   29  C   UNL     1     -41.984  58.093 -60.236  1.00  0.00     0.045 A 
ENDBRANCH  22  25
ENDBRANCH   4  21
TORSDOF 7
ENDMDL
MODEL 5
REMARK VINA RESULT:      -7.0      2.474      8.167
REMARK  7 active torsions:
REMARK  status: ('A' for Active; 'I' for Inactive)
REMARK    1  A    between atoms: O_2  and  C_3 
REMARK    2  A    between atoms: C_6  and  C_7 
REMARK    3  A    between atoms: C_7  and  C_8 
REMARK       I    between atoms: C_8  and  N_9 
REMARK    4  A    between atoms: N_9  and  C_10 
REMARK    5  A    between atoms: C_10  and  C_11 
REMARK    6  A    between atoms: C_14  and  N_15 
REMARK       I    between atoms: N_15  and  C_16 
REMARK    7  A    between atoms: C_16  and  C_17 
ROOT
HETATM    1  C   UNL     1     -44.058  57.305 -53.475  1.00  0.00    -0.040 A 
HETATM    2  C   UNL     1     -44.375  56.290 -54.388  1.00  0.00     0.011 A 
HETATM    3  C   UNL     1     -43.702  55.061 -54.359  1.00  0.00     0.030 A 
HETATM    4  C   UNL     1     -42.688  54.829 -53.431  1.00  0.00     0.035 A 
HETATM    5  C   UNL     1     -42.359  55.844 -52.526  1.00  0.00     0.030 A 
HETATM    6  C   UNL     1     -43.037  57.066 -52.547  1.00  0.00     0.011 A 
ENDROOT
BRANCH   1   7
HETATM    7  C   UNL     1     -44.734  58.653 -53.513  1.00  0.00     0.161 C 
BRANCH   7   8
HETATM    8  N   UNL     1     -45.460  58.888 -54.742  1.00  0.00    -0.357 N 
HETATM    9  C   UNL     1     -44.979  59.762 -55.693  1.00  0.00     0.222 C 
HETATM   10  O   UNL     1     -44.009  60.491 -55.503  1.00  0.00    -0.273 OA
HETATM   11  H   UNL     1     -46.151  58.206 -55.021  1.00  0.00     0.162 HD
BRANCH   9  12
HETATM   12  C   UNL     1     -45.723  59.729 -57.019  1.00  0.00     0.141 C 
BRANCH  12  13
HETATM   13  C   UNL     1     -45.195  58.740 -58.037  1.00  0.00    -0.049 A 
HETATM   14  C   UNL     1     -43.878  58.757 -58.516  1.00  0.00     0.010 A 
HETATM   15  C   UNL     1     -43.448  57.840 -59.485  1.00  0.00     0.037 A 
HETATM   16  C   UNL     1     -44.332  56.896 -60.003  1.00  0.00     0.068 A 
HETATM   17  C   UNL     1     -45.647  56.875 -59.537  1.00  0.00     0.037 A 
HETATM   18  C   UNL     1     -46.077  57.787 -58.568  1.00  0.00     0.010 A 
BRANCH  16  19
HETATM   19  O   UNL     1     -44.042  55.958 -60.954  1.00  0.00    -0.356 OA
HETATM   20  C   UNL     1     -45.071  55.033 -61.276  1.00  0.00     0.210 C 
ENDBRANCH  16  19
ENDBRANCH  12  13
ENDBRANCH   9  12
ENDBRANCH   7   8
ENDBRANCH   1   7
BRANCH   4  21
HETATM   21  N   UNL     1     -41.952  53.633 -53.344  1.00  0.00    -0.321 N 
HETATM   22  C   UNL     1     -40.797  53.280 -54.019  1.00  0.00     0.279 C 
HETATM   23  O   UNL     1     -40.214  53.973 -54.847  1.00  0.00    -0.265 OA
HETATM   24  H   UNL     1     -42.300  52.923 -52.710  1.00  0.00     0.169 HD
BRANCH  22  25
HETATM   25  C   UNL     1     -40.321  51.958 -53.648  1.00  0.00     0.142 A 
HETATM   26  O   UNL     1     -39.920  51.724 -52.355  1.00  0.00    -0.317 OA
HETATM   27  C   UNL     1     -39.524  50.426 -52.288  1.00  0.00     0.143 A 
HETATM   28  C   UNL     1     -39.665  49.814 -53.511  1.00  0.00     0.027 A 
HETATM   29  C   UNL     1     -40.178  50.800 -54.389  1.00  0.00     0.045 A 
ENDBRANCH  22  25
ENDBRANCH   4  21
TORSDOF 7
ENDMDL
MODEL 6
REMARK VINA RESULT:      -6.9      3.940      7.473
REMARK  7 active torsions:
REMARK  status: ('A' for Active; 'I' for Inactive)
REMARK    1  A    between atoms: O_2  and  C_3 
REMARK    2  A    between atoms: C_6  and  C_7 
REMARK    3  A    between atoms: C_7  and  C_8 
REMARK       I    between atoms: C_8  and  N_9 
REMARK    4  A    between atoms: N_9  and  C_10 
REMARK    5  A    between atoms: C_10  and  C_11 
REMARK    6  A    between atoms: C_14  and  N_15 
REMARK       I    between atoms: N_15  and  C_16 
REMARK    7  A    between atoms: C_16  and  C_17 
ROOT
HETATM    1  C   UNL     1     -44.097  57.832 -54.497  1.00  0.00    -0.040 A 
HETATM    2  C   UNL     1     -44.408  57.214 -53.279  1.00  0.00     0.011 A 
HETATM    3  C   UNL     1     -44.584  57.971 -52.113  1.00  0.00     0.030 A 
HETATM    4  C   UNL     1     -44.433  59.357 -52.138  1.00  0.00     0.035 A 
HETATM    5  C   UNL     1     -44.110  59.978 -53.349  1.00  0.00     0.030 A 
HETATM    6  C   UNL     1     -43.946  59.225 -54.515  1.00  0.00     0.011 A 
ENDROOT
BRANCH   1   7
HETATM    7  C   UNL     1     -43.859  57.039 -55.758  1.00  0.00     0.161 C 
BRANCH   7   8
HETATM    8  N   UNL     1     -43.559  55.646 -55.502  1.00  0.00    -0.357 N 
HETATM    9  C   UNL     1     -42.268  55.236 -55.247  1.00  0.00     0.222 C 
HETATM   10  O   UNL     1     -41.294  55.974 -55.365  1.00  0.00    -0.273 OA
HETATM   11  H   UNL     1     -44.320  55.041 -55.227  1.00  0.00     0.162 HD
BRANCH   9  12
HETATM   12  C   UNL     1     -42.143  53.796 -54.772  1.00  0.00     0.141 C 
BRANCH  12  13
HETATM   13  C   UNL     1     -41.733  53.622 -53.324  1.00  0.00    -0.049 A 
HETATM   14  C   UNL     1     -42.483  54.115 -52.247  1.00  0.00     0.010 A 
HETATM   15  C   UNL     1     -42.042  53.957 -50.926  1.00  0.00     0.037 A 
HETATM   16  C   UNL     1     -40.836  53.314 -50.658  1.00  0.00     0.068 A 
HETATM   17  C   UNL     1     -40.080  52.825 -51.723  1.00  0.00     0.037 A 
HETATM   18  C   UNL     1     -40.520  52.978 -53.042  1.00  0.00     0.010 A 
BRANCH  16  19
HETATM   19  O   UNL     1     -40.292  53.106 -49.421  1.00  0.00    -0.356 OA
HETATM   20  C   UNL     1     -40.621  54.049 -48.410  1.00  0.00     0.210 C 
ENDBRANCH  16  19
ENDBRANCH  12  13
ENDBRANCH   9  12
ENDBRANCH   7   8
ENDBRANCH   1   7
BRANCH   4  21
HETATM   21  N   UNL     1     -44.574  60.189 -51.012  1.00  0.00    -0.321 N 
HETATM   22  C   UNL     1     -45.408  60.029 -49.920  1.00  0.00     0.279 C 
HETATM   23  O   UNL     1     -46.203  59.108 -49.757  1.00  0.00    -0.265 OA
HETATM   24  H   UNL     1     -43.998  61.023 -50.980  1.00  0.00     0.169 HD
BRANCH  22  25
HETATM   25  C   UNL     1     -45.255  61.096 -48.945  1.00  0.00     0.142 A 
HETATM   26  O   UNL     1     -45.069  62.385 -49.379  1.00  0.00    -0.317 OA
HETATM   27  C   UNL     1     -44.952  63.167 -48.274  1.00  0.00     0.143 A 
HETATM   28  C   UNL     1     -45.063  62.410 -47.133  1.00  0.00     0.027 A 
HETATM   29  C   UNL     1     -45.257  61.074 -47.563  1.00  0.00     0.045 A 
ENDBRANCH  22  25
ENDBRANCH   4  21
TORSDOF 7
ENDMDL
MODEL 7
REMARK VINA RESULT:      -6.7      2.503      7.948
REMARK  7 active torsions:
REMARK  status: ('A' for Active; 'I' for Inactive)
REMARK    1  A    between atoms: O_2  and  C_3 
REMARK    2  A    between atoms: C_6  and  C_7 
REMARK    3  A    between atoms: C_7  and  C_8 
REMARK       I    between atoms: C_8  and  N_9 
REMARK    4  A    between atoms: N_9  and  C_10 
REMARK    5  A    between atoms: C_10  and  C_11 
REMARK    6  A    between atoms: C_14  and  N_15 
REMARK       I    between atoms: N_15  and  C_16 
REMARK    7  A    between atoms: C_16  and  C_17 
ROOT
HETATM    1  C   UNL     1     -44.100  57.428 -53.322  1.00  0.00    -0.040 A 
HETATM    2  C   UNL     1     -44.339  56.489 -54.335  1.00  0.00     0.011 A 
HETATM    3  C   UNL     1     -43.657  55.265 -54.355  1.00  0.00     0.030 A 
HETATM    4  C   UNL     1     -42.710  54.964 -53.377  1.00  0.00     0.035 A 
HETATM    5  C   UNL     1     -42.458  55.903 -52.372  1.00  0.00     0.030 A 
HETATM    6  C   UNL     1     -43.146  57.120 -52.344  1.00  0.00     0.011 A 
ENDROOT
BRANCH   1   7
HETATM    7  C   UNL     1     -44.786  58.771 -53.300  1.00  0.00     0.161 C 
BRANCH   7   8
HETATM    8  N   UNL     1     -45.566  59.028 -54.491  1.00  0.00    -0.357 N 
HETATM    9  C   UNL     1     -45.081  59.837 -55.496  1.00  0.00     0.222 C 
HETATM   10  O   UNL     1     -44.049  60.495 -55.387  1.00  0.00    -0.273 OA
HETATM   11  H   UNL     1     -46.322  58.392 -54.707  1.00  0.00     0.162 HD
BRANCH   9  12
HETATM   12  C   UNL     1     -45.906  59.825 -56.774  1.00  0.00     0.141 C 
BRANCH  12  13
HETATM   13  C   UNL     1     -45.595  58.698 -57.738  1.00  0.00    -0.049 A 
HETATM   14  C   UNL     1     -46.569  58.069 -58.526  1.00  0.00     0.010 A 
HETATM   15  C   UNL     1     -46.236  57.007 -59.378  1.00  0.00     0.037 A 
HETATM   16  C   UNL     1     -44.923  56.548 -59.450  1.00  0.00     0.068 A 
HETATM   17  C   UNL     1     -43.947  57.164 -58.666  1.00  0.00     0.037 A 
HETATM   18  C   UNL     1     -44.277  58.226 -57.818  1.00  0.00     0.010 A 
BRANCH  16  19
HETATM   19  O   UNL     1     -44.472  55.520 -60.230  1.00  0.00    -0.356 OA
HETATM   20  C   UNL     1     -44.631  54.206 -59.713  1.00  0.00     0.210 C 
ENDBRANCH  16  19
ENDBRANCH  12  13
ENDBRANCH   9  12
ENDBRANCH   7   8
ENDBRANCH   1   7
BRANCH   4  21
HETATM   21  N   UNL     1     -41.969  53.768 -53.334  1.00  0.00    -0.321 N 
HETATM   22  C   UNL     1     -40.783  53.464 -53.979  1.00  0.00     0.279 C 
HETATM   23  O   UNL     1     -40.171  54.211 -54.736  1.00  0.00    -0.265 OA
HETATM   24  H   UNL     1     -42.339  53.018 -52.761  1.00  0.00     0.169 HD
BRANCH  22  25
HETATM   25  C   UNL     1     -40.314  52.124 -53.671  1.00  0.00     0.142 A 
HETATM   26  O   UNL     1     -40.398  51.142 -54.627  1.00  0.00    -0.317 OA
HETATM   27  C   UNL     1     -39.900  50.004 -54.077  1.00  0.00     0.143 A 
HETATM   28  C   UNL     1     -39.491  50.231 -52.785  1.00  0.00     0.027 A 
HETATM   29  C   UNL     1     -39.757  51.596 -52.521  1.00  0.00     0.045 A 
ENDBRANCH  22  25
ENDBRANCH   4  21
TORSDOF 7
ENDMDL
MODEL 8
REMARK VINA RESULT:      -6.6      5.079      9.339
REMARK  7 active torsions:
REMARK  status: ('A' for Active; 'I' for Inactive)
REMARK    1  A    between atoms: O_2  and  C_3 
REMARK    2  A    between atoms: C_6  and  C_7 
REMARK    3  A    between atoms: C_7  and  C_8 
REMARK       I    between atoms: C_8  and  N_9 
REMARK    4  A    between atoms: N_9  and  C_10 
REMARK    5  A    between atoms: C_10  and  C_11 
REMARK    6  A    between atoms: C_14  and  N_15 
REMARK       I    between atoms: N_15  and  C_16 
REMARK    7  A    between atoms: C_16  and  C_17 
ROOT
HETATM    1  C   UNL     1     -42.211  58.244 -52.420  1.00  0.00    -0.040 A 
HETATM    2  C   UNL     1     -41.197  58.014 -53.359  1.00  0.00     0.011 A 
HETATM    3  C   UNL     1     -40.782  56.711 -53.664  1.00  0.00     0.030 A 
HETATM    4  C   UNL     1     -41.358  55.615 -53.023  1.00  0.00     0.035 A 
HETATM    5  C   UNL     1     -42.362  55.840 -52.076  1.00  0.00     0.030 A 
HETATM    6  C   UNL     1     -42.785  57.139 -51.779  1.00  0.00     0.011 A 
ENDROOT
BRANCH   1   7
HETATM    7  C   UNL     1     -42.648  59.637 -52.040  1.00  0.00     0.161 C 
BRANCH   7   8
HETATM    8  N   UNL     1     -43.437  59.672 -50.828  1.00  0.00    -0.357 N 
HETATM    9  C   UNL     1     -44.691  60.243 -50.816  1.00  0.00     0.222 C 
HETATM   10  O   UNL     1     -45.149  60.875 -51.764  1.00  0.00    -0.273 OA
HETATM   11  H   UNL     1     -43.192  59.032 -50.086  1.00  0.00     0.162 HD
BRANCH   9  12
HETATM   12  C   UNL     1     -45.486  59.999 -49.542  1.00  0.00     0.141 C 
BRANCH  12  13
HETATM   13  C   UNL     1     -45.381  61.085 -48.491  1.00  0.00    -0.049 A 
HETATM   14  C   UNL     1     -44.929  62.383 -48.768  1.00  0.00     0.010 A 
HETATM   15  C   UNL     1     -44.817  63.342 -47.752  1.00  0.00     0.037 A 
HETATM   16  C   UNL     1     -45.145  63.018 -46.438  1.00  0.00     0.068 A 
HETATM   17  C   UNL     1     -45.591  61.727 -46.151  1.00  0.00     0.037 A 
HETATM   18  C   UNL     1     -45.706  60.770 -47.164  1.00  0.00     0.010 A 
BRANCH  16  19
HETATM   19  O   UNL     1     -45.071  63.856 -45.359  1.00  0.00    -0.356 OA
HETATM   20  C   UNL     1     -44.692  63.272 -44.120  1.00  0.00     0.210 C 
ENDBRANCH  16  19
ENDBRANCH  12  13
ENDBRANCH   9  12
ENDBRANCH   7   8
ENDBRANCH   1   7
BRANCH   4  21
HETATM   21  N   UNL     1     -40.988  54.277 -53.257  1.00  0.00    -0.321 N 
HETATM   22  C   UNL     1     -40.349  53.397 -52.402  1.00  0.00     0.279 C 
HETATM   23  O   UNL     1     -39.972  53.654 -51.263  1.00  0.00    -0.265 OA
HETATM   24  H   UNL     1     -41.208  53.891 -54.168  1.00  0.00     0.169 HD
BRANCH  22  25
HETATM   25  C   UNL     1     -40.153  52.088 -53.001  1.00  0.00     0.142 A 
HETATM   26  O   UNL     1     -39.706  51.049 -52.222  1.00  0.00    -0.317 OA
HETATM   27  C   UNL     1     -39.608  49.959 -53.027  1.00  0.00     0.143 A 
HETATM   28  C   UNL     1     -39.987  50.270 -54.311  1.00  0.00     0.027 A 
HETATM   29  C   UNL     1     -40.338  51.642 -54.296  1.00  0.00     0.045 A 
ENDBRANCH  22  25
ENDBRANCH   4  21
TORSDOF 7
ENDMDL
MODEL 9
REMARK VINA RESULT:      -6.5     14.272     16.555
REMARK  7 active torsions:
REMARK  status: ('A' for Active; 'I' for Inactive)
REMARK    1  A    between atoms: O_2  and  C_3 
REMARK    2  A    between atoms: C_6  and  C_7 
REMARK    3  A    between atoms: C_7  and  C_8 
REMARK       I    between atoms: C_8  and  N_9 
REMARK    4  A    between atoms: N_9  and  C_10 
REMARK    5  A    between atoms: C_10  and  C_11 
REMARK    6  A    between atoms: C_14  and  N_15 
REMARK       I    between atoms: N_15  and  C_16 
REMARK    7  A    between atoms: C_16  and  C_17 
ROOT
HETATM    1  C   UNL     1     -36.196  41.600 -54.984  1.00  0.00    -0.040 A 
HETATM    2  C   UNL     1     -37.466  41.209 -55.429  1.00  0.00     0.011 A 
HETATM    3  C   UNL     1     -37.631  40.591 -56.677  1.00  0.00     0.030 A 
HETATM    4  C   UNL     1     -36.535  40.371 -57.510  1.00  0.00     0.035 A 
HETATM    5  C   UNL     1     -35.268  40.772 -57.075  1.00  0.00     0.030 A 
HETATM    6  C   UNL     1     -35.100  41.377 -55.826  1.00  0.00     0.011 A 
ENDROOT
BRANCH   1   7
HETATM    7  C   UNL     1     -35.995  42.306 -53.666  1.00  0.00     0.161 C 
BRANCH   7   8
HETATM    8  N   UNL     1     -34.722  42.000 -53.049  1.00  0.00    -0.357 N 
HETATM    9  C   UNL     1     -34.557  40.861 -52.291  1.00  0.00     0.222 C 
HETATM   10  O   UNL     1     -35.490  40.128 -51.972  1.00  0.00    -0.273 OA
HETATM   11  H   UNL     1     -33.899  42.461 -53.411  1.00  0.00     0.162 HD
BRANCH   9  12
HETATM   12  C   UNL     1     -33.117  40.559 -51.906  1.00  0.00     0.141 C 
BRANCH  12  13
HETATM   13  C   UNL     1     -32.365  39.653 -52.859  1.00  0.00    -0.049 A 
HETATM   14  C   UNL     1     -31.945  38.359 -52.521  1.00  0.00     0.010 A 
HETATM   15  C   UNL     1     -31.221  37.573 -53.428  1.00  0.00     0.037 A 
HETATM   16  C   UNL     1     -30.894  38.071 -54.687  1.00  0.00     0.068 A 
HETATM   17  C   UNL     1     -31.302  39.360 -55.030  1.00  0.00     0.037 A 
HETATM   18  C   UNL     1     -32.027  40.144 -54.128  1.00  0.00     0.010 A 
BRANCH  16  19
HETATM   19  O   UNL     1     -30.187  37.412 -55.654  1.00  0.00    -0.356 OA
HETATM   20  C   UNL     1     -28.964  38.006 -56.069  1.00  0.00     0.210 C 
ENDBRANCH  16  19
ENDBRANCH  12  13
ENDBRANCH   9  12
ENDBRANCH   7   8
ENDBRANCH   1   7
BRANCH   4  21
HETATM   21  N   UNL     1     -36.616  39.776 -58.782  1.00  0.00    -0.321 N 
HETATM   22  C   UNL     1     -37.002  40.349 -59.980  1.00  0.00     0.279 C 
HETATM   23  O   UNL     1     -37.368  41.510 -60.131  1.00  0.00    -0.265 OA
HETATM   24  H   UNL     1     -36.363  38.796 -58.849  1.00  0.00     0.169 HD
BRANCH  22  25
HETATM   25  C   UNL     1     -36.938  39.411 -61.089  1.00  0.00     0.142 A 
HETATM   26  O   UNL     1     -35.742  38.810 -61.396  1.00  0.00    -0.317 OA
HETATM   27  C   UNL     1     -35.965  37.997 -62.462  1.00  0.00     0.143 A 
HETATM   28  C   UNL     1     -37.283  38.057 -62.848  1.00  0.00     0.027 A 
HETATM   29  C   UNL     1     -37.912  38.968 -61.965  1.00  0.00     0.045 A 
ENDBRANCH  22  25
ENDBRANCH   4  21
TORSDOF 7
ENDMDL
MODEL 10
REMARK VINA RESULT:      -6.5      5.518      8.451
REMARK  7 active torsions:
REMARK  status: ('A' for Active; 'I' for Inactive)
REMARK    1  A    between atoms: O_2  and  C_3 
REMARK    2  A    between atoms: C_6  and  C_7 
REMARK    3  A    between atoms: C_7  and  C_8 
REMARK       I    between atoms: C_8  and  N_9 
REMARK    4  A    between atoms: N_9  and  C_10 
REMARK    5  A    between atoms: C_10  and  C_11 
REMARK    6  A    between atoms: C_14  and  N_15 
REMARK       I    between atoms: N_15  and  C_16 
REMARK    7  A    between atoms: C_16  and  C_17 
ROOT
HETATM    1  C   UNL     1     -43.811  59.254 -51.825  1.00  0.00    -0.040 A 
HETATM    2  C   UNL     1     -42.990  60.276 -51.334  1.00  0.00     0.011 A 
HETATM    3  C   UNL     1     -43.401  61.075 -50.258  1.00  0.00     0.030 A 
HETATM    4  C   UNL     1     -44.649  60.880 -49.667  1.00  0.00     0.035 A 
HETATM    5  C   UNL     1     -45.479  59.869 -50.163  1.00  0.00     0.030 A 
HETATM    6  C   UNL     1     -45.064  59.065 -51.229  1.00  0.00     0.011 A 
ENDROOT
BRANCH   1   7
HETATM    7  C   UNL     1     -43.413  58.409 -53.010  1.00  0.00     0.161 C 
BRANCH   7   8
HETATM    8  N   UNL     1     -43.365  56.995 -52.706  1.00  0.00    -0.357 N 
HETATM    9  C   UNL     1     -42.315  56.459 -51.992  1.00  0.00     0.222 C 
HETATM   10  O   UNL     1     -41.305  57.097 -51.703  1.00  0.00    -0.273 OA
HETATM   11  H   UNL     1     -44.226  56.470 -52.763  1.00  0.00     0.162 HD
BRANCH   9  12
HETATM   12  C   UNL     1     -42.518  55.017 -51.553  1.00  0.00     0.141 C 
BRANCH  12  13
HETATM   13  C   UNL     1     -41.646  53.995 -52.254  1.00  0.00    -0.049 A 
HETATM   14  C   UNL     1     -41.743  53.709 -53.623  1.00  0.00     0.010 A 
HETATM   15  C   UNL     1     -40.936  52.729 -54.217  1.00  0.00     0.037 A 
HETATM   16  C   UNL     1     -40.024  52.008 -53.450  1.00  0.00     0.068 A 
HETATM   17  C   UNL     1     -39.924  52.281 -52.085  1.00  0.00     0.037 A 
HETATM   18  C   UNL     1     -40.726  53.261 -51.492  1.00  0.00     0.010 A 
BRANCH  16  19
HETATM   19  O   UNL     1     -39.190  51.024 -53.905  1.00  0.00    -0.356 OA
HETATM   20  C   UNL     1     -39.803  49.826 -54.361  1.00  0.00     0.210 C 
ENDBRANCH  16  19
ENDBRANCH  12  13
ENDBRANCH   9  12
ENDBRANCH   7   8
ENDBRANCH   1   7
BRANCH   4  21
HETATM   21  N   UNL     1     -45.147  61.647 -48.597  1.00  0.00    -0.321 N 
HETATM   22  C   UNL     1     -46.225  62.515 -48.586  1.00  0.00     0.279 C 
HETATM   23  O   UNL     1     -46.939  62.779 -49.548  1.00  0.00    -0.265 OA
HETATM   24  H   UNL     1     -44.663  61.568 -47.710  1.00  0.00     0.169 HD
BRANCH  22  25
HETATM   25  C   UNL     1     -46.439  63.113 -47.279  1.00  0.00     0.142 A 
HETATM   26  O   UNL     1     -45.581  62.811 -46.249  1.00  0.00    -0.317 OA
HETATM   27  C   UNL     1     -46.013  63.494 -45.157  1.00  0.00     0.143 A 
HETATM   28  C   UNL     1     -47.130  64.235 -45.459  1.00  0.00     0.027 A 
HETATM   29  C   UNL     1     -47.407  63.990 -46.826  1.00  0.00     0.045 A 
ENDBRANCH  22  25
ENDBRANCH   4  21
TORSDOF 7
ENDMDL
