MODEL 1
REMARK VINA RESULT:      -9.6      0.000      0.000
REMARK  5 active torsions:
REMARK  status: ('A' for Active; 'I' for Inactive)
REMARK    1  A    between atoms: C_3  and  C_4 
REMARK    2  A    between atoms: C_9  and  C_10 
REMARK    3  A    between atoms: C_10  and  C_11 
REMARK       I    between atoms: C_11  and  N_12 
REMARK    4  A    between atoms: N_12  and  C_13 
REMARK    5  A    between atoms: C_20  and  C_21 
REMARK       I    between atoms: C_21  and  N_22 
ROOT
HETATM    1  C   UNL     1     -42.886  56.712 -57.063  1.00  0.00     0.035 A 
HETATM    2  C   UNL     1     -43.376  55.974 -58.150  1.00  0.00     0.046 A 
HETATM    3  C   UNL     1     -44.449  56.484 -58.915  1.00  0.00     0.030 A 
HETATM    4  C   UNL     1     -45.000  57.710 -58.563  1.00  0.00     0.063 A 
HETATM    5  N   UNL     1     -45.997  57.933 -59.472  1.00  0.00    -0.277 N 
HETATM    6  H   UNL     1     -46.613  58.736 -59.522  1.00  0.00     0.189 HD
HETATM    7  N   UNL     1     -46.144  56.961 -60.387  1.00  0.00    -0.168 NA
HETATM    8  C   UNL     1     -45.193  56.057 -60.057  1.00  0.00     0.156 A 
HETATM    9  C   UNL     1     -44.542  58.470 -57.486  1.00  0.00     0.034 A 
HETATM   10  C   UNL     1     -43.473  57.945 -56.746  1.00  0.00     0.032 A 
ENDROOT
BRANCH   1  11
HETATM   11  N   UNL     1     -41.794  56.302 -56.265  1.00  0.00    -0.327 N 
HETATM   12  C   UNL     1     -41.749  55.228 -55.390  1.00  0.00     0.226 C 
HETATM   13  O   UNL     1     -42.695  54.522 -55.056  1.00  0.00    -0.273 OA
HETATM   14  H   UNL     1     -40.961  56.874 -56.322  1.00  0.00     0.169 HD
BRANCH  12  15
HETATM   15  C   UNL     1     -40.356  54.973 -54.832  1.00  0.00     0.141 C 
BRANCH  15  16
HETATM   16  C   UNL     1     -40.256  53.869 -53.803  1.00  0.00    -0.049 A 
HETATM   17  C   UNL     1     -40.070  52.547 -54.241  1.00  0.00     0.023 A 
HETATM   18  C   UNL     1     -40.047  51.472 -53.336  1.00  0.00     0.048 A 
HETATM   19  C   UNL     1     -40.206  51.735 -51.969  1.00  0.00     0.016 A 
HETATM   20  C   UNL     1     -40.406  53.040 -51.523  1.00  0.00     0.001 A 
HETATM   21  C   UNL     1     -40.443  54.099 -52.434  1.00  0.00     0.007 A 
BRANCH  18  22
HETATM   22  C   UNL     1     -39.848  50.064 -53.840  1.00  0.00     0.417 C 
HETATM   23  F   UNL     1     -40.871  49.609 -54.616  1.00  0.00    -0.166 F 
HETATM   24  F   UNL     1     -38.721  49.931 -54.595  1.00  0.00    -0.166 F 
HETATM   25  F   UNL     1     -39.721  49.165 -52.824  1.00  0.00    -0.166 F 
ENDBRANCH  18  22
ENDBRANCH  15  16
ENDBRANCH  12  15
ENDBRANCH   1  11
BRANCH   8  26
HETATM   26  C   UNL     1     -45.015  54.823 -60.834  1.00  0.00     0.270 C 
HETATM   27  N   UNL     1     -44.949  53.688 -60.072  1.00  0.00    -0.365 N 
HETATM   28  H   UNL     1     -45.030  53.772 -59.067  1.00  0.00     0.159 HD
HETATM   29  H   UNL     1     -44.832  52.793 -60.521  1.00  0.00     0.159 HD
HETATM   30  O   UNL     1     -44.930  54.771 -62.057  1.00  0.00    -0.266 OA
ENDBRANCH   8  26
TORSDOF 5
ENDMDL
MODEL 2
REMARK VINA RESULT:      -9.3      2.058      2.611
REMARK  5 active torsions:
REMARK  status: ('A' for Active; 'I' for Inactive)
REMARK    1  A    between atoms: C_3  and  C_4 
REMARK    2  A    between atoms: C_9  and  C_10 
REMARK    3  A    between atoms: C_10  and  C_11 
REMARK       I    between atoms: C_11  and  N_12 
REMARK    4  A    between atoms: N_12  and  C_13 
REMARK    5  A    between atoms: C_20  and  C_21 
REMARK       I    between atoms: C_21  and  N_22 
ROOT
HETATM    1  C   UNL     1     -42.729  56.398 -56.910  1.00  0.00     0.035 A 
HETATM    2  C   UNL     1     -43.272  55.743 -58.024  1.00  0.00     0.046 A 
HETATM    3  C   UNL     1     -44.329  56.344 -58.744  1.00  0.00     0.030 A 
HETATM    4  C   UNL     1     -44.811  57.577 -58.321  1.00  0.00     0.063 A 
HETATM    5  N   UNL     1     -45.809  57.897 -59.200  1.00  0.00    -0.277 N 
HETATM    6  H   UNL     1     -46.384  58.732 -59.199  1.00  0.00     0.189 HD
HETATM    7  N   UNL     1     -46.019  56.982 -60.161  1.00  0.00    -0.168 NA
HETATM    8  C   UNL     1     -45.110  56.015 -59.894  1.00  0.00     0.156 A 
HETATM    9  C   UNL     1     -44.299  58.257 -57.215  1.00  0.00     0.034 A 
HETATM   10  C   UNL     1     -43.248  57.641 -56.521  1.00  0.00     0.032 A 
ENDROOT
BRANCH   1  11
HETATM   11  N   UNL     1     -41.649  55.893 -56.153  1.00  0.00    -0.327 N 
HETATM   12  C   UNL     1     -41.605  54.706 -55.438  1.00  0.00     0.226 C 
HETATM   13  O   UNL     1     -42.546  53.948 -55.230  1.00  0.00    -0.273 OA
HETATM   14  H   UNL     1     -40.824  56.478 -56.109  1.00  0.00     0.169 HD
BRANCH  12  15
HETATM   15  C   UNL     1     -40.220  54.393 -54.890  1.00  0.00     0.141 C 
BRANCH  15  16
HETATM   16  C   UNL     1     -40.175  53.375 -53.772  1.00  0.00    -0.049 A 
HETATM   17  C   UNL     1     -40.342  53.814 -52.447  1.00  0.00     0.023 A 
HETATM   18  C   UNL     1     -40.232  52.926 -51.363  1.00  0.00     0.048 A 
HETATM   19  C   UNL     1     -39.959  51.575 -51.618  1.00  0.00     0.016 A 
HETATM   20  C   UNL     1     -39.778  51.130 -52.927  1.00  0.00     0.001 A 
HETATM   21  C   UNL     1     -39.874  52.026 -53.995  1.00  0.00     0.007 A 
BRANCH  18  22
HETATM   22  C   UNL     1     -40.413  53.429 -49.953  1.00  0.00     0.417 C 
HETATM   23  F   UNL     1     -39.402  54.235 -49.523  1.00  0.00    -0.166 F 
HETATM   24  F   UNL     1     -41.557  54.154 -49.796  1.00  0.00    -0.166 F 
HETATM   25  F   UNL     1     -40.492  52.414 -49.047  1.00  0.00    -0.166 F 
ENDBRANCH  18  22
ENDBRANCH  15  16
ENDBRANCH  12  15
ENDBRANCH   1  11
BRANCH   8  26
HETATM   26  C   UNL     1     -45.007  54.815 -60.735  1.00  0.00     0.270 C 
HETATM   27  N   UNL     1     -44.994  53.640 -60.033  1.00  0.00    -0.365 N 
HETATM   28  H   UNL     1     -45.058  53.677 -59.023  1.00  0.00     0.159 HD
HETATM   29  H   UNL     1     -44.929  52.765 -60.528  1.00  0.00     0.159 HD
HETATM   30  O   UNL     1     -44.938  54.823 -61.960  1.00  0.00    -0.266 OA
ENDBRANCH   8  26
TORSDOF 5
ENDMDL
MODEL 3
REMARK VINA RESULT:      -8.9      1.658      2.616
REMARK  5 active torsions:
REMARK  status: ('A' for Active; 'I' for Inactive)
REMARK    1  A    between atoms: C_3  and  C_4 
REMARK    2  A    between atoms: C_9  and  C_10 
REMARK    3  A    between atoms: C_10  and  C_11 
REMARK       I    between atoms: C_11  and  N_12 
REMARK    4  A    between atoms: N_12  and  C_13 
REMARK    5  A    between atoms: C_20  and  C_21 
REMARK       I    between atoms: C_21  and  N_22 
ROOT
HETATM    1  C   UNL     1     -43.069  56.234 -57.896  1.00  0.00     0.035 A 
HETATM    2  C   UNL     1     -44.097  57.182 -57.809  1.00  0.00     0.046 A 
HETATM    3  C   UNL     1     -45.086  57.238 -58.817  1.00  0.00     0.030 A 
HETATM    4  C   UNL     1     -45.009  56.348 -59.881  1.00  0.00     0.063 A 
HETATM    5  N   UNL     1     -46.084  56.638 -60.675  1.00  0.00    -0.277 N 
HETATM    6  H   UNL     1     -46.347  56.184 -61.542  1.00  0.00     0.189 HD
HETATM    7  N   UNL     1     -46.857  57.639 -60.221  1.00  0.00    -0.168 NA
HETATM    8  C   UNL     1     -46.254  58.020 -59.072  1.00  0.00     0.156 A 
HETATM    9  C   UNL     1     -43.999  55.393 -60.004  1.00  0.00     0.034 A 
HETATM   10  C   UNL     1     -43.033  55.355 -58.988  1.00  0.00     0.032 A 
ENDROOT
BRANCH   1  11
HETATM   11  N   UNL     1     -42.060  56.078 -56.919  1.00  0.00    -0.327 N 
HETATM   12  C   UNL     1     -42.008  55.131 -55.909  1.00  0.00     0.226 C 
HETATM   13  O   UNL     1     -42.897  54.342 -55.605  1.00  0.00    -0.273 OA
HETATM   14  H   UNL     1     -41.305  56.751 -56.948  1.00  0.00     0.169 HD
BRANCH  12  15
HETATM   15  C   UNL     1     -40.689  55.141 -55.150  1.00  0.00     0.141 C 
BRANCH  15  16
HETATM   16  C   UNL     1     -40.546  54.091 -54.072  1.00  0.00    -0.049 A 
HETATM   17  C   UNL     1     -40.289  52.762 -54.448  1.00  0.00     0.023 A 
HETATM   18  C   UNL     1     -40.224  51.731 -53.494  1.00  0.00     0.048 A 
HETATM   19  C   UNL     1     -40.412  52.047 -52.142  1.00  0.00     0.016 A 
HETATM   20  C   UNL     1     -40.680  53.359 -51.757  1.00  0.00     0.001 A 
HETATM   21  C   UNL     1     -40.759  54.373 -52.716  1.00  0.00     0.007 A 
BRANCH  18  22
HETATM   22  C   UNL     1     -39.950  50.314 -53.932  1.00  0.00     0.417 C 
HETATM   23  F   UNL     1     -38.811  50.176 -54.666  1.00  0.00    -0.166 F 
HETATM   24  F   UNL     1     -39.821  49.455 -52.881  1.00  0.00    -0.166 F 
HETATM   25  F   UNL     1     -40.954  49.808 -54.702  1.00  0.00    -0.166 F 
ENDBRANCH  18  22
ENDBRANCH  15  16
ENDBRANCH  12  15
ENDBRANCH   1  11
BRANCH   8  26
HETATM   26  C   UNL     1     -46.802  59.108 -58.250  1.00  0.00     0.270 C 
HETATM   27  N   UNL     1     -47.682  58.691 -57.288  1.00  0.00    -0.365 N 
HETATM   28  H   UNL     1     -47.884  57.702 -57.209  1.00  0.00     0.159 HD
HETATM   29  H   UNL     1     -48.106  59.369 -56.673  1.00  0.00     0.159 HD
HETATM   30  O   UNL     1     -46.521  60.294 -58.380  1.00  0.00    -0.266 OA
ENDBRANCH   8  26
TORSDOF 5
ENDMDL
MODEL 4
REMARK VINA RESULT:      -8.8      3.640      5.383
REMARK  5 active torsions:
REMARK  status: ('A' for Active; 'I' for Inactive)
REMARK    1  A    between atoms: C_3  and  C_4 
REMARK    2  A    between atoms: C_9  and  C_10 
REMARK    3  A    between atoms: C_10  and  C_11 
REMARK       I    between atoms: C_11  and  N_12 
REMARK    4  A    between atoms: N_12  and  C_13 
REMARK    5  A    between atoms: C_20  and  C_21 
REMARK       I    between atoms: C_21  and  N_22 
ROOT
HETATM    1  C   UNL     1     -43.146  57.849 -54.366  1.00  0.00     0.035 A 
HETATM    2  C   UNL     1     -43.715  58.195 -53.132  1.00  0.00     0.046 A 
HETATM    3  C   UNL     1     -44.743  59.163 -53.082  1.00  0.00     0.030 A 
HETATM    4  C   UNL     1     -45.162  59.757 -54.266  1.00  0.00     0.063 A 
HETATM    5  N   UNL     1     -46.149  60.631 -53.903  1.00  0.00    -0.277 N 
HETATM    6  H   UNL     1     -46.686  61.238 -54.512  1.00  0.00     0.189 HD
HETATM    7  N   UNL     1     -46.413  60.658 -52.586  1.00  0.00    -0.168 NA
HETATM    8  C   UNL     1     -45.552  59.754 -52.064  1.00  0.00     0.156 A 
HETATM    9  C   UNL     1     -44.616  59.443 -55.511  1.00  0.00     0.034 A 
HETATM   10  C   UNL     1     -43.602  58.475 -55.534  1.00  0.00     0.032 A 
ENDROOT
BRANCH   1  11
HETATM   11  N   UNL     1     -42.142  56.867 -54.519  1.00  0.00    -0.327 N 
HETATM   12  C   UNL     1     -42.320  55.503 -54.690  1.00  0.00     0.226 C 
HETATM   13  O   UNL     1     -43.380  54.892 -54.607  1.00  0.00    -0.273 OA
HETATM   14  H   UNL     1     -41.186  57.196 -54.472  1.00  0.00     0.169 HD
BRANCH  12  15
HETATM   15  C   UNL     1     -41.024  54.769 -55.003  1.00  0.00     0.141 C 
BRANCH  15  16
HETATM   16  C   UNL     1     -40.574  53.766 -53.965  1.00  0.00    -0.049 A 
HETATM   17  C   UNL     1     -40.357  52.434 -54.357  1.00  0.00     0.023 A 
HETATM   18  C   UNL     1     -40.013  51.442 -53.421  1.00  0.00     0.048 A 
HETATM   19  C   UNL     1     -39.877  51.801 -52.074  1.00  0.00     0.016 A 
HETATM   20  C   UNL     1     -40.103  53.116 -51.670  1.00  0.00     0.001 A 
HETATM   21  C   UNL     1     -40.460  54.089 -52.607  1.00  0.00     0.007 A 
BRANCH  18  22
HETATM   22  C   UNL     1     -39.790  50.021 -53.875  1.00  0.00     0.417 C 
HETATM   23  F   UNL     1     -39.599  49.142 -52.852  1.00  0.00    -0.166 F 
HETATM   24  F   UNL     1     -40.837  49.529 -54.596  1.00  0.00    -0.166 F 
HETATM   25  F   UNL     1     -38.697  49.901 -54.680  1.00  0.00    -0.166 F 
ENDBRANCH  18  22
ENDBRANCH  15  16
ENDBRANCH  12  15
ENDBRANCH   1  11
BRANCH   8  26
HETATM   26  C   UNL     1     -45.525  59.475 -50.622  1.00  0.00     0.270 C 
HETATM   27  N   UNL     1     -44.502  60.092 -49.952  1.00  0.00    -0.365 N 
HETATM   28  H   UNL     1     -43.863  60.677 -50.475  1.00  0.00     0.159 HD
HETATM   29  H   UNL     1     -44.408  59.960 -48.957  1.00  0.00     0.159 HD
HETATM   30  O   UNL     1     -46.330  58.762 -50.031  1.00  0.00    -0.266 OA
ENDBRANCH   8  26
TORSDOF 5
ENDMDL
MODEL 5
REMARK VINA RESULT:      -8.7      2.466      3.540
REMARK  5 active torsions:
REMARK  status: ('A' for Active; 'I' for Inactive)
REMARK    1  A    between atoms: C_3  and  C_4 
REMARK    2  A    between atoms: C_9  and  C_10 
REMARK    3  A    between atoms: C_10  and  C_11 
REMARK       I    between atoms: C_11  and  N_12 
REMARK    4  A    between atoms: N_12  and  C_13 
REMARK    5  A    between atoms: C_20  and  C_21 
REMARK       I    between atoms: C_21  and  N_22 
ROOT
HETATM    1  C   UNL     1     -42.790  56.162 -57.041  1.00  0.00     0.035 A 
HETATM    2  C   UNL     1     -42.458  57.524 -57.071  1.00  0.00     0.046 A 
HETATM    3  C   UNL     1     -42.478  58.223 -58.299  1.00  0.00     0.030 A 
HETATM    4  C   UNL     1     -42.822  57.535 -59.456  1.00  0.00     0.063 A 
HETATM    5  N   UNL     1     -42.756  58.459 -60.461  1.00  0.00    -0.277 N 
HETATM    6  H   UNL     1     -42.946  58.311 -61.446  1.00  0.00     0.189 HD
HETATM    7  N   UNL     1     -42.400  59.692 -60.062  1.00  0.00    -0.168 NA
HETATM    8  C   UNL     1     -42.226  59.562 -58.726  1.00  0.00     0.156 A 
HETATM    9  C   UNL     1     -43.154  56.179 -59.466  1.00  0.00     0.034 A 
HETATM   10  C   UNL     1     -43.132  55.510 -58.234  1.00  0.00     0.032 A 
ENDROOT
BRANCH   1  11
HETATM   11  N   UNL     1     -42.835  55.392 -55.858  1.00  0.00    -0.327 N 
HETATM   12  C   UNL     1     -41.799  55.160 -54.966  1.00  0.00     0.226 C 
HETATM   13  O   UNL     1     -40.624  55.477 -55.118  1.00  0.00    -0.273 OA
HETATM   14  H   UNL     1     -43.716  54.939 -55.655  1.00  0.00     0.169 HD
BRANCH  12  15
HETATM   15  C   UNL     1     -42.249  54.434 -53.707  1.00  0.00     0.141 C 
BRANCH  15  16
HETATM   16  C   UNL     1     -41.223  53.518 -53.078  1.00  0.00    -0.049 A 
HETATM   17  C   UNL     1     -40.936  52.291 -53.700  1.00  0.00     0.023 A 
HETATM   18  C   UNL     1     -40.050  51.366 -53.120  1.00  0.00     0.048 A 
HETATM   19  C   UNL     1     -39.438  51.687 -51.901  1.00  0.00     0.016 A 
HETATM   20  C   UNL     1     -39.725  52.896 -51.267  1.00  0.00     0.001 A 
HETATM   21  C   UNL     1     -40.620  53.799 -51.845  1.00  0.00     0.007 A 
BRANCH  18  22
HETATM   22  C   UNL     1     -39.766  50.057 -53.812  1.00  0.00     0.417 C 
HETATM   23  F   UNL     1     -39.486  49.033 -52.958  1.00  0.00    -0.166 F 
HETATM   24  F   UNL     1     -40.811  49.628 -54.575  1.00  0.00    -0.166 F 
HETATM   25  F   UNL     1     -38.700  50.139 -54.658  1.00  0.00    -0.166 F 
ENDBRANCH  18  22
ENDBRANCH  15  16
ENDBRANCH  12  15
ENDBRANCH   1  11
BRANCH   8  26
HETATM   26  C   UNL     1     -41.831  60.709 -57.896  1.00  0.00     0.270 C 
HETATM   27  N   UNL     1     -42.879  61.345 -57.288  1.00  0.00    -0.365 N 
HETATM   28  H   UNL     1     -43.816  60.994 -57.441  1.00  0.00     0.159 HD
HETATM   29  H   UNL     1     -42.702  62.141 -56.695  1.00  0.00     0.159 HD
HETATM   30  O   UNL     1     -40.677  61.093 -57.735  1.00  0.00    -0.266 OA
ENDBRANCH   8  26
TORSDOF 5
ENDMDL
MODEL 6
REMARK VINA RESULT:      -8.7      1.755      2.461
REMARK  5 active torsions:
REMARK  status: ('A' for Active; 'I' for Inactive)
REMARK    1  A    between atoms: C_3  and  C_4 
REMARK    2  A    between atoms: C_9  and  C_10 
REMARK    3  A    between atoms: C_10  and  C_11 
REMARK       I    between atoms: C_11  and  N_12 
REMARK    4  A    between atoms: N_12  and  C_13 
REMARK    5  A    between atoms: C_20  and  C_21 
REMARK       I    between atoms: C_21  and  N_22 
ROOT
HETATM    1  C   UNL     1     -42.600  56.741 -55.118  1.00  0.00     0.035 A 
HETATM    2  C   UNL     1     -42.842  56.287 -56.422  1.00  0.00     0.046 A 
HETATM    3  C   UNL     1     -43.724  57.004 -57.262  1.00  0.00     0.030 A 
HETATM    4  C   UNL     1     -44.339  58.147 -56.766  1.00  0.00     0.063 A 
HETATM    5  N   UNL     1     -45.116  58.614 -57.790  1.00  0.00    -0.277 N 
HETATM    6  H   UNL     1     -45.707  59.438 -57.786  1.00  0.00     0.189 HD
HETATM    7  N   UNL     1     -45.060  57.877 -58.912  1.00  0.00    -0.168 NA
HETATM    8  C   UNL     1     -44.203  56.878 -58.601  1.00  0.00     0.156 A 
HETATM    9  C   UNL     1     -44.127  58.628 -55.473  1.00  0.00     0.034 A 
HETATM   10  C   UNL     1     -43.243  57.901 -54.663  1.00  0.00     0.032 A 
ENDROOT
BRANCH   1  11
HETATM   11  N   UNL     1     -41.708  56.113 -54.222  1.00  0.00    -0.327 N 
HETATM   12  C   UNL     1     -41.987  55.076 -53.346  1.00  0.00     0.226 C 
HETATM   13  O   UNL     1     -43.095  54.609 -53.102  1.00  0.00    -0.273 OA
HETATM   14  H   UNL     1     -40.765  56.481 -54.201  1.00  0.00     0.169 HD
BRANCH  12  15
HETATM   15  C   UNL     1     -40.745  54.525 -52.660  1.00  0.00     0.141 C 
BRANCH  15  16
HETATM   16  C   UNL     1     -40.438  53.070 -52.933  1.00  0.00    -0.049 A 
HETATM   17  C   UNL     1     -40.250  52.199 -51.846  1.00  0.00     0.023 A 
HETATM   18  C   UNL     1     -39.887  50.855 -52.038  1.00  0.00     0.048 A 
HETATM   19  C   UNL     1     -39.719  50.380 -53.346  1.00  0.00     0.016 A 
HETATM   20  C   UNL     1     -39.889  51.237 -54.432  1.00  0.00     0.001 A 
HETATM   21  C   UNL     1     -40.234  52.575 -54.227  1.00  0.00     0.007 A 
BRANCH  18  22
HETATM   22  C   UNL     1     -39.690  49.948 -50.849  1.00  0.00     0.417 C 
HETATM   23  F   UNL     1     -38.396  49.568 -50.658  1.00  0.00    -0.166 F 
HETATM   24  F   UNL     1     -40.084  50.524 -49.678  1.00  0.00    -0.166 F 
HETATM   25  F   UNL     1     -40.407  48.795 -50.955  1.00  0.00    -0.166 F 
ENDBRANCH  18  22
ENDBRANCH  15  16
ENDBRANCH  12  15
ENDBRANCH   1  11
BRANCH   8  26
HETATM   26  C   UNL     1     -43.859  55.838 -59.582  1.00  0.00     0.270 C 
HETATM   27  N   UNL     1     -44.351  54.598 -59.277  1.00  0.00    -0.365 N 
HETATM   28  H   UNL     1     -44.899  54.487 -58.433  1.00  0.00     0.159 HD
HETATM   29  H   UNL     1     -44.168  53.824 -59.896  1.00  0.00     0.159 HD
HETATM   30  O   UNL     1     -43.195  56.025 -60.597  1.00  0.00    -0.266 OA
ENDBRANCH   8  26
TORSDOF 5
ENDMDL
MODEL 7
REMARK VINA RESULT:      -8.7      2.439      3.444
REMARK  5 active torsions:
REMARK  status: ('A' for Active; 'I' for Inactive)
REMARK    1  A    between atoms: C_3  and  C_4 
REMARK    2  A    between atoms: C_9  and  C_10 
REMARK    3  A    between atoms: C_10  and  C_11 
REMARK       I    between atoms: C_11  and  N_12 
REMARK    4  A    between atoms: N_12  and  C_13 
REMARK    5  A    between atoms: C_20  and  C_21 
REMARK       I    between atoms: C_21  and  N_22 
ROOT
HETATM    1  C   UNL     1     -43.195  56.385 -57.879  1.00  0.00     0.035 A 
HETATM    2  C   UNL     1     -44.255  57.302 -57.893  1.00  0.00     0.046 A 
HETATM    3  C   UNL     1     -45.178  57.289 -58.962  1.00  0.00     0.030 A 
HETATM    4  C   UNL     1     -45.007  56.364 -59.984  1.00  0.00     0.063 A 
HETATM    5  N   UNL     1     -46.036  56.590 -60.855  1.00  0.00    -0.277 N 
HETATM    6  H   UNL     1     -46.230  56.096 -61.719  1.00  0.00     0.189 HD
HETATM    7  N   UNL     1     -46.867  57.581 -60.490  1.00  0.00    -0.168 NA
HETATM    8  C   UNL     1     -46.350  58.023 -59.320  1.00  0.00     0.156 A 
HETATM    9  C   UNL     1     -43.962  55.438 -60.007  1.00  0.00     0.034 A 
HETATM   10  C   UNL     1     -43.063  55.469 -58.932  1.00  0.00     0.032 A 
ENDROOT
BRANCH   1  11
HETATM   11  N   UNL     1     -42.247  56.298 -56.835  1.00  0.00    -0.327 N 
HETATM   12  C   UNL     1     -42.273  55.442 -55.745  1.00  0.00     0.226 C 
HETATM   13  O   UNL     1     -43.196  54.699 -55.426  1.00  0.00    -0.273 OA
HETATM   14  H   UNL     1     -41.476  56.952 -56.877  1.00  0.00     0.169 HD
BRANCH  12  15
HETATM   15  C   UNL     1     -40.999  55.495 -54.915  1.00  0.00     0.141 C 
BRANCH  15  16
HETATM   16  C   UNL     1     -40.674  54.243 -54.133  1.00  0.00    -0.049 A 
HETATM   17  C   UNL     1     -40.725  54.286 -52.729  1.00  0.00     0.023 A 
HETATM   18  C   UNL     1     -40.359  53.176 -51.948  1.00  0.00     0.048 A 
HETATM   19  C   UNL     1     -39.944  52.003 -52.592  1.00  0.00     0.016 A 
HETATM   20  C   UNL     1     -39.876  51.951 -53.984  1.00  0.00     0.001 A 
HETATM   21  C   UNL     1     -40.227  53.067 -54.748  1.00  0.00     0.007 A 
BRANCH  18  22
HETATM   22  C   UNL     1     -40.422  53.257 -50.443  1.00  0.00     0.417 C 
HETATM   23  F   UNL     1     -41.544  53.871 -49.973  1.00  0.00    -0.166 F 
HETATM   24  F   UNL     1     -40.394  52.030 -49.849  1.00  0.00    -0.166 F 
HETATM   25  F   UNL     1     -39.371  53.946 -49.918  1.00  0.00    -0.166 F 
ENDBRANCH  18  22
ENDBRANCH  15  16
ENDBRANCH  12  15
ENDBRANCH   1  11
BRANCH   8  26
HETATM   26  C   UNL     1     -46.983  59.121 -58.576  1.00  0.00     0.270 C 
HETATM   27  N   UNL     1     -47.623  58.726 -57.433  1.00  0.00    -0.365 N 
HETATM   28  H   UNL     1     -47.613  57.744 -57.185  1.00  0.00     0.159 HD
HETATM   29  H   UNL     1     -48.082  59.413 -56.856  1.00  0.00     0.159 HD
HETATM   30  O   UNL     1     -46.960  60.300 -58.914  1.00  0.00    -0.266 OA
ENDBRANCH   8  26
TORSDOF 5
ENDMDL
MODEL 8
REMARK VINA RESULT:      -8.7      4.195      8.649
REMARK  5 active torsions:
REMARK  status: ('A' for Active; 'I' for Inactive)
REMARK    1  A    between atoms: C_3  and  C_4 
REMARK    2  A    between atoms: C_9  and  C_10 
REMARK    3  A    between atoms: C_10  and  C_11 
REMARK       I    between atoms: C_11  and  N_12 
REMARK    4  A    between atoms: N_12  and  C_13 
REMARK    5  A    between atoms: C_20  and  C_21 
REMARK       I    between atoms: C_21  and  N_22 
ROOT
HETATM    1  C   UNL     1     -41.043  54.683 -54.255  1.00  0.00     0.035 A 
HETATM    2  C   UNL     1     -41.138  54.686 -52.856  1.00  0.00     0.046 A 
HETATM    3  C   UNL     1     -40.689  53.566 -52.121  1.00  0.00     0.030 A 
HETATM    4  C   UNL     1     -40.165  52.479 -52.810  1.00  0.00     0.063 A 
HETATM    5  N   UNL     1     -39.820  51.571 -51.848  1.00  0.00    -0.277 N 
HETATM    6  H   UNL     1     -39.404  50.658 -51.986  1.00  0.00     0.189 HD
HETATM    7  N   UNL     1     -40.072  51.971 -50.590  1.00  0.00    -0.168 NA
HETATM    8  C   UNL     1     -40.608  53.204 -50.742  1.00  0.00     0.156 A 
HETATM    9  C   UNL     1     -40.058  52.438 -54.202  1.00  0.00     0.034 A 
HETATM   10  C   UNL     1     -40.506  53.564 -54.907  1.00  0.00     0.032 A 
ENDROOT
BRANCH   1  11
HETATM   11  N   UNL     1     -41.430  55.770 -55.070  1.00  0.00    -0.327 N 
HETATM   12  C   UNL     1     -42.675  56.378 -55.124  1.00  0.00     0.226 C 
HETATM   13  O   UNL     1     -43.698  55.991 -54.568  1.00  0.00    -0.273 OA
HETATM   14  H   UNL     1     -40.725  56.127 -55.702  1.00  0.00     0.169 HD
BRANCH  12  15
HETATM   15  C   UNL     1     -42.687  57.635 -55.982  1.00  0.00     0.141 C 
BRANCH  15  16
HETATM   16  C   UNL     1     -42.744  57.407 -57.476  1.00  0.00    -0.049 A 
HETATM   17  C   UNL     1     -43.625  56.435 -57.981  1.00  0.00     0.023 A 
HETATM   18  C   UNL     1     -43.665  56.126 -59.352  1.00  0.00     0.048 A 
HETATM   19  C   UNL     1     -42.812  56.812 -60.226  1.00  0.00     0.016 A 
HETATM   20  C   UNL     1     -41.924  57.768 -59.735  1.00  0.00     0.001 A 
HETATM   21  C   UNL     1     -41.882  58.055 -58.369  1.00  0.00     0.007 A 
BRANCH  18  22
HETATM   22  C   UNL     1     -44.620  55.075 -59.861  1.00  0.00     0.417 C 
HETATM   23  F   UNL     1     -45.933  55.402 -59.700  1.00  0.00    -0.166 F 
HETATM   24  F   UNL     1     -44.462  54.821 -61.191  1.00  0.00    -0.166 F 
HETATM   25  F   UNL     1     -44.454  53.878 -59.233  1.00  0.00    -0.166 F 
ENDBRANCH  18  22
ENDBRANCH  15  16
ENDBRANCH  12  15
ENDBRANCH   1  11
BRANCH   8  26
HETATM   26  C   UNL     1     -41.023  54.001 -49.580  1.00  0.00     0.270 C 
HETATM   27  N   UNL     1     -40.040  54.176 -48.643  1.00  0.00    -0.365 N 
HETATM   28  H   UNL     1     -39.131  53.765 -48.810  1.00  0.00     0.159 HD
HETATM   29  H   UNL     1     -40.234  54.714 -47.813  1.00  0.00     0.159 HD
HETATM   30  O   UNL     1     -42.139  54.487 -49.426  1.00  0.00    -0.266 OA
ENDBRANCH   8  26
TORSDOF 5
ENDMDL
MODEL 9
REMARK VINA RESULT:      -8.5      4.198      5.301
REMARK  5 active torsions:
REMARK  status: ('A' for Active; 'I' for Inactive)
REMARK    1  A    between atoms: C_3  and  C_4 
REMARK    2  A    between atoms: C_9  and  C_10 
REMARK    3  A    between atoms: C_10  and  C_11 
REMARK       I    between atoms: C_11  and  N_12 
REMARK    4  A    between atoms: N_12  and  C_13 
REMARK    5  A    between atoms: C_20  and  C_21 
REMARK       I    between atoms: C_21  and  N_22 
ROOT
HETATM    1  C   UNL     1     -43.682  56.968 -53.142  1.00  0.00     0.035 A 
HETATM    2  C   UNL     1     -44.169  58.154 -53.708  1.00  0.00     0.046 A 
HETATM    3  C   UNL     1     -44.962  59.028 -52.930  1.00  0.00     0.030 A 
HETATM    4  C   UNL     1     -45.245  58.683 -51.615  1.00  0.00     0.063 A 
HETATM    5  N   UNL     1     -46.012  59.705 -51.129  1.00  0.00    -0.277 N 
HETATM    6  H   UNL     1     -46.401  59.792 -50.197  1.00  0.00     0.189 HD
HETATM    7  N   UNL     1     -46.253  60.689 -52.012  1.00  0.00    -0.168 NA
HETATM    8  C   UNL     1     -45.609  60.285 -53.131  1.00  0.00     0.156 A 
HETATM    9  C   UNL     1     -44.781  57.509 -51.018  1.00  0.00     0.034 A 
HETATM   10  C   UNL     1     -43.993  56.663 -51.809  1.00  0.00     0.032 A 
ENDROOT
BRANCH   1  11
HETATM   11  N   UNL     1     -42.853  56.054 -53.829  1.00  0.00    -0.327 N 
HETATM   12  C   UNL     1     -41.484  56.146 -54.028  1.00  0.00     0.226 C 
HETATM   13  O   UNL     1     -40.773  57.107 -53.754  1.00  0.00    -0.273 OA
HETATM   14  H   UNL     1     -43.317  55.256 -54.244  1.00  0.00     0.169 HD
BRANCH  12  15
HETATM   15  C   UNL     1     -40.888  54.894 -54.655  1.00  0.00     0.141 C 
BRANCH  15  16
HETATM   16  C   UNL     1     -40.483  53.806 -53.685  1.00  0.00    -0.049 A 
HETATM   17  C   UNL     1     -40.301  52.499 -54.168  1.00  0.00     0.023 A 
HETATM   18  C   UNL     1     -40.000  51.434 -53.302  1.00  0.00     0.048 A 
HETATM   19  C   UNL     1     -39.873  51.691 -51.931  1.00  0.00     0.016 A 
HETATM   20  C   UNL     1     -40.065  52.981 -51.437  1.00  0.00     0.001 A 
HETATM   21  C   UNL     1     -40.379  54.029 -52.306  1.00  0.00     0.007 A 
BRANCH  18  22
HETATM   22  C   UNL     1     -39.814  50.042 -53.853  1.00  0.00     0.417 C 
HETATM   23  F   UNL     1     -38.703  49.902 -54.628  1.00  0.00    -0.166 F 
HETATM   24  F   UNL     1     -39.705  49.099 -52.874  1.00  0.00    -0.166 F 
HETATM   25  F   UNL     1     -40.863  49.649 -54.629  1.00  0.00    -0.166 F 
ENDBRANCH  18  22
ENDBRANCH  15  16
ENDBRANCH  12  15
ENDBRANCH   1  11
BRANCH   8  26
HETATM   26  C   UNL     1     -45.623  61.102 -54.352  1.00  0.00     0.270 C 
HETATM   27  N   UNL     1     -46.877  61.392 -54.817  1.00  0.00    -0.365 N 
HETATM   28  H   UNL     1     -47.678  61.041 -54.306  1.00  0.00     0.159 HD
HETATM   29  H   UNL     1     -46.983  61.952 -55.649  1.00  0.00     0.159 HD
HETATM   30  O   UNL     1     -44.622  61.511 -54.932  1.00  0.00    -0.266 OA
ENDBRANCH   8  26
TORSDOF 5
ENDMDL
MODEL 10
REMARK VINA RESULT:      -8.4      2.651      3.254
REMARK  5 active torsions:
REMARK  status: ('A' for Active; 'I' for Inactive)
REMARK    1  A    between atoms: C_3  and  C_4 
REMARK    2  A    between atoms: C_9  and  C_10 
REMARK    3  A    between atoms: C_10  and  C_11 
REMARK       I    between atoms: C_11  and  N_12 
REMARK    4  A    between atoms: N_12  and  C_13 
REMARK    5  A    between atoms: C_20  and  C_21 
REMARK       I    between atoms: C_21  and  N_22 
ROOT
HETATM    1  C   UNL     1     -43.210  56.699 -55.884  1.00  0.00     0.035 A 
HETATM    2  C   UNL     1     -43.527  57.039 -57.207  1.00  0.00     0.046 A 
HETATM    3  C   UNL     1     -44.667  57.829 -57.473  1.00  0.00     0.030 A 
HETATM    4  C   UNL     1     -45.456  58.248 -56.408  1.00  0.00     0.063 A 
HETATM    5  N   UNL     1     -46.463  58.983 -56.970  1.00  0.00    -0.277 N 
HETATM    6  H   UNL     1     -47.225  59.448 -56.490  1.00  0.00     0.189 HD
HETATM    7  N   UNL     1     -46.400  59.083 -58.308  1.00  0.00    -0.168 NA
HETATM    8  C   UNL     1     -45.294  58.375 -58.635  1.00  0.00     0.156 A 
HETATM    9  C   UNL     1     -45.175  57.926 -55.079  1.00  0.00     0.034 A 
HETATM   10  C   UNL     1     -44.035  57.146 -54.842  1.00  0.00     0.032 A 
ENDROOT
BRANCH   1  11
HETATM   11  N   UNL     1     -42.072  55.947 -55.518  1.00  0.00    -0.327 N 
HETATM   12  C   UNL     1     -41.991  54.573 -55.350  1.00  0.00     0.226 C 
HETATM   13  O   UNL     1     -42.929  53.783 -55.362  1.00  0.00    -0.273 OA
HETATM   14  H   UNL     1     -41.229  56.475 -55.334  1.00  0.00     0.169 HD
BRANCH  12  15
HETATM   15  C   UNL     1     -40.567  54.083 -55.131  1.00  0.00     0.141 C 
BRANCH  15  16
HETATM   16  C   UNL     1     -40.350  53.236 -53.898  1.00  0.00    -0.049 A 
HETATM   17  C   UNL     1     -40.580  53.805 -52.633  1.00  0.00     0.023 A 
HETATM   18  C   UNL     1     -40.320  53.091 -51.451  1.00  0.00     0.048 A 
HETATM   19  C   UNL     1     -39.830  51.781 -51.544  1.00  0.00     0.016 A 
HETATM   20  C   UNL     1     -39.585  51.210 -52.792  1.00  0.00     0.001 A 
HETATM   21  C   UNL     1     -39.832  51.936 -53.960  1.00  0.00     0.007 A 
BRANCH  18  22
HETATM   22  C   UNL     1     -40.575  53.732 -50.109  1.00  0.00     0.417 C 
HETATM   23  F   UNL     1     -40.291  52.923 -49.051  1.00  0.00    -0.166 F 
HETATM   24  F   UNL     1     -39.838  54.863 -49.919  1.00  0.00    -0.166 F 
HETATM   25  F   UNL     1     -41.876  54.108 -49.955  1.00  0.00    -0.166 F 
ENDBRANCH  18  22
ENDBRANCH  15  16
ENDBRANCH  12  15
ENDBRANCH   1  11
BRANCH   8  26
HETATM   26  C   UNL     1     -44.862  58.242 -60.033  1.00  0.00     0.270 C 
HETATM   27  N   UNL     1     -45.310  57.105 -60.650  1.00  0.00    -0.365 N 
HETATM   28  H   UNL     1     -45.888  56.462 -60.123  1.00  0.00     0.159 HD
HETATM   29  H   UNL     1     -45.066  56.931 -61.612  1.00  0.00     0.159 HD
HETATM   30  O   UNL     1     -44.165  59.055 -60.631  1.00  0.00    -0.266 OA
ENDBRANCH   8  26
TORSDOF 5
ENDMDL
