MODEL 1
REMARK VINA RESULT:      -8.0      0.000      0.000
REMARK  8 active torsions:
REMARK  status: ('A' for Active; 'I' for Inactive)
REMARK    1  A    between atoms: C_6  and  C_7 
REMARK       I    between atoms: C_7  and  N_8 
REMARK    2  A    between atoms: N_8  and  C_9 
REMARK    3  A    between atoms: C_9  and  C_10 
REMARK    4  A    between atoms: N_15  and  C_17 
REMARK    5  A    between atoms: C_17  and  C_18 
REMARK    6  A    between atoms: C_21  and  C_22 
REMARK    7  A    between atoms: C_23  and  C_24 
REMARK    8  A    between atoms: C_24  and  O_25 
ROOT
HETATM    1  C   UNL     1     -41.664  55.100 -51.282  1.00  0.00     0.140 C 
HETATM    2  O   UNL     1     -41.904  55.739 -52.557  1.00  0.00    -0.373 OA
HETATM    3  C   UNL     1     -41.743  54.741 -53.590  1.00  0.00     0.064 C 
HETATM    4  C   UNL     1     -40.813  55.335 -54.652  1.00  0.00     0.066 C 
HETATM    5  C   UNL     1     -41.445  56.545 -55.326  1.00  0.00     0.238 C 
HETATM    6  N   UNL     1     -42.786  56.188 -55.924  1.00  0.00    -0.067 N 
HETATM    7  H   UNL     1     -43.187  57.084 -56.226  1.00  0.00     0.280 HD
HETATM    8  C   UNL     1     -43.725  55.653 -54.871  1.00  0.00     0.238 C 
HETATM    9  C   UNL     1     -43.125  54.436 -54.178  1.00  0.00     0.066 C 
HETATM   10  C   UNL     1     -41.129  53.508 -52.915  1.00  0.00     0.041 C 
HETATM   11  C   UNL     1     -40.621  54.045 -51.596  1.00  0.00     0.036 C 
ENDROOT
BRANCH   1  12
HETATM   12  C   UNL     1     -41.194  56.108 -50.228  1.00  0.00     0.155 C 
BRANCH  12  13
HETATM   13  N   UNL     1     -41.797  57.424 -50.355  1.00  0.00    -0.353 N 
HETATM   14  C   UNL     1     -41.072  58.531 -50.743  1.00  0.00     0.270 C 
HETATM   15  O   UNL     1     -39.852  58.482 -50.867  1.00  0.00    -0.266 OA
HETATM   16  H   UNL     1     -42.803  57.482 -50.346  1.00  0.00     0.162 HD
BRANCH  14  17
HETATM   17  C   UNL     1     -41.851  59.728 -50.973  1.00  0.00     0.122 A 
HETATM   18  N   UNL     1     -42.189  60.205 -52.221  1.00  0.00    -0.269 N 
HETATM   19  N   UNL     1     -42.901  61.347 -52.192  1.00  0.00    -0.177 NA
HETATM   20  C   UNL     1     -41.858  59.629 -53.506  1.00  0.00     0.180 C 
HETATM   21  C   UNL     1     -43.080  61.595 -50.894  1.00  0.00     0.053 A 
HETATM   22  C   UNL     1     -43.875  62.765 -50.448  1.00  0.00     0.072 C 
HETATM   23  C   UNL     1     -42.436  60.626 -50.094  1.00  0.00     0.065 A 
ENDBRANCH  14  17
ENDBRANCH  12  13
ENDBRANCH   1  12
BRANCH   6  24
HETATM   24  C   UNL     1     -42.747  55.343 -57.182  1.00  0.00     0.273 C 
BRANCH  24  25
HETATM   25  C   UNL     1     -43.791  55.724 -58.195  1.00  0.00    -0.033 A 
HETATM   26  C   UNL     1     -44.419  56.978 -58.127  1.00  0.00     0.010 A 
HETATM   27  C   UNL     1     -45.426  57.317 -59.033  1.00  0.00     0.021 A 
HETATM   28  C   UNL     1     -45.816  56.410 -60.018  1.00  0.00     0.017 A 
HETATM   29  C   UNL     1     -45.188  55.167 -60.105  1.00  0.00     0.021 A 
HETATM   30  C   UNL     1     -44.180  54.823 -59.200  1.00  0.00     0.010 A 
BRANCH  28  31
HETATM   31  C   UNL     1     -46.862  56.751 -60.929  1.00  0.00    -0.064 C 
HETATM   32  C   UNL     1     -47.742  57.027 -61.699  1.00  0.00    -0.064 C 
BRANCH  32  33
HETATM   33  C   UNL     1     -48.815  57.361 -62.652  1.00  0.00     0.114 C 
HETATM   34  C   UNL     1     -49.101  58.861 -62.635  1.00  0.00     0.060 C 
HETATM   35  C   UNL     1     -48.445  56.898 -64.059  1.00  0.00     0.060 C 
BRANCH  33  36
HETATM   36  O   UNL     1     -50.000  56.667 -62.266  1.00  0.00    -0.378 OA
HETATM   37  H   UNL     1     -50.650  56.788 -62.977  1.00  0.00     0.211 HD
ENDBRANCH  33  36
ENDBRANCH  32  33
ENDBRANCH  28  31
ENDBRANCH  24  25
ENDBRANCH   6  24
TORSDOF 8
ENDMDL
MODEL 2
REMARK VINA RESULT:      -7.9      5.807      9.077
REMARK  8 active torsions:
REMARK  status: ('A' for Active; 'I' for Inactive)
REMARK    1  A    between atoms: C_6  and  C_7 
REMARK       I    between atoms: C_7  and  N_8 
REMARK    2  A    between atoms: N_8  and  C_9 
REMARK    3  A    between atoms: C_9  and  C_10 
REMARK    4  A    between atoms: N_15  and  C_17 
REMARK    5  A    between atoms: C_17  and  C_18 
REMARK    6  A    between atoms: C_21  and  C_22 
REMARK    7  A    between atoms: C_23  and  C_24 
REMARK    8  A    between atoms: C_24  and  O_25 
ROOT
HETATM    1  C   UNL     1     -45.368  62.335 -50.213  1.00  0.00     0.140 C 
HETATM    2  O   UNL     1     -44.718  61.054 -50.386  1.00  0.00    -0.373 OA
HETATM    3  C   UNL     1     -44.239  60.981 -51.747  1.00  0.00     0.064 C 
HETATM    4  C   UNL     1     -44.708  59.642 -52.322  1.00  0.00     0.066 C 
HETATM    5  C   UNL     1     -44.073  58.471 -51.584  1.00  0.00     0.238 C 
HETATM    6  N   UNL     1     -42.566  58.570 -51.615  1.00  0.00    -0.067 N 
HETATM    7  H   UNL     1     -42.239  57.828 -50.985  1.00  0.00     0.280 HD
HETATM    8  C   UNL     1     -42.094  59.866 -51.001  1.00  0.00     0.238 C 
HETATM    9  C   UNL     1     -42.708  61.061 -51.719  1.00  0.00     0.066 C 
HETATM   10  C   UNL     1     -44.855  62.172 -52.493  1.00  0.00     0.041 C 
HETATM   11  C   UNL     1     -45.968  62.624 -51.575  1.00  0.00     0.036 C 
ENDROOT
BRANCH   1  12
HETATM   12  C   UNL     1     -46.417  62.287 -49.097  1.00  0.00     0.155 C 
BRANCH  12  13
HETATM   13  N   UNL     1     -45.926  62.727 -47.802  1.00  0.00    -0.353 N 
HETATM   14  C   UNL     1     -46.254  62.076 -46.631  1.00  0.00     0.270 C 
HETATM   15  O   UNL     1     -47.088  61.176 -46.615  1.00  0.00    -0.266 OA
HETATM   16  H   UNL     1     -45.178  63.402 -47.788  1.00  0.00     0.162 HD
BRANCH  14  17
HETATM   17  C   UNL     1     -45.559  62.543 -45.452  1.00  0.00     0.122 A 
HETATM   18  N   UNL     1     -45.888  63.688 -44.760  1.00  0.00    -0.269 N 
HETATM   19  N   UNL     1     -45.088  63.935 -43.705  1.00  0.00    -0.177 NA
HETATM   20  C   UNL     1     -46.956  64.619 -45.050  1.00  0.00     0.180 C 
HETATM   21  C   UNL     1     -44.250  62.898 -43.673  1.00  0.00     0.053 A 
HETATM   22  C   UNL     1     -43.230  62.782 -42.603  1.00  0.00     0.072 C 
HETATM   23  C   UNL     1     -44.491  62.012 -44.745  1.00  0.00     0.065 A 
ENDBRANCH  14  17
ENDBRANCH  12  13
ENDBRANCH   1  12
BRANCH   6  24
HETATM   24  C   UNL     1     -41.908  58.261 -52.945  1.00  0.00     0.273 C 
BRANCH  24  25
HETATM   25  C   UNL     1     -41.483  56.824 -53.087  1.00  0.00    -0.033 A 
HETATM   26  C   UNL     1     -41.144  56.308 -54.348  1.00  0.00     0.010 A 
HETATM   27  C   UNL     1     -40.800  54.963 -54.495  1.00  0.00     0.021 A 
HETATM   28  C   UNL     1     -40.788  54.119 -53.385  1.00  0.00     0.017 A 
HETATM   29  C   UNL     1     -41.107  54.625 -52.124  1.00  0.00     0.021 A 
HETATM   30  C   UNL     1     -41.453  55.970 -51.973  1.00  0.00     0.010 A 
BRANCH  28  31
HETATM   31  C   UNL     1     -40.457  52.738 -53.542  1.00  0.00    -0.064 C 
HETATM   32  C   UNL     1     -40.189  51.573 -53.668  1.00  0.00    -0.064 C 
BRANCH  32  33
HETATM   33  C   UNL     1     -39.862  50.145 -53.811  1.00  0.00     0.114 C 
HETATM   34  C   UNL     1     -38.580  49.966 -54.622  1.00  0.00     0.060 C 
HETATM   35  C   UNL     1     -39.730  49.485 -52.442  1.00  0.00     0.060 C 
BRANCH  33  36
HETATM   36  O   UNL     1     -40.930  49.500 -54.502  1.00  0.00    -0.378 OA
HETATM   37  H   UNL     1     -41.737  49.640 -53.981  1.00  0.00     0.211 HD
ENDBRANCH  33  36
ENDBRANCH  32  33
ENDBRANCH  28  31
ENDBRANCH  24  25
ENDBRANCH   6  24
TORSDOF 8
ENDMDL
MODEL 3
REMARK VINA RESULT:      -7.6      2.656      6.103
REMARK  8 active torsions:
REMARK  status: ('A' for Active; 'I' for Inactive)
REMARK    1  A    between atoms: C_6  and  C_7 
REMARK       I    between atoms: C_7  and  N_8 
REMARK    2  A    between atoms: N_8  and  C_9 
REMARK    3  A    between atoms: C_9  and  C_10 
REMARK    4  A    between atoms: N_15  and  C_17 
REMARK    5  A    between atoms: C_17  and  C_18 
REMARK    6  A    between atoms: C_21  and  C_22 
REMARK    7  A    between atoms: C_23  and  C_24 
REMARK    8  A    between atoms: C_24  and  O_25 
ROOT
HETATM    1  C   UNL     1     -41.416  55.991 -49.842  1.00  0.00     0.140 C 
HETATM    2  O   UNL     1     -41.062  56.946 -50.870  1.00  0.00    -0.373 OA
HETATM    3  C   UNL     1     -42.285  57.425 -51.471  1.00  0.00     0.064 C 
HETATM    4  C   UNL     1     -42.119  57.311 -52.989  1.00  0.00     0.066 C 
HETATM    5  C   UNL     1     -41.012  58.226 -53.494  1.00  0.00     0.238 C 
HETATM    6  N   UNL     1     -41.271  59.658 -53.087  1.00  0.00    -0.067 N 
HETATM    7  H   UNL     1     -40.416  60.165 -53.347  1.00  0.00     0.280 HD
HETATM    8  C   UNL     1     -41.381  59.784 -51.587  1.00  0.00     0.238 C 
HETATM    9  C   UNL     1     -42.485  58.884 -51.048  1.00  0.00     0.066 C 
HETATM   10  C   UNL     1     -43.412  56.523 -50.948  1.00  0.00     0.041 C 
HETATM   11  C   UNL     1     -42.674  55.334 -50.377  1.00  0.00     0.036 C 
ENDROOT
BRANCH   1  12
HETATM   12  C   UNL     1     -40.283  54.992 -49.589  1.00  0.00     0.155 C 
BRANCH  12  13
HETATM   13  N   UNL     1     -40.000  54.117 -50.714  1.00  0.00    -0.353 N 
HETATM   14  C   UNL     1     -40.272  52.765 -50.682  1.00  0.00     0.270 C 
HETATM   15  O   UNL     1     -40.640  52.214 -49.648  1.00  0.00    -0.266 OA
HETATM   16  H   UNL     1     -39.782  54.546 -51.599  1.00  0.00     0.162 HD
BRANCH  14  17
HETATM   17  C   UNL     1     -40.080  52.068 -51.934  1.00  0.00     0.122 A 
HETATM   18  N   UNL     1     -40.482  52.551 -53.160  1.00  0.00    -0.269 N 
HETATM   19  N   UNL     1     -40.216  51.719 -54.186  1.00  0.00    -0.177 NA
HETATM   20  C   UNL     1     -41.143  53.806 -53.441  1.00  0.00     0.180 C 
HETATM   21  C   UNL     1     -39.578  50.692 -53.624  1.00  0.00     0.053 A 
HETATM   22  C   UNL     1     -39.070  49.571 -54.453  1.00  0.00     0.072 C 
HETATM   23  C   UNL     1     -39.479  50.853 -52.225  1.00  0.00     0.065 A 
ENDBRANCH  14  17
ENDBRANCH  12  13
ENDBRANCH   1  12
BRANCH   6  24
HETATM   24  C   UNL     1     -42.380  60.370 -53.834  1.00  0.00     0.273 C 
BRANCH  24  25
HETATM   25  C   UNL     1     -42.910  59.594 -55.009  1.00  0.00    -0.033 A 
HETATM   26  C   UNL     1     -44.191  59.022 -54.959  1.00  0.00     0.010 A 
HETATM   27  C   UNL     1     -44.668  58.256 -56.025  1.00  0.00     0.021 A 
HETATM   28  C   UNL     1     -43.874  58.055 -57.153  1.00  0.00     0.017 A 
HETATM   29  C   UNL     1     -42.605  58.632 -57.220  1.00  0.00     0.021 A 
HETATM   30  C   UNL     1     -42.123  59.399 -56.156  1.00  0.00     0.010 A 
BRANCH  28  31
HETATM   31  C   UNL     1     -44.356  57.253 -58.231  1.00  0.00    -0.064 C 
HETATM   32  C   UNL     1     -44.768  56.587 -59.143  1.00  0.00    -0.064 C 
BRANCH  32  33
HETATM   33  C   UNL     1     -45.284  55.774 -60.258  1.00  0.00     0.114 C 
HETATM   34  C   UNL     1     -45.087  54.286 -59.974  1.00  0.00     0.060 C 
HETATM   35  C   UNL     1     -46.756  56.085 -60.512  1.00  0.00     0.060 C 
BRANCH  33  36
HETATM   36  O   UNL     1     -44.560  56.110 -61.440  1.00  0.00    -0.378 OA
HETATM   37  H   UNL     1     -43.856  56.728 -61.182  1.00  0.00     0.211 HD
ENDBRANCH  33  36
ENDBRANCH  32  33
ENDBRANCH  28  31
ENDBRANCH  24  25
ENDBRANCH   6  24
TORSDOF 8
ENDMDL
MODEL 4
REMARK VINA RESULT:      -7.6      5.645      9.315
REMARK  8 active torsions:
REMARK  status: ('A' for Active; 'I' for Inactive)
REMARK    1  A    between atoms: C_6  and  C_7 
REMARK       I    between atoms: C_7  and  N_8 
REMARK    2  A    between atoms: N_8  and  C_9 
REMARK    3  A    between atoms: C_9  and  C_10 
REMARK    4  A    between atoms: N_15  and  C_17 
REMARK    5  A    between atoms: C_17  and  C_18 
REMARK    6  A    between atoms: C_21  and  C_22 
REMARK    7  A    between atoms: C_23  and  C_24 
REMARK    8  A    between atoms: C_24  and  O_25 
ROOT
HETATM    1  C   UNL     1     -46.103  63.011 -49.679  1.00  0.00     0.140 C 
HETATM    2  O   UNL     1     -45.646  61.653 -49.877  1.00  0.00    -0.373 OA
HETATM    3  C   UNL     1     -45.565  61.415 -51.300  1.00  0.00     0.064 C 
HETATM    4  C   UNL     1     -46.295  60.098 -51.581  1.00  0.00     0.066 C 
HETATM    5  C   UNL     1     -45.592  58.924 -50.914  1.00  0.00     0.238 C 
HETATM    6  N   UNL     1     -44.148  58.842 -51.351  1.00  0.00    -0.067 N 
HETATM    7  H   UNL     1     -43.731  58.119 -50.752  1.00  0.00     0.280 HD
HETATM    8  C   UNL     1     -43.410  60.119 -51.027  1.00  0.00     0.238 C 
HETATM    9  C   UNL     1     -44.084  61.316 -51.684  1.00  0.00     0.066 C 
HETATM   10  C   UNL     1     -46.249  62.607 -51.983  1.00  0.00     0.041 C 
HETATM   11  C   UNL     1     -47.023  63.259 -50.860  1.00  0.00     0.036 C 
ENDROOT
BRANCH   1  12
HETATM   12  C   UNL     1     -46.807  63.177 -48.329  1.00  0.00     0.155 C 
BRANCH  12  13
HETATM   13  N   UNL     1     -45.906  63.197 -47.189  1.00  0.00    -0.353 N 
HETATM   14  C   UNL     1     -46.365  63.283 -45.891  1.00  0.00     0.270 C 
HETATM   15  O   UNL     1     -47.550  63.484 -45.646  1.00  0.00    -0.266 OA
HETATM   16  H   UNL     1     -44.943  62.948 -47.347  1.00  0.00     0.162 HD
BRANCH  14  17
HETATM   17  C   UNL     1     -45.352  63.132 -44.869  1.00  0.00     0.122 A 
HETATM   18  N   UNL     1     -44.682  61.957 -44.609  1.00  0.00    -0.269 N 
HETATM   19  N   UNL     1     -43.797  62.048 -43.598  1.00  0.00    -0.177 NA
HETATM   20  C   UNL     1     -44.835  60.685 -45.281  1.00  0.00     0.180 C 
HETATM   21  C   UNL     1     -43.852  63.326 -43.222  1.00  0.00     0.053 A 
HETATM   22  C   UNL     1     -42.970  63.837 -42.145  1.00  0.00     0.072 C 
HETATM   23  C   UNL     1     -44.812  64.040 -43.971  1.00  0.00     0.065 A 
ENDBRANCH  14  17
ENDBRANCH  12  13
ENDBRANCH   1  12
BRANCH   6  24
HETATM   24  C   UNL     1     -43.910  58.352 -52.765  1.00  0.00     0.273 C 
BRANCH  24  25
HETATM   25  C   UNL     1     -43.212  57.021 -52.830  1.00  0.00    -0.033 A 
HETATM   26  C   UNL     1     -42.055  56.790 -52.069  1.00  0.00     0.010 A 
HETATM   27  C   UNL     1     -41.373  55.575 -52.165  1.00  0.00     0.021 A 
HETATM   28  C   UNL     1     -41.838  54.577 -53.020  1.00  0.00     0.017 A 
HETATM   29  C   UNL     1     -42.996  54.789 -53.769  1.00  0.00     0.021 A 
HETATM   30  C   UNL     1     -43.682  56.003 -53.677  1.00  0.00     0.010 A 
BRANCH  28  31
HETATM   31  C   UNL     1     -41.126  53.345 -53.133  1.00  0.00    -0.064 C 
HETATM   32  C   UNL     1     -40.517  52.313 -53.234  1.00  0.00    -0.064 C 
BRANCH  32  33
HETATM   33  C   UNL     1     -39.769  51.051 -53.368  1.00  0.00     0.114 C 
HETATM   34  C   UNL     1     -39.545  50.411 -51.999  1.00  0.00     0.060 C 
HETATM   35  C   UNL     1     -40.502  50.090 -54.299  1.00  0.00     0.060 C 
BRANCH  33  36
HETATM   36  O   UNL     1     -38.498  51.334 -53.950  1.00  0.00    -0.378 OA
HETATM   37  H   UNL     1     -38.065  50.483 -54.126  1.00  0.00     0.211 HD
ENDBRANCH  33  36
ENDBRANCH  32  33
ENDBRANCH  28  31
ENDBRANCH  24  25
ENDBRANCH   6  24
TORSDOF 8
ENDMDL
MODEL 5
REMARK VINA RESULT:      -7.4      4.809      7.094
REMARK  8 active torsions:
REMARK  status: ('A' for Active; 'I' for Inactive)
REMARK    1  A    between atoms: C_6  and  C_7 
REMARK       I    between atoms: C_7  and  N_8 
REMARK    2  A    between atoms: N_8  and  C_9 
REMARK    3  A    between atoms: C_9  and  C_10 
REMARK    4  A    between atoms: N_15  and  C_17 
REMARK    5  A    between atoms: C_17  and  C_18 
REMARK    6  A    between atoms: C_21  and  C_22 
REMARK    7  A    between atoms: C_23  and  C_24 
REMARK    8  A    between atoms: C_24  and  O_25 
ROOT
HETATM    1  C   UNL     1     -43.246  56.598 -51.076  1.00  0.00     0.140 C 
HETATM    2  O   UNL     1     -43.107  56.764 -52.506  1.00  0.00    -0.373 OA
HETATM    3  C   UNL     1     -43.977  57.844 -52.914  1.00  0.00     0.064 C 
HETATM    4  C   UNL     1     -44.794  57.341 -54.108  1.00  0.00     0.066 C 
HETATM    5  C   UNL     1     -43.900  57.042 -55.303  1.00  0.00     0.238 C 
HETATM    6  N   UNL     1     -43.085  58.257 -55.682  1.00  0.00    -0.067 N 
HETATM    7  H   UNL     1     -42.425  57.920 -56.394  1.00  0.00     0.280 HD
HETATM    8  C   UNL     1     -42.236  58.724 -54.525  1.00  0.00     0.238 C 
HETATM    9  C   UNL     1     -43.101  59.038 -53.311  1.00  0.00     0.066 C 
HETATM   10  C   UNL     1     -44.866  58.169 -51.707  1.00  0.00     0.041 C 
HETATM   11  C   UNL     1     -44.693  56.967 -50.808  1.00  0.00     0.036 C 
ENDROOT
BRANCH   1  12
HETATM   12  C   UNL     1     -42.903  55.170 -50.639  1.00  0.00     0.155 C 
BRANCH  12  13
HETATM   13  N   UNL     1     -42.291  54.362 -51.681  1.00  0.00    -0.353 N 
HETATM   14  C   UNL     1     -40.954  54.023 -51.659  1.00  0.00     0.270 C 
HETATM   15  O   UNL     1     -40.189  54.505 -50.828  1.00  0.00    -0.266 OA
HETATM   16  H   UNL     1     -42.902  53.883 -52.323  1.00  0.00     0.162 HD
BRANCH  14  17
HETATM   17  C   UNL     1     -40.539  53.087 -52.679  1.00  0.00     0.122 A 
HETATM   18  N   UNL     1     -40.312  53.426 -53.995  1.00  0.00    -0.269 N 
HETATM   19  N   UNL     1     -39.953  52.385 -54.771  1.00  0.00    -0.177 NA
HETATM   20  C   UNL     1     -40.427  54.733 -54.604  1.00  0.00     0.180 C 
HETATM   21  C   UNL     1     -39.891  51.351 -53.931  1.00  0.00     0.053 A 
HETATM   22  C   UNL     1     -39.474  50.010 -54.410  1.00  0.00     0.072 C 
HETATM   23  C   UNL     1     -40.260  51.730 -52.622  1.00  0.00     0.065 A 
ENDBRANCH  14  17
ENDBRANCH  12  13
ENDBRANCH   1  12
BRANCH   6  24
HETATM   24  C   UNL     1     -43.844  59.378 -56.363  1.00  0.00     0.273 C 
BRANCH  24  25
HETATM   25  C   UNL     1     -43.075  60.037 -57.475  1.00  0.00    -0.033 A 
HETATM   26  C   UNL     1     -41.869  60.703 -57.203  1.00  0.00     0.010 A 
HETATM   27  C   UNL     1     -41.176  61.361 -58.221  1.00  0.00     0.021 A 
HETATM   28  C   UNL     1     -41.678  61.361 -59.522  1.00  0.00     0.017 A 
HETATM   29  C   UNL     1     -42.867  60.688 -59.808  1.00  0.00     0.021 A 
HETATM   30  C   UNL     1     -43.564  60.029 -58.792  1.00  0.00     0.010 A 
BRANCH  28  31
HETATM   31  C   UNL     1     -40.979  62.055 -60.557  1.00  0.00    -0.064 C 
HETATM   32  C   UNL     1     -40.402  62.639 -61.434  1.00  0.00    -0.064 C 
BRANCH  32  33
HETATM   33  C   UNL     1     -39.699  63.349 -62.516  1.00  0.00     0.114 C 
HETATM   34  C   UNL     1     -40.524  64.538 -63.003  1.00  0.00     0.060 C 
HETATM   35  C   UNL     1     -38.319  63.806 -62.050  1.00  0.00     0.060 C 
BRANCH  33  36
HETATM   36  O   UNL     1     -39.512  62.449 -63.606  1.00  0.00    -0.378 OA
HETATM   37  H   UNL     1     -38.634  62.047 -63.501  1.00  0.00     0.211 HD
ENDBRANCH  33  36
ENDBRANCH  32  33
ENDBRANCH  28  31
ENDBRANCH  24  25
ENDBRANCH   6  24
TORSDOF 8
ENDMDL
MODEL 6
REMARK VINA RESULT:      -7.3      2.575      5.224
REMARK  8 active torsions:
REMARK  status: ('A' for Active; 'I' for Inactive)
REMARK    1  A    between atoms: C_6  and  C_7 
REMARK       I    between atoms: C_7  and  N_8 
REMARK    2  A    between atoms: N_8  and  C_9 
REMARK    3  A    between atoms: C_9  and  C_10 
REMARK    4  A    between atoms: N_15  and  C_17 
REMARK    5  A    between atoms: C_17  and  C_18 
REMARK    6  A    between atoms: C_21  and  C_22 
REMARK    7  A    between atoms: C_23  and  C_24 
REMARK    8  A    between atoms: C_24  and  O_25 
ROOT
HETATM    1  C   UNL     1     -43.332  56.551 -51.272  1.00  0.00     0.140 C 
HETATM    2  O   UNL     1     -43.209  56.715 -52.704  1.00  0.00    -0.373 OA
HETATM    3  C   UNL     1     -43.908  57.924 -53.074  1.00  0.00     0.064 C 
HETATM    4  C   UNL     1     -44.829  57.575 -54.248  1.00  0.00     0.066 C 
HETATM    5  C   UNL     1     -44.028  57.156 -55.472  1.00  0.00     0.238 C 
HETATM    6  N   UNL     1     -43.042  58.232 -55.864  1.00  0.00    -0.067 N 
HETATM    7  H   UNL     1     -42.464  57.806 -56.599  1.00  0.00     0.280 HD
HETATM    8  C   UNL     1     -42.097  58.542 -54.728  1.00  0.00     0.238 C 
HETATM    9  C   UNL     1     -42.866  58.970 -53.486  1.00  0.00     0.066 C 
HETATM   10  C   UNL     1     -44.699  58.368 -51.837  1.00  0.00     0.041 C 
HETATM   11  C   UNL     1     -44.694  57.140 -50.956  1.00  0.00     0.036 C 
ENDROOT
BRANCH   1  12
HETATM   12  C   UNL     1     -43.208  55.081 -50.861  1.00  0.00     0.155 C 
BRANCH  12  13
HETATM   13  N   UNL     1     -42.509  54.251 -51.828  1.00  0.00    -0.353 N 
HETATM   14  C   UNL     1     -41.148  54.037 -51.767  1.00  0.00     0.270 C 
HETATM   15  O   UNL     1     -40.442  54.650 -50.972  1.00  0.00    -0.266 OA
HETATM   16  H   UNL     1     -43.065  53.669 -52.435  1.00  0.00     0.162 HD
BRANCH  14  17
HETATM   17  C   UNL     1     -40.635  53.064 -52.706  1.00  0.00     0.122 A 
HETATM   18  N   UNL     1     -40.335  53.340 -54.022  1.00  0.00    -0.269 N 
HETATM   19  N   UNL     1     -39.890  52.273 -54.713  1.00  0.00    -0.177 NA
HETATM   20  C   UNL     1     -40.457  54.607 -54.709  1.00  0.00     0.180 C 
HETATM   21  C   UNL     1     -39.846  51.289 -53.814  1.00  0.00     0.053 A 
HETATM   22  C   UNL     1     -39.352  49.942 -54.189  1.00  0.00     0.072 C 
HETATM   23  C   UNL     1     -40.312  51.724 -52.555  1.00  0.00     0.065 A 
ENDBRANCH  14  17
ENDBRANCH  12  13
ENDBRANCH   1  12
BRANCH   6  24
HETATM   24  C   UNL     1     -43.632  59.469 -56.511  1.00  0.00     0.273 C 
BRANCH  24  25
HETATM   25  C   UNL     1     -44.579  59.165 -57.639  1.00  0.00    -0.033 A 
HETATM   26  C   UNL     1     -45.964  59.306 -57.458  1.00  0.00     0.010 A 
HETATM   27  C   UNL     1     -46.852  58.976 -58.484  1.00  0.00     0.021 A 
HETATM   28  C   UNL     1     -46.367  58.504 -59.703  1.00  0.00     0.017 A 
HETATM   29  C   UNL     1     -44.991  58.376 -59.901  1.00  0.00     0.021 A 
HETATM   30  C   UNL     1     -44.100  58.704 -58.876  1.00  0.00     0.010 A 
BRANCH  28  31
HETATM   31  C   UNL     1     -47.278  58.146 -60.743  1.00  0.00    -0.064 C 
HETATM   32  C   UNL     1     -48.052  57.839 -61.610  1.00  0.00    -0.064 C 
BRANCH  32  33
HETATM   33  C   UNL     1     -49.000  57.452 -62.669  1.00  0.00     0.114 C 
HETATM   34  C   UNL     1     -49.910  58.625 -63.029  1.00  0.00     0.060 C 
HETATM   35  C   UNL     1     -48.253  56.951 -63.901  1.00  0.00     0.060 C 
BRANCH  33  36
HETATM   36  O   UNL     1     -49.809  56.381 -62.187  1.00  0.00    -0.378 OA
HETATM   37  H   UNL     1     -49.236  55.801 -61.659  1.00  0.00     0.211 HD
ENDBRANCH  33  36
ENDBRANCH  32  33
ENDBRANCH  28  31
ENDBRANCH  24  25
ENDBRANCH   6  24
TORSDOF 8
ENDMDL
MODEL 7
REMARK VINA RESULT:      -7.3     17.372     20.062
REMARK  8 active torsions:
REMARK  status: ('A' for Active; 'I' for Inactive)
REMARK    1  A    between atoms: C_6  and  C_7 
REMARK       I    between atoms: C_7  and  N_8 
REMARK    2  A    between atoms: N_8  and  C_9 
REMARK    3  A    between atoms: C_9  and  C_10 
REMARK    4  A    between atoms: N_15  and  C_17 
REMARK    5  A    between atoms: C_17  and  C_18 
REMARK    6  A    between atoms: C_21  and  C_22 
REMARK    7  A    between atoms: C_23  and  C_24 
REMARK    8  A    between atoms: C_24  and  O_25 
ROOT
HETATM    1  C   UNL     1     -34.030  40.454 -50.521  1.00  0.00     0.140 C 
HETATM    2  O   UNL     1     -34.241  40.775 -51.916  1.00  0.00    -0.373 OA
HETATM    3  C   UNL     1     -35.637  40.555 -52.216  1.00  0.00     0.064 C 
HETATM    4  C   UNL     1     -35.699  39.702 -53.486  1.00  0.00     0.066 C 
HETATM    5  C   UNL     1     -35.121  40.448 -54.681  1.00  0.00     0.238 C 
HETATM    6  N   UNL     1     -35.828  41.767 -54.884  1.00  0.00    -0.067 N 
HETATM    7  H   UNL     1     -35.285  42.249 -55.612  1.00  0.00     0.280 HD
HETATM    8  C   UNL     1     -35.724  42.634 -53.653  1.00  0.00     0.238 C 
HETATM    9  C   UNL     1     -36.299  41.920 -52.437  1.00  0.00     0.066 C 
HETATM   10  C   UNL     1     -36.235  39.825 -51.005  1.00  0.00     0.041 C 
HETATM   11  C   UNL     1     -35.018  39.334 -50.255  1.00  0.00     0.036 C 
ENDROOT
BRANCH   1  12
HETATM   12  C   UNL     1     -32.578  40.046 -50.252  1.00  0.00     0.155 C 
BRANCH  12  13
HETATM   13  N   UNL     1     -32.213  40.047 -48.845  1.00  0.00    -0.353 N 
HETATM   14  C   UNL     1     -31.683  38.937 -48.222  1.00  0.00     0.270 C 
HETATM   15  O   UNL     1     -31.623  37.853 -48.794  1.00  0.00    -0.266 OA
HETATM   16  H   UNL     1     -32.167  40.936 -48.373  1.00  0.00     0.162 HD
BRANCH  14  17
HETATM   17  C   UNL     1     -31.227  39.150 -46.866  1.00  0.00     0.122 A 
HETATM   18  N   UNL     1     -31.860  38.652 -45.748  1.00  0.00    -0.269 N 
HETATM   19  N   UNL     1     -31.267  38.996 -44.589  1.00  0.00    -0.177 NA
HETATM   20  C   UNL     1     -33.055  37.838 -45.698  1.00  0.00     0.180 C 
HETATM   21  C   UNL     1     -30.191  39.691 -44.959  1.00  0.00     0.053 A 
HETATM   22  C   UNL     1     -29.240  40.210 -43.946  1.00  0.00     0.072 C 
HETATM   23  C   UNL     1     -30.127  39.828 -46.362  1.00  0.00     0.065 A 
ENDBRANCH  14  17
ENDBRANCH  12  13
ENDBRANCH   1  12
BRANCH   6  24
HETATM   24  C   UNL     1     -37.233  41.687 -55.447  1.00  0.00     0.273 C 
BRANCH  24  25
HETATM   25  C   UNL     1     -37.308  41.004 -56.785  1.00  0.00    -0.033 A 
HETATM   26  C   UNL     1     -37.108  41.738 -57.965  1.00  0.00     0.010 A 
HETATM   27  C   UNL     1     -37.228  41.121 -59.213  1.00  0.00     0.021 A 
HETATM   28  C   UNL     1     -37.546  39.766 -59.296  1.00  0.00     0.017 A 
HETATM   29  C   UNL     1     -37.731  39.024 -58.129  1.00  0.00     0.021 A 
HETATM   30  C   UNL     1     -37.612  39.637 -56.879  1.00  0.00     0.010 A 
BRANCH  28  31
HETATM   31  C   UNL     1     -37.690  39.144 -60.574  1.00  0.00    -0.064 C 
HETATM   32  C   UNL     1     -37.799  38.617 -61.648  1.00  0.00    -0.064 C 
BRANCH  32  33
HETATM   33  C   UNL     1     -37.924  37.977 -62.969  1.00  0.00     0.114 C 
HETATM   34  C   UNL     1     -37.155  36.658 -63.002  1.00  0.00     0.060 C 
HETATM   35  C   UNL     1     -39.393  37.754 -63.320  1.00  0.00     0.060 C 
BRANCH  33  36
HETATM   36  O   UNL     1     -37.372  38.850 -63.952  1.00  0.00    -0.378 OA
HETATM   37  H   UNL     1     -38.034  38.946 -64.657  1.00  0.00     0.211 HD
ENDBRANCH  33  36
ENDBRANCH  32  33
ENDBRANCH  28  31
ENDBRANCH  24  25
ENDBRANCH   6  24
TORSDOF 8
ENDMDL
MODEL 8
REMARK VINA RESULT:      -7.1      3.566      7.569
REMARK  8 active torsions:
REMARK  status: ('A' for Active; 'I' for Inactive)
REMARK    1  A    between atoms: C_6  and  C_7 
REMARK       I    between atoms: C_7  and  N_8 
REMARK    2  A    between atoms: N_8  and  C_9 
REMARK    3  A    between atoms: C_9  and  C_10 
REMARK    4  A    between atoms: N_15  and  C_17 
REMARK    5  A    between atoms: C_17  and  C_18 
REMARK    6  A    between atoms: C_21  and  C_22 
REMARK    7  A    between atoms: C_23  and  C_24 
REMARK    8  A    between atoms: C_24  and  O_25 
ROOT
HETATM    1  C   UNL     1     -40.955  54.634 -53.349  1.00  0.00     0.140 C 
HETATM    2  O   UNL     1     -41.195  56.061 -53.356  1.00  0.00    -0.373 OA
HETATM    3  C   UNL     1     -41.966  56.387 -52.178  1.00  0.00     0.064 C 
HETATM    4  C   UNL     1     -43.150  57.244 -52.634  1.00  0.00     0.066 C 
HETATM    5  C   UNL     1     -42.680  58.571 -53.214  1.00  0.00     0.238 C 
HETATM    6  N   UNL     1     -41.826  59.320 -52.219  1.00  0.00    -0.067 N 
HETATM    7  H   UNL     1     -41.450  60.120 -52.743  1.00  0.00     0.280 HD
HETATM    8  C   UNL     1     -40.627  58.501 -51.807  1.00  0.00     0.238 C 
HETATM    9  C   UNL     1     -41.061  57.166 -51.216  1.00  0.00     0.066 C 
HETATM   10  C   UNL     1     -42.423  55.053 -51.572  1.00  0.00     0.041 C 
HETATM   11  C   UNL     1     -42.195  54.062 -52.689  1.00  0.00     0.036 C 
ENDROOT
BRANCH   1  12
HETATM   12  C   UNL     1     -40.729  54.095 -54.765  1.00  0.00     0.155 C 
BRANCH  12  13
HETATM   13  N   UNL     1     -41.156  55.000 -55.820  1.00  0.00    -0.353 N 
HETATM   14  C   UNL     1     -42.457  55.037 -56.274  1.00  0.00     0.270 C 
HETATM   15  O   UNL     1     -43.286  54.211 -55.904  1.00  0.00    -0.266 OA
HETATM   16  H   UNL     1     -40.529  55.744 -56.081  1.00  0.00     0.162 HD
BRANCH  14  17
HETATM   17  C   UNL     1     -42.752  56.099 -57.212  1.00  0.00     0.122 A 
HETATM   18  N   UNL     1     -43.385  55.911 -58.421  1.00  0.00    -0.269 N 
HETATM   19  N   UNL     1     -43.535  57.041 -59.138  1.00  0.00    -0.177 NA
HETATM   20  C   UNL     1     -43.875  54.669 -58.978  1.00  0.00     0.180 C 
HETATM   21  C   UNL     1     -43.035  57.999 -58.356  1.00  0.00     0.053 A 
HETATM   22  C   UNL     1     -43.065  59.419 -58.784  1.00  0.00     0.072 C 
HETATM   23  C   UNL     1     -42.524  57.465 -57.154  1.00  0.00     0.065 A 
ENDBRANCH  14  17
ENDBRANCH  12  13
ENDBRANCH   1  12
BRANCH   6  24
HETATM   24  C   UNL     1     -42.561  59.942 -51.049  1.00  0.00     0.273 C 
BRANCH  24  25
HETATM   25  C   UNL     1     -43.941  60.431 -51.395  1.00  0.00    -0.033 A 
HETATM   26  C   UNL     1     -45.071  59.711 -50.978  1.00  0.00     0.010 A 
HETATM   27  C   UNL     1     -46.353  60.131 -51.340  1.00  0.00     0.021 A 
HETATM   28  C   UNL     1     -46.521  61.274 -52.121  1.00  0.00     0.017 A 
HETATM   29  C   UNL     1     -45.405  62.006 -52.528  1.00  0.00     0.021 A 
HETATM   30  C   UNL     1     -44.120  61.590 -52.168  1.00  0.00     0.010 A 
BRANCH  28  31
HETATM   31  C   UNL     1     -47.831  61.688 -52.509  1.00  0.00    -0.064 C 
HETATM   32  C   UNL     1     -48.931  62.034 -52.847  1.00  0.00    -0.064 C 
BRANCH  32  33
HETATM   33  C   UNL     1     -50.275  62.466 -53.269  1.00  0.00     0.114 C 
HETATM   34  C   UNL     1     -50.998  63.169 -52.121  1.00  0.00     0.060 C 
HETATM   35  C   UNL     1     -50.186  63.378 -54.489  1.00  0.00     0.060 C 
BRANCH  33  36
HETATM   36  O   UNL     1     -51.028  61.314 -53.642  1.00  0.00    -0.378 OA
HETATM   37  H   UNL     1     -50.712  61.034 -54.517  1.00  0.00     0.211 HD
ENDBRANCH  33  36
ENDBRANCH  32  33
ENDBRANCH  28  31
ENDBRANCH  24  25
ENDBRANCH   6  24
TORSDOF 8
ENDMDL
MODEL 9
REMARK VINA RESULT:      -7.0      4.373      9.826
REMARK  8 active torsions:
REMARK  status: ('A' for Active; 'I' for Inactive)
REMARK    1  A    between atoms: C_6  and  C_7 
REMARK       I    between atoms: C_7  and  N_8 
REMARK    2  A    between atoms: N_8  and  C_9 
REMARK    3  A    between atoms: C_9  and  C_10 
REMARK    4  A    between atoms: N_15  and  C_17 
REMARK    5  A    between atoms: C_17  and  C_18 
REMARK    6  A    between atoms: C_21  and  C_22 
REMARK    7  A    between atoms: C_23  and  C_24 
REMARK    8  A    between atoms: C_24  and  O_25 
ROOT
HETATM    1  C   UNL     1     -45.034  59.639 -60.966  1.00  0.00     0.140 C 
HETATM    2  O   UNL     1     -44.223  58.984 -59.963  1.00  0.00    -0.373 OA
HETATM    3  C   UNL     1     -44.861  57.733 -59.623  1.00  0.00     0.064 C 
HETATM    4  C   UNL     1     -44.942  57.666 -58.095  1.00  0.00     0.066 C 
HETATM    5  C   UNL     1     -43.555  57.617 -57.470  1.00  0.00     0.238 C 
HETATM    6  N   UNL     1     -42.759  56.456 -58.018  1.00  0.00    -0.067 N 
HETATM    7  H   UNL     1     -41.809  56.589 -57.648  1.00  0.00     0.280 HD
HETATM    8  C   UNL     1     -42.630  56.547 -59.519  1.00  0.00     0.238 C 
HETATM    9  C   UNL     1     -44.002  56.592 -60.179  1.00  0.00     0.066 C 
HETATM   10  C   UNL     1     -46.252  57.762 -60.270  1.00  0.00     0.041 C 
HETATM   11  C   UNL     1     -46.449  59.220 -60.616  1.00  0.00     0.036 C 
ENDROOT
BRANCH   1  12
HETATM   12  C   UNL     1     -44.838  61.158 -60.944  1.00  0.00     0.155 C 
BRANCH  12  13
HETATM   13  N   UNL     1     -43.582  61.586 -60.351  1.00  0.00    -0.353 N 
HETATM   14  C   UNL     1     -42.388  61.534 -61.041  1.00  0.00     0.270 C 
HETATM   15  O   UNL     1     -42.311  60.995 -62.141  1.00  0.00    -0.266 OA
HETATM   16  H   UNL     1     -43.623  62.109 -59.491  1.00  0.00     0.162 HD
BRANCH  14  17
HETATM   17  C   UNL     1     -41.262  62.142 -60.368  1.00  0.00     0.122 A 
HETATM   18  N   UNL     1     -40.828  61.788 -59.109  1.00  0.00    -0.269 N 
HETATM   19  N   UNL     1     -39.772  62.504 -58.677  1.00  0.00    -0.177 NA
HETATM   20  C   UNL     1     -41.377  60.773 -58.238  1.00  0.00     0.180 C 
HETATM   21  C   UNL     1     -39.476  63.309 -59.698  1.00  0.00     0.053 A 
HETATM   22  C   UNL     1     -38.319  64.234 -59.622  1.00  0.00     0.072 C 
HETATM   23  C   UNL     1     -40.379  63.134 -60.768  1.00  0.00     0.065 A 
ENDBRANCH  14  17
ENDBRANCH  12  13
ENDBRANCH   1  12
BRANCH   6  24
HETATM   24  C   UNL     1     -43.170  55.082 -57.531  1.00  0.00     0.273 C 
BRANCH  24  25
HETATM   25  C   UNL     1     -42.708  54.775 -56.132  1.00  0.00    -0.033 A 
HETATM   26  C   UNL     1     -43.645  54.585 -55.104  1.00  0.00     0.010 A 
HETATM   27  C   UNL     1     -43.222  54.352 -53.793  1.00  0.00     0.021 A 
HETATM   28  C   UNL     1     -41.861  54.304 -53.495  1.00  0.00     0.017 A 
HETATM   29  C   UNL     1     -40.921  54.474 -54.512  1.00  0.00     0.021 A 
HETATM   30  C   UNL     1     -41.340  54.708 -55.825  1.00  0.00     0.010 A 
BRANCH  28  31
HETATM   31  C   UNL     1     -41.432  54.088 -52.150  1.00  0.00    -0.064 C 
HETATM   32  C   UNL     1     -41.067  53.917 -51.018  1.00  0.00    -0.064 C 
BRANCH  32  33
HETATM   33  C   UNL     1     -40.609  53.713 -49.633  1.00  0.00     0.114 C 
HETATM   34  C   UNL     1     -40.532  52.222 -49.308  1.00  0.00     0.060 C 
HETATM   35  C   UNL     1     -39.257  54.384 -49.410  1.00  0.00     0.060 C 
BRANCH  33  36
HETATM   36  O   UNL     1     -41.547  54.323 -48.748  1.00  0.00    -0.378 OA
HETATM   37  H   UNL     1     -42.411  54.312 -49.192  1.00  0.00     0.211 HD
ENDBRANCH  33  36
ENDBRANCH  32  33
ENDBRANCH  28  31
ENDBRANCH  24  25
ENDBRANCH   6  24
TORSDOF 8
ENDMDL
MODEL 10
REMARK VINA RESULT:      -7.0     17.874     20.373
REMARK  8 active torsions:
REMARK  status: ('A' for Active; 'I' for Inactive)
REMARK    1  A    between atoms: C_6  and  C_7 
REMARK       I    between atoms: C_7  and  N_8 
REMARK    2  A    between atoms: N_8  and  C_9 
REMARK    3  A    between atoms: C_9  and  C_10 
REMARK    4  A    between atoms: N_15  and  C_17 
REMARK    5  A    between atoms: C_17  and  C_18 
REMARK    6  A    between atoms: C_21  and  C_22 
REMARK    7  A    between atoms: C_23  and  C_24 
REMARK    8  A    between atoms: C_24  and  O_25 
ROOT
HETATM    1  C   UNL     1     -33.676  38.808 -49.281  1.00  0.00     0.140 C 
HETATM    2  O   UNL     1     -33.668  39.598 -50.494  1.00  0.00    -0.373 OA
HETATM    3  C   UNL     1     -35.040  39.816 -50.890  1.00  0.00     0.064 C 
HETATM    4  C   UNL     1     -35.147  39.452 -52.374  1.00  0.00     0.066 C 
HETATM    5  C   UNL     1     -34.304  40.384 -53.233  1.00  0.00     0.238 C 
HETATM    6  N   UNL     1     -34.692  41.826 -53.004  1.00  0.00    -0.067 N 
HETATM    7  H   UNL     1     -33.986  42.373 -53.512  1.00  0.00     0.280 HD
HETATM    8  C   UNL     1     -34.536  42.205 -51.551  1.00  0.00     0.238 C 
HETATM    9  C   UNL     1     -35.372  41.295 -50.662  1.00  0.00     0.066 C 
HETATM   10  C   UNL     1     -35.901  38.900 -50.011  1.00  0.00     0.041 C 
HETATM   11  C   UNL     1     -34.900  37.926 -49.433  1.00  0.00     0.036 C 
ENDROOT
BRANCH   1  12
HETATM   12  C   UNL     1     -32.379  38.008 -49.122  1.00  0.00     0.155 C 
BRANCH  12  13
HETATM   13  N   UNL     1     -31.723  38.191 -47.838  1.00  0.00    -0.353 N 
HETATM   14  C   UNL     1     -31.264  39.421 -47.416  1.00  0.00     0.270 C 
HETATM   15  O   UNL     1     -31.265  40.393 -48.165  1.00  0.00    -0.266 OA
HETATM   16  H   UNL     1     -31.784  37.441 -47.169  1.00  0.00     0.162 HD
BRANCH  14  17
HETATM   17  C   UNL     1     -30.780  39.463 -46.054  1.00  0.00     0.122 A 
HETATM   18  N   UNL     1     -31.439  38.907 -44.980  1.00  0.00    -0.269 N 
HETATM   19  N   UNL     1     -30.810  39.088 -43.802  1.00  0.00    -0.177 NA
HETATM   20  C   UNL     1     -32.694  38.187 -44.989  1.00  0.00     0.180 C 
HETATM   21  C   UNL     1     -29.686  39.731 -44.121  1.00  0.00     0.053 A 
HETATM   22  C   UNL     1     -28.687  40.072 -43.080  1.00  0.00     0.072 C 
HETATM   23  C   UNL     1     -29.625  40.001 -45.506  1.00  0.00     0.065 A 
ENDBRANCH  14  17
ENDBRANCH  12  13
ENDBRANCH   1  12
BRANCH   6  24
HETATM   24  C   UNL     1     -36.015  42.259 -53.601  1.00  0.00     0.273 C 
BRANCH  24  25
HETATM   25  C   UNL     1     -36.256  41.722 -54.985  1.00  0.00    -0.033 A 
HETATM   26  C   UNL     1     -37.285  40.794 -55.214  1.00  0.00     0.010 A 
HETATM   27  C   UNL     1     -37.481  40.251 -56.486  1.00  0.00     0.021 A 
HETATM   28  C   UNL     1     -36.655  40.630 -57.543  1.00  0.00     0.017 A 
HETATM   29  C   UNL     1     -35.639  41.564 -57.331  1.00  0.00     0.021 A 
HETATM   30  C   UNL     1     -35.439  42.109 -56.060  1.00  0.00     0.010 A 
BRANCH  28  31
HETATM   31  C   UNL     1     -36.843  40.056 -58.838  1.00  0.00    -0.064 C 
HETATM   32  C   UNL     1     -37.001  39.562 -59.922  1.00  0.00    -0.064 C 
BRANCH  32  33
HETATM   33  C   UNL     1     -37.184  38.951 -61.249  1.00  0.00     0.114 C 
HETATM   34  C   UNL     1     -35.905  38.247 -61.698  1.00  0.00     0.060 C 
HETATM   35  C   UNL     1     -38.358  37.976 -61.233  1.00  0.00     0.060 C 
BRANCH  33  36
HETATM   36  O   UNL     1     -37.489  39.981 -62.187  1.00  0.00    -0.378 OA
HETATM   37  H   UNL     1     -37.301  39.630 -63.073  1.00  0.00     0.211 HD
ENDBRANCH  33  36
ENDBRANCH  32  33
ENDBRANCH  28  31
ENDBRANCH  24  25
ENDBRANCH   6  24
TORSDOF 8
ENDMDL
