MODEL 1
REMARK VINA RESULT:      -8.2      0.000      0.000
REMARK  8 active torsions:
REMARK  status: ('A' for Active; 'I' for Inactive)
REMARK    1  A    between atoms: O_2  and  C_3 
REMARK    2  A    between atoms: C_4  and  O_5 
REMARK    3  A    between atoms: C_6  and  C_7 
REMARK    4  A    between atoms: C_7  and  C_8 
REMARK    5  A    between atoms: C_11  and  C_12 
REMARK    6  A    between atoms: C_12  and  N_13 
REMARK    7  A    between atoms: C_16  and  N_17 
REMARK       I    between atoms: N_17  and  C_18 
REMARK       I    between atoms: C_18  and  N_19 
REMARK    8  A    between atoms: N_19  and  C_20 
ROOT
HETATM    1  N   UNL     1     -43.388  56.425 -52.996  1.00  0.00    -0.065 N 
HETATM    2  H   UNL     1     -42.473  56.507 -53.465  1.00  0.00     0.280 HD
HETATM    3  C   UNL     1     -43.243  57.181 -51.682  1.00  0.00     0.260 C 
HETATM    4  C   UNL     1     -44.369  58.226 -51.705  1.00  0.00     0.113 C 
HETATM    5  C   UNL     1     -44.520  58.539 -53.187  1.00  0.00     0.054 C 
HETATM    6  C   UNL     1     -44.402  57.172 -53.833  1.00  0.00     0.237 C 
ENDROOT
BRANCH   1   7
HETATM    7  C   UNL     1     -43.689  54.957 -52.869  1.00  0.00     0.273 C 
BRANCH   7   8
HETATM    8  C   UNL     1     -42.494  54.132 -52.476  1.00  0.00    -0.029 A 
HETATM    9  C   UNL     1     -41.721  53.498 -53.462  1.00  0.00     0.019 A 
HETATM   10  C   UNL     1     -40.586  52.745 -53.119  1.00  0.00    -0.018 A 
HETATM   11  C   UNL     1     -40.234  52.658 -51.771  1.00  0.00     0.105 A 
HETATM   12  C   UNL     1     -40.996  53.268 -50.765  1.00  0.00     0.102 A 
HETATM   13  C   UNL     1     -42.126  54.002 -51.123  1.00  0.00     0.048 A 
BRANCH  10  14
HETATM   14  C   UNL     1     -39.769  52.079 -54.203  1.00  0.00     0.068 C 
BRANCH  14  15
HETATM   15  C   UNL     1     -40.203  50.660 -54.444  1.00  0.00    -0.032 C 
HETATM   16  C   UNL     1     -39.405  49.591 -54.331  1.00  0.00     0.007 C 
ENDBRANCH  14  15
ENDBRANCH  10  14
BRANCH  11  17
HETATM   17  O   UNL     1     -39.114  51.952 -51.418  1.00  0.00    -0.357 OA
HETATM   18  H   UNL     1     -38.448  52.618 -51.152  1.00  0.00     0.218 HD
ENDBRANCH  11  17
BRANCH  12  19
HETATM   19  O   UNL     1     -40.523  53.084 -49.492  1.00  0.00    -0.353 OA
HETATM   20  C   UNL     1     -40.627  54.180 -48.591  1.00  0.00     0.210 C 
ENDBRANCH  12  19
ENDBRANCH   7   8
ENDBRANCH   1   7
BRANCH   4  21
HETATM   21  N   UNL     1     -44.180  59.386 -50.853  1.00  0.00    -0.337 N 
HETATM   22  C   UNL     1     -45.130  59.790 -49.935  1.00  0.00     0.321 C 
HETATM   23  N   UNL     1     -44.701  60.891 -49.235  1.00  0.00    -0.309 N 
HETATM   24  O   UNL     1     -46.200  59.206 -49.830  1.00  0.00    -0.247 OA
HETATM   25  H   UNL     1     -43.944  61.414 -49.650  1.00  0.00     0.170 HD
HETATM   26  H   UNL     1     -43.228  59.624 -50.600  1.00  0.00     0.164 HD
BRANCH  23  27
HETATM   27  C   UNL     1     -45.320  61.488 -48.118  1.00  0.00     0.036 A 
HETATM   28  C   UNL     1     -44.863  61.334 -46.806  1.00  0.00     0.032 A 
HETATM   29  C   UNL     1     -45.514  61.986 -45.753  1.00  0.00     0.044 A 
HETATM   30  C   UNL     1     -46.618  62.787 -46.014  1.00  0.00     0.116 A 
HETATM   31  F   UNL     1     -47.236  63.411 -45.004  1.00  0.00    -0.206 F 
HETATM   32  C   UNL     1     -47.084  62.953 -47.310  1.00  0.00     0.044 A 
HETATM   33  C   UNL     1     -46.432  62.307 -48.364  1.00  0.00     0.032 A 
ENDBRANCH  23  27
ENDBRANCH   4  21
TORSDOF 8
ENDMDL
MODEL 2
REMARK VINA RESULT:      -8.0      6.055      8.760
REMARK  8 active torsions:
REMARK  status: ('A' for Active; 'I' for Inactive)
REMARK    1  A    between atoms: O_2  and  C_3 
REMARK    2  A    between atoms: C_4  and  O_5 
REMARK    3  A    between atoms: C_6  and  C_7 
REMARK    4  A    between atoms: C_7  and  C_8 
REMARK    5  A    between atoms: C_11  and  C_12 
REMARK    6  A    between atoms: C_12  and  N_13 
REMARK    7  A    between atoms: C_16  and  N_17 
REMARK       I    between atoms: N_17  and  C_18 
REMARK       I    between atoms: C_18  and  N_19 
REMARK    8  A    between atoms: N_19  and  C_20 
ROOT
HETATM    1  N   UNL     1     -41.939  55.698 -54.405  1.00  0.00    -0.065 N 
HETATM    2  H   UNL     1     -42.302  55.335 -53.512  1.00  0.00     0.280 HD
HETATM    3  C   UNL     1     -43.088  55.568 -55.397  1.00  0.00     0.260 C 
HETATM    4  C   UNL     1     -43.295  56.987 -55.947  1.00  0.00     0.113 C 
HETATM    5  C   UNL     1     -42.898  57.873 -54.774  1.00  0.00     0.054 C 
HETATM    6  C   UNL     1     -41.669  57.176 -54.225  1.00  0.00     0.237 C 
ENDROOT
BRANCH   1   7
HETATM    7  C   UNL     1     -40.705  54.906 -54.737  1.00  0.00     0.273 C 
BRANCH   7   8
HETATM    8  C   UNL     1     -40.400  53.825 -53.735  1.00  0.00    -0.029 A 
HETATM    9  C   UNL     1     -40.547  54.075 -52.361  1.00  0.00     0.019 A 
HETATM   10  C   UNL     1     -40.295  53.072 -51.411  1.00  0.00    -0.018 A 
HETATM   11  C   UNL     1     -39.910  51.810 -51.869  1.00  0.00     0.105 A 
HETATM   12  C   UNL     1     -39.741  51.537 -53.234  1.00  0.00     0.102 A 
HETATM   13  C   UNL     1     -39.985  52.549 -54.163  1.00  0.00     0.048 A 
BRANCH  10  14
HETATM   14  C   UNL     1     -40.468  53.369 -49.939  1.00  0.00     0.068 C 
BRANCH  14  15
HETATM   15  C   UNL     1     -40.305  54.832 -49.636  1.00  0.00    -0.032 C 
HETATM   16  C   UNL     1     -41.318  55.684 -49.433  1.00  0.00     0.007 C 
ENDBRANCH  14  15
ENDBRANCH  10  14
BRANCH  11  17
HETATM   17  O   UNL     1     -39.686  50.810 -50.961  1.00  0.00    -0.357 OA
HETATM   18  H   UNL     1     -38.932  51.106 -50.414  1.00  0.00     0.218 HD
ENDBRANCH  11  17
BRANCH  12  19
HETATM   19  O   UNL     1     -39.354  50.255 -53.521  1.00  0.00    -0.353 OA
HETATM   20  C   UNL     1     -39.828  49.685 -54.736  1.00  0.00     0.210 C 
ENDBRANCH  12  19
ENDBRANCH   7   8
ENDBRANCH   1   7
BRANCH   4  21
HETATM   21  N   UNL     1     -44.602  57.269 -56.510  1.00  0.00    -0.337 N 
HETATM   22  C   UNL     1     -44.814  57.368 -57.871  1.00  0.00     0.321 C 
HETATM   23  N   UNL     1     -46.137  57.610 -58.147  1.00  0.00    -0.309 N 
HETATM   24  O   UNL     1     -43.890  57.263 -58.667  1.00  0.00    -0.247 OA
HETATM   25  H   UNL     1     -46.693  57.964 -57.382  1.00  0.00     0.170 HD
HETATM   26  H   UNL     1     -45.410  56.956 -55.984  1.00  0.00     0.164 HD
BRANCH  23  27
HETATM   27  C   UNL     1     -46.759  57.616 -59.412  1.00  0.00     0.036 A 
HETATM   28  C   UNL     1     -47.014  56.459 -60.154  1.00  0.00     0.032 A 
HETATM   29  C   UNL     1     -47.665  56.544 -61.389  1.00  0.00     0.044 A 
HETATM   30  C   UNL     1     -48.058  57.783 -61.879  1.00  0.00     0.116 A 
HETATM   31  F   UNL     1     -48.683  57.860 -63.059  1.00  0.00    -0.206 F 
HETATM   32  C   UNL     1     -47.815  58.942 -61.155  1.00  0.00     0.044 A 
HETATM   33  C   UNL     1     -47.170  58.857 -59.918  1.00  0.00     0.032 A 
ENDBRANCH  23  27
ENDBRANCH   4  21
TORSDOF 8
ENDMDL
MODEL 3
REMARK VINA RESULT:      -7.8      6.040      8.332
REMARK  8 active torsions:
REMARK  status: ('A' for Active; 'I' for Inactive)
REMARK    1  A    between atoms: O_2  and  C_3 
REMARK    2  A    between atoms: C_4  and  O_5 
REMARK    3  A    between atoms: C_6  and  C_7 
REMARK    4  A    between atoms: C_7  and  C_8 
REMARK    5  A    between atoms: C_11  and  C_12 
REMARK    6  A    between atoms: C_12  and  N_13 
REMARK    7  A    between atoms: C_16  and  N_17 
REMARK       I    between atoms: N_17  and  C_18 
REMARK       I    between atoms: C_18  and  N_19 
REMARK    8  A    between atoms: N_19  and  C_20 
ROOT
HETATM    1  N   UNL     1     -42.111  56.252 -54.150  1.00  0.00    -0.065 N 
HETATM    2  H   UNL     1     -42.464  56.167 -53.185  1.00  0.00     0.280 HD
HETATM    3  C   UNL     1     -43.304  55.957 -55.049  1.00  0.00     0.260 C 
HETATM    4  C   UNL     1     -43.430  57.193 -55.953  1.00  0.00     0.113 C 
HETATM    5  C   UNL     1     -42.925  58.322 -55.066  1.00  0.00     0.054 C 
HETATM    6  C   UNL     1     -41.729  57.699 -54.374  1.00  0.00     0.237 C 
ENDROOT
BRANCH   1   7
HETATM    7  C   UNL     1     -40.951  55.305 -54.281  1.00  0.00     0.273 C 
BRANCH   7   8
HETATM    8  C   UNL     1     -40.836  54.335 -53.136  1.00  0.00    -0.029 A 
HETATM    9  C   UNL     1     -40.194  53.100 -53.321  1.00  0.00     0.019 A 
HETATM   10  C   UNL     1     -40.052  52.192 -52.259  1.00  0.00    -0.018 A 
HETATM   11  C   UNL     1     -40.550  52.557 -51.006  1.00  0.00     0.105 A 
HETATM   12  C   UNL     1     -41.208  53.777 -50.798  1.00  0.00     0.102 A 
HETATM   13  C   UNL     1     -41.351  54.662 -51.867  1.00  0.00     0.048 A 
BRANCH  10  14
HETATM   14  C   UNL     1     -39.350  50.873 -52.485  1.00  0.00     0.068 C 
BRANCH  14  15
HETATM   15  C   UNL     1     -40.039  50.040 -53.531  1.00  0.00    -0.032 C 
HETATM   16  C   UNL     1     -39.591  49.865 -54.780  1.00  0.00     0.007 C 
ENDBRANCH  14  15
ENDBRANCH  10  14
BRANCH  11  17
HETATM   17  O   UNL     1     -40.396  51.698 -49.951  1.00  0.00    -0.357 OA
HETATM   18  H   UNL     1     -41.201  51.796 -49.404  1.00  0.00     0.218 HD
ENDBRANCH  11  17
BRANCH  12  19
HETATM   19  O   UNL     1     -41.645  53.985 -49.516  1.00  0.00    -0.353 OA
HETATM   20  C   UNL     1     -40.925  54.921 -48.723  1.00  0.00     0.210 C 
ENDBRANCH  12  19
ENDBRANCH   7   8
ENDBRANCH   1   7
BRANCH   4  21
HETATM   21  N   UNL     1     -44.734  57.420 -56.546  1.00  0.00    -0.337 N 
HETATM   22  C   UNL     1     -44.922  57.486 -57.913  1.00  0.00     0.321 C 
HETATM   23  N   UNL     1     -46.247  57.679 -58.219  1.00  0.00    -0.309 N 
HETATM   24  O   UNL     1     -43.980  57.399 -58.689  1.00  0.00    -0.247 OA
HETATM   25  H   UNL     1     -46.830  58.027 -57.472  1.00  0.00     0.170 HD
HETATM   26  H   UNL     1     -45.541  57.088 -56.030  1.00  0.00     0.164 HD
BRANCH  23  27
HETATM   27  C   UNL     1     -46.844  57.640 -59.495  1.00  0.00     0.036 A 
HETATM   28  C   UNL     1     -47.091  56.458 -60.199  1.00  0.00     0.032 A 
HETATM   29  C   UNL     1     -47.717  56.500 -61.449  1.00  0.00     0.044 A 
HETATM   30  C   UNL     1     -48.092  57.721 -61.992  1.00  0.00     0.116 A 
HETATM   31  F   UNL     1     -48.693  57.758 -63.187  1.00  0.00    -0.206 F 
HETATM   32  C   UNL     1     -47.857  58.905 -61.307  1.00  0.00     0.044 A 
HETATM   33  C   UNL     1     -47.236  58.864 -60.056  1.00  0.00     0.032 A 
ENDBRANCH  23  27
ENDBRANCH   4  21
TORSDOF 8
ENDMDL
MODEL 4
REMARK VINA RESULT:      -7.7      5.881      9.875
REMARK  8 active torsions:
REMARK  status: ('A' for Active; 'I' for Inactive)
REMARK    1  A    between atoms: O_2  and  C_3 
REMARK    2  A    between atoms: C_4  and  O_5 
REMARK    3  A    between atoms: C_6  and  C_7 
REMARK    4  A    between atoms: C_7  and  C_8 
REMARK    5  A    between atoms: C_11  and  C_12 
REMARK    6  A    between atoms: C_12  and  N_13 
REMARK    7  A    between atoms: C_16  and  N_17 
REMARK       I    between atoms: N_17  and  C_18 
REMARK       I    between atoms: C_18  and  N_19 
REMARK    8  A    between atoms: N_19  and  C_20 
ROOT
HETATM    1  N   UNL     1     -43.818  58.795 -54.732  1.00  0.00    -0.065 N 
HETATM    2  H   UNL     1     -43.425  59.713 -54.476  1.00  0.00     0.280 HD
HETATM    3  C   UNL     1     -42.624  57.853 -54.830  1.00  0.00     0.260 C 
HETATM    4  C   UNL     1     -42.948  56.707 -53.860  1.00  0.00     0.113 C 
HETATM    5  C   UNL     1     -43.771  57.392 -52.778  1.00  0.00     0.054 C 
HETATM    6  C   UNL     1     -44.667  58.321 -53.573  1.00  0.00     0.237 C 
ENDROOT
BRANCH   1   7
HETATM    7  C   UNL     1     -44.599  58.985 -56.002  1.00  0.00     0.273 C 
BRANCH   7   8
HETATM    8  C   UNL     1     -43.852  58.554 -57.235  1.00  0.00    -0.029 A 
HETATM    9  C   UNL     1     -43.916  57.219 -57.667  1.00  0.00     0.019 A 
HETATM   10  C   UNL     1     -43.249  56.802 -58.830  1.00  0.00    -0.018 A 
HETATM   11  C   UNL     1     -42.534  57.754 -59.559  1.00  0.00     0.105 A 
HETATM   12  C   UNL     1     -42.442  59.090 -59.143  1.00  0.00     0.102 A 
HETATM   13  C   UNL     1     -43.101  59.484 -57.979  1.00  0.00     0.048 A 
BRANCH  10  14
HETATM   14  C   UNL     1     -43.341  55.360 -59.274  1.00  0.00     0.068 C 
BRANCH  14  15
HETATM   15  C   UNL     1     -44.690  55.033 -59.852  1.00  0.00    -0.032 C 
HETATM   16  C   UNL     1     -44.990  55.083 -61.156  1.00  0.00     0.007 C 
ENDBRANCH  14  15
ENDBRANCH  10  14
BRANCH  11  17
HETATM   17  O   UNL     1     -41.900  57.374 -60.712  1.00  0.00    -0.357 OA
HETATM   18  H   UNL     1     -42.544  56.828 -61.207  1.00  0.00     0.218 HD
ENDBRANCH  11  17
BRANCH  12  19
HETATM   19  O   UNL     1     -41.699  59.898 -59.963  1.00  0.00    -0.353 OA
HETATM   20  C   UNL     1     -41.698  61.292 -59.680  1.00  0.00     0.210 C 
ENDBRANCH  12  19
ENDBRANCH   7   8
ENDBRANCH   1   7
BRANCH   4  21
HETATM   21  N   UNL     1     -41.814  55.944 -53.373  1.00  0.00    -0.337 N 
HETATM   22  C   UNL     1     -41.839  54.566 -53.274  1.00  0.00     0.321 C 
HETATM   23  N   UNL     1     -40.638  54.084 -52.816  1.00  0.00    -0.309 N 
HETATM   24  O   UNL     1     -42.844  53.927 -53.554  1.00  0.00    -0.247 OA
HETATM   25  H   UNL     1     -40.037  54.752 -52.354  1.00  0.00     0.170 HD
HETATM   26  H   UNL     1     -40.892  56.334 -53.532  1.00  0.00     0.164 HD
BRANCH  23  27
HETATM   27  C   UNL     1     -40.232  52.737 -52.736  1.00  0.00     0.036 A 
HETATM   28  C   UNL     1     -39.897  52.099 -51.538  1.00  0.00     0.032 A 
HETATM   29  C   UNL     1     -39.534  50.748 -51.536  1.00  0.00     0.044 A 
HETATM   30  C   UNL     1     -39.505  50.040 -52.730  1.00  0.00     0.116 A 
HETATM   31  F   UNL     1     -39.159  48.747 -52.725  1.00  0.00    -0.206 F 
HETATM   32  C   UNL     1     -39.836  50.656 -53.929  1.00  0.00     0.044 A 
HETATM   33  C   UNL     1     -40.204  52.004 -53.931  1.00  0.00     0.032 A 
ENDBRANCH  23  27
ENDBRANCH   4  21
TORSDOF 8
ENDMDL
MODEL 5
REMARK VINA RESULT:      -7.3      6.213      8.361
REMARK  8 active torsions:
REMARK  status: ('A' for Active; 'I' for Inactive)
REMARK    1  A    between atoms: O_2  and  C_3 
REMARK    2  A    between atoms: C_4  and  O_5 
REMARK    3  A    between atoms: C_6  and  C_7 
REMARK    4  A    between atoms: C_7  and  C_8 
REMARK    5  A    between atoms: C_11  and  C_12 
REMARK    6  A    between atoms: C_12  and  N_13 
REMARK    7  A    between atoms: C_16  and  N_17 
REMARK       I    between atoms: N_17  and  C_18 
REMARK       I    between atoms: C_18  and  N_19 
REMARK    8  A    between atoms: N_19  and  C_20 
ROOT
HETATM    1  N   UNL     1     -42.628  55.268 -56.452  1.00  0.00    -0.065 N 
HETATM    2  H   UNL     1     -41.635  55.003 -56.528  1.00  0.00     0.280 HD
HETATM    3  C   UNL     1     -42.632  56.755 -56.121  1.00  0.00     0.260 C 
HETATM    4  C   UNL     1     -43.483  57.400 -57.225  1.00  0.00     0.113 C 
HETATM    5  C   UNL     1     -43.228  56.503 -58.427  1.00  0.00     0.054 C 
HETATM    6  C   UNL     1     -43.251  55.113 -57.822  1.00  0.00     0.237 C 
ENDROOT
BRANCH   1   7
HETATM    7  C   UNL     1     -43.247  54.372 -55.415  1.00  0.00     0.273 C 
BRANCH   7   8
HETATM    8  C   UNL     1     -42.370  54.155 -54.211  1.00  0.00    -0.029 A 
HETATM    9  C   UNL     1     -41.402  53.137 -54.219  1.00  0.00     0.019 A 
HETATM   10  C   UNL     1     -40.556  52.935 -53.117  1.00  0.00    -0.018 A 
HETATM   11  C   UNL     1     -40.688  53.785 -52.017  1.00  0.00     0.105 A 
HETATM   12  C   UNL     1     -41.656  54.799 -51.977  1.00  0.00     0.102 A 
HETATM   13  C   UNL     1     -42.496  54.978 -53.076  1.00  0.00     0.048 A 
BRANCH  10  14
HETATM   14  C   UNL     1     -39.519  51.836 -53.156  1.00  0.00     0.068 C 
BRANCH  14  15
HETATM   15  C   UNL     1     -39.693  50.939 -54.350  1.00  0.00    -0.032 C 
HETATM   16  C   UNL     1     -40.271  49.732 -54.317  1.00  0.00     0.007 C 
ENDBRANCH  14  15
ENDBRANCH  10  14
BRANCH  11  17
HETATM   17  O   UNL     1     -39.853  53.623 -50.943  1.00  0.00    -0.357 OA
HETATM   18  H   UNL     1     -39.720  54.516 -50.568  1.00  0.00     0.218 HD
ENDBRANCH  11  17
BRANCH  12  19
HETATM   19  O   UNL     1     -41.663  55.543 -50.826  1.00  0.00    -0.353 OA
HETATM   20  C   UNL     1     -41.964  56.928 -50.944  1.00  0.00     0.210 C 
ENDBRANCH  12  19
ENDBRANCH   7   8
ENDBRANCH   1   7
BRANCH   4  21
HETATM   21  N   UNL     1     -43.256  58.814 -57.460  1.00  0.00    -0.337 N 
HETATM   22  C   UNL     1     -42.195  59.277 -58.214  1.00  0.00     0.321 C 
HETATM   23  N   UNL     1     -42.220  60.646 -58.311  1.00  0.00    -0.309 N 
HETATM   24  O   UNL     1     -41.368  58.508 -58.686  1.00  0.00    -0.247 OA
HETATM   25  H   UNL     1     -42.780  61.130 -57.625  1.00  0.00     0.170 HD
HETATM   26  H   UNL     1     -44.070  59.418 -57.472  1.00  0.00     0.164 HD
BRANCH  23  27
HETATM   27  C   UNL     1     -41.402  61.461 -59.120  1.00  0.00     0.036 A 
HETATM   28  C   UNL     1     -40.335  62.218 -58.629  1.00  0.00     0.032 A 
HETATM   29  C   UNL     1     -39.550  62.978 -59.502  1.00  0.00     0.044 A 
HETATM   30  C   UNL     1     -39.834  62.981 -60.861  1.00  0.00     0.116 A 
HETATM   31  F   UNL     1     -39.080  63.707 -61.694  1.00  0.00    -0.206 F 
HETATM   32  C   UNL     1     -40.889  62.234 -61.367  1.00  0.00     0.044 A 
HETATM   33  C   UNL     1     -41.670  61.470 -60.497  1.00  0.00     0.032 A 
ENDBRANCH  23  27
ENDBRANCH   4  21
TORSDOF 8
ENDMDL
MODEL 6
REMARK VINA RESULT:      -7.2      6.461     10.213
REMARK  8 active torsions:
REMARK  status: ('A' for Active; 'I' for Inactive)
REMARK    1  A    between atoms: O_2  and  C_3 
REMARK    2  A    between atoms: C_4  and  O_5 
REMARK    3  A    between atoms: C_6  and  C_7 
REMARK    4  A    between atoms: C_7  and  C_8 
REMARK    5  A    between atoms: C_11  and  C_12 
REMARK    6  A    between atoms: C_12  and  N_13 
REMARK    7  A    between atoms: C_16  and  N_17 
REMARK       I    between atoms: N_17  and  C_18 
REMARK       I    between atoms: C_18  and  N_19 
REMARK    8  A    between atoms: N_19  and  C_20 
ROOT
HETATM    1  N   UNL     1     -44.648  57.561 -59.696  1.00  0.00    -0.065 N 
HETATM    2  H   UNL     1     -45.432  57.164 -60.235  1.00  0.00     0.280 HD
HETATM    3  C   UNL     1     -44.720  56.905 -58.323  1.00  0.00     0.260 C 
HETATM    4  C   UNL     1     -43.341  56.259 -58.124  1.00  0.00     0.113 C 
HETATM    5  C   UNL     1     -42.924  55.891 -59.541  1.00  0.00     0.054 C 
HETATM    6  C   UNL     1     -43.363  57.098 -60.346  1.00  0.00     0.237 C 
ENDROOT
BRANCH   1   7
HETATM    7  C   UNL     1     -44.814  59.056 -59.710  1.00  0.00     0.273 C 
BRANCH   7   8
HETATM    8  C   UNL     1     -43.592  59.798 -59.240  1.00  0.00    -0.029 A 
HETATM    9  C   UNL     1     -42.880  60.617 -60.132  1.00  0.00     0.019 A 
HETATM   10  C   UNL     1     -41.753  61.340 -59.708  1.00  0.00    -0.018 A 
HETATM   11  C   UNL     1     -41.368  61.239 -58.369  1.00  0.00     0.105 A 
HETATM   12  C   UNL     1     -42.052  60.418 -57.462  1.00  0.00     0.102 A 
HETATM   13  C   UNL     1     -43.162  59.698 -57.903  1.00  0.00     0.048 A 
BRANCH  10  14
HETATM   14  C   UNL     1     -41.010  62.218 -60.688  1.00  0.00     0.068 C 
BRANCH  14  15
HETATM   15  C   UNL     1     -41.295  61.838 -62.114  1.00  0.00    -0.032 C 
HETATM   16  C   UNL     1     -41.502  62.711 -63.108  1.00  0.00     0.007 C 
ENDBRANCH  14  15
ENDBRANCH  10  14
BRANCH  11  17
HETATM   17  O   UNL     1     -40.289  61.958 -57.929  1.00  0.00    -0.357 OA
HETATM   18  H   UNL     1     -40.208  62.721 -58.535  1.00  0.00     0.218 HD
ENDBRANCH  11  17
BRANCH  12  19
HETATM   19  O   UNL     1     -41.547  60.422 -56.188  1.00  0.00    -0.353 OA
HETATM   20  C   UNL     1     -42.293  59.741 -55.187  1.00  0.00     0.210 C 
ENDBRANCH  12  19
ENDBRANCH   7   8
ENDBRANCH   1   7
BRANCH   4  21
HETATM   21  N   UNL     1     -43.279  55.170 -57.167  1.00  0.00    -0.337 N 
HETATM   22  C   UNL     1     -42.499  55.232 -56.028  1.00  0.00     0.321 C 
HETATM   23  N   UNL     1     -42.637  54.092 -55.276  1.00  0.00    -0.309 N 
HETATM   24  O   UNL     1     -41.787  56.200 -55.798  1.00  0.00    -0.247 OA
HETATM   25  H   UNL     1     -43.016  53.287 -55.753  1.00  0.00     0.170 HD
HETATM   26  H   UNL     1     -44.101  54.585 -57.078  1.00  0.00     0.164 HD
BRANCH  23  27
HETATM   27  C   UNL     1     -42.128  53.855 -53.982  1.00  0.00     0.036 A 
HETATM   28  C   UNL     1     -42.787  54.236 -52.810  1.00  0.00     0.032 A 
HETATM   29  C   UNL     1     -42.232  53.937 -51.561  1.00  0.00     0.044 A 
HETATM   30  C   UNL     1     -41.022  53.260 -51.488  1.00  0.00     0.116 A 
HETATM   31  F   UNL     1     -40.495  52.973 -50.292  1.00  0.00    -0.206 F 
HETATM   32  C   UNL     1     -40.355  52.872 -52.641  1.00  0.00     0.044 A 
HETATM   33  C   UNL     1     -40.910  53.166 -53.889  1.00  0.00     0.032 A 
ENDBRANCH  23  27
ENDBRANCH   4  21
TORSDOF 8
ENDMDL
MODEL 7
REMARK VINA RESULT:      -7.1      6.043      8.601
REMARK  8 active torsions:
REMARK  status: ('A' for Active; 'I' for Inactive)
REMARK    1  A    between atoms: O_2  and  C_3 
REMARK    2  A    between atoms: C_4  and  O_5 
REMARK    3  A    between atoms: C_6  and  C_7 
REMARK    4  A    between atoms: C_7  and  C_8 
REMARK    5  A    between atoms: C_11  and  C_12 
REMARK    6  A    between atoms: C_12  and  N_13 
REMARK    7  A    between atoms: C_16  and  N_17 
REMARK       I    between atoms: N_17  and  C_18 
REMARK       I    between atoms: C_18  and  N_19 
REMARK    8  A    between atoms: N_19  and  C_20 
ROOT
HETATM    1  N   UNL     1     -42.359  55.182 -54.590  1.00  0.00    -0.065 N 
HETATM    2  H   UNL     1     -42.723  54.240 -54.388  1.00  0.00     0.280 HD
HETATM    3  C   UNL     1     -42.632  55.419 -56.070  1.00  0.00     0.260 C 
HETATM    4  C   UNL     1     -43.454  56.716 -56.115  1.00  0.00     0.113 C 
HETATM    5  C   UNL     1     -44.230  56.679 -54.807  1.00  0.00     0.054 C 
HETATM    6  C   UNL     1     -43.198  56.175 -53.816  1.00  0.00     0.237 C 
ENDROOT
BRANCH   1   7
HETATM    7  C   UNL     1     -40.910  55.192 -54.190  1.00  0.00     0.273 C 
BRANCH   7   8
HETATM    8  C   UNL     1     -40.490  53.962 -53.430  1.00  0.00    -0.029 A 
HETATM    9  C   UNL     1     -40.613  53.921 -52.032  1.00  0.00     0.019 A 
HETATM   10  C   UNL     1     -40.253  52.774 -51.306  1.00  0.00    -0.018 A 
HETATM   11  C   UNL     1     -39.787  51.665 -52.014  1.00  0.00     0.105 A 
HETATM   12  C   UNL     1     -39.641  51.683 -53.408  1.00  0.00     0.102 A 
HETATM   13  C   UNL     1     -39.992  52.835 -54.111  1.00  0.00     0.048 A 
BRANCH  10  14
HETATM   14  C   UNL     1     -40.402  52.757 -49.802  1.00  0.00     0.068 C 
BRANCH  14  15
HETATM   15  C   UNL     1     -40.101  54.098 -49.191  1.00  0.00    -0.032 C 
HETATM   16  C   UNL     1     -41.025  54.942 -48.717  1.00  0.00     0.007 C 
ENDBRANCH  14  15
ENDBRANCH  10  14
BRANCH  11  17
HETATM   17  O   UNL     1     -39.457  50.526 -51.328  1.00  0.00    -0.357 OA
HETATM   18  H   UNL     1     -38.510  50.612 -51.100  1.00  0.00     0.218 HD
ENDBRANCH  11  17
BRANCH  12  19
HETATM   19  O   UNL     1     -39.165  50.519 -53.952  1.00  0.00    -0.353 OA
HETATM   20  C   UNL     1     -40.054  49.767 -54.770  1.00  0.00     0.210 C 
ENDBRANCH  12  19
ENDBRANCH   7   8
ENDBRANCH   1   7
BRANCH   4  21
HETATM   21  N   UNL     1     -44.266  56.916 -57.301  1.00  0.00    -0.337 N 
HETATM   22  C   UNL     1     -44.371  58.143 -57.926  1.00  0.00     0.321 C 
HETATM   23  N   UNL     1     -45.172  58.063 -59.038  1.00  0.00    -0.309 N 
HETATM   24  O   UNL     1     -43.812  59.135 -57.476  1.00  0.00    -0.247 OA
HETATM   25  H   UNL     1     -45.783  57.261 -59.089  1.00  0.00     0.170 HD
HETATM   26  H   UNL     1     -44.384  56.122 -57.920  1.00  0.00     0.164 HD
BRANCH  23  27
HETATM   27  C   UNL     1     -45.387  59.060 -60.011  1.00  0.00     0.036 A 
HETATM   28  C   UNL     1     -46.618  59.687 -60.217  1.00  0.00     0.032 A 
HETATM   29  C   UNL     1     -46.744  60.692 -61.183  1.00  0.00     0.044 A 
HETATM   30  C   UNL     1     -45.641  61.064 -61.939  1.00  0.00     0.116 A 
HETATM   31  F   UNL     1     -45.764  62.026 -62.861  1.00  0.00    -0.206 F 
HETATM   32  C   UNL     1     -44.410  60.453 -61.748  1.00  0.00     0.044 A 
HETATM   33  C   UNL     1     -44.281  59.453 -60.780  1.00  0.00     0.032 A 
ENDBRANCH  23  27
ENDBRANCH   4  21
TORSDOF 8
ENDMDL
MODEL 8
REMARK VINA RESULT:      -7.1     18.400     21.052
REMARK  8 active torsions:
REMARK  status: ('A' for Active; 'I' for Inactive)
REMARK    1  A    between atoms: O_2  and  C_3 
REMARK    2  A    between atoms: C_4  and  O_5 
REMARK    3  A    between atoms: C_6  and  C_7 
REMARK    4  A    between atoms: C_7  and  C_8 
REMARK    5  A    between atoms: C_11  and  C_12 
REMARK    6  A    between atoms: C_12  and  N_13 
REMARK    7  A    between atoms: C_16  and  N_17 
REMARK       I    between atoms: N_17  and  C_18 
REMARK       I    between atoms: C_18  and  N_19 
REMARK    8  A    between atoms: N_19  and  C_20 
ROOT
HETATM    1  N   UNL     1     -32.847  39.536 -49.329  1.00  0.00    -0.065 N 
HETATM    2  H   UNL     1     -32.727  40.206 -48.555  1.00  0.00     0.280 HD
HETATM    3  C   UNL     1     -33.982  40.092 -50.180  1.00  0.00     0.260 C 
HETATM    4  C   UNL     1     -33.387  40.223 -51.590  1.00  0.00     0.113 C 
HETATM    5  C   UNL     1     -31.918  40.516 -51.320  1.00  0.00     0.054 C 
HETATM    6  C   UNL     1     -31.592  39.579 -50.173  1.00  0.00     0.237 C 
ENDROOT
BRANCH   1   7
HETATM    7  C   UNL     1     -33.100  38.188 -48.713  1.00  0.00     0.273 C 
BRANCH   7   8
HETATM    8  C   UNL     1     -32.947  38.176 -47.215  1.00  0.00    -0.029 A 
HETATM    9  C   UNL     1     -31.712  38.498 -46.631  1.00  0.00     0.019 A 
HETATM   10  C   UNL     1     -31.555  38.519 -45.236  1.00  0.00    -0.018 A 
HETATM   11  C   UNL     1     -32.666  38.229 -44.441  1.00  0.00     0.105 A 
HETATM   12  C   UNL     1     -33.907  37.890 -44.998  1.00  0.00     0.102 A 
HETATM   13  C   UNL     1     -34.042  37.863 -46.386  1.00  0.00     0.048 A 
BRANCH  10  14
HETATM   14  C   UNL     1     -30.215  38.876 -44.634  1.00  0.00     0.068 C 
BRANCH  14  15
HETATM   15  C   UNL     1     -29.781  40.266 -45.008  1.00  0.00    -0.032 C 
HETATM   16  C   UNL     1     -30.040  41.364 -44.286  1.00  0.00     0.007 C 
ENDBRANCH  14  15
ENDBRANCH  10  14
BRANCH  11  17
HETATM   17  O   UNL     1     -32.541  38.272 -43.078  1.00  0.00    -0.357 OA
HETATM   18  H   UNL     1     -33.334  38.740 -42.749  1.00  0.00     0.218 HD
ENDBRANCH  11  17
BRANCH  12  19
HETATM   19  O   UNL     1     -34.895  37.627 -44.087  1.00  0.00    -0.353 OA
HETATM   20  C   UNL     1     -36.162  37.223 -44.593  1.00  0.00     0.210 C 
ENDBRANCH  12  19
ENDBRANCH   7   8
ENDBRANCH   1   7
BRANCH   4  21
HETATM   21  N   UNL     1     -34.045  41.166 -52.475  1.00  0.00    -0.337 N 
HETATM   22  C   UNL     1     -34.474  40.816 -53.740  1.00  0.00     0.321 C 
HETATM   23  N   UNL     1     -35.089  41.874 -54.362  1.00  0.00    -0.309 N 
HETATM   24  O   UNL     1     -34.278  39.695 -54.190  1.00  0.00    -0.247 OA
HETATM   25  H   UNL     1     -34.898  42.788 -53.978  1.00  0.00     0.170 HD
HETATM   26  H   UNL     1     -34.583  41.908 -52.042  1.00  0.00     0.164 HD
BRANCH  23  27
HETATM   27  C   UNL     1     -35.790  41.858 -55.585  1.00  0.00     0.036 A 
HETATM   28  C   UNL     1     -35.191  42.107 -56.823  1.00  0.00     0.032 A 
HETATM   29  C   UNL     1     -35.948  42.041 -57.997  1.00  0.00     0.044 A 
HETATM   30  C   UNL     1     -37.299  41.729 -57.931  1.00  0.00     0.116 A 
HETATM   31  F   UNL     1     -38.020  41.665 -59.057  1.00  0.00    -0.206 F 
HETATM   32  C   UNL     1     -37.911  41.478 -56.711  1.00  0.00     0.044 A 
HETATM   33  C   UNL     1     -37.154  41.538 -55.538  1.00  0.00     0.032 A 
ENDBRANCH  23  27
ENDBRANCH   4  21
TORSDOF 8
ENDMDL
MODEL 9
REMARK VINA RESULT:      -7.1      6.245     10.183
REMARK  8 active torsions:
REMARK  status: ('A' for Active; 'I' for Inactive)
REMARK    1  A    between atoms: O_2  and  C_3 
REMARK    2  A    between atoms: C_4  and  O_5 
REMARK    3  A    between atoms: C_6  and  C_7 
REMARK    4  A    between atoms: C_7  and  C_8 
REMARK    5  A    between atoms: C_11  and  C_12 
REMARK    6  A    between atoms: C_12  and  N_13 
REMARK    7  A    between atoms: C_16  and  N_17 
REMARK       I    between atoms: N_17  and  C_18 
REMARK       I    between atoms: C_18  and  N_19 
REMARK    8  A    between atoms: N_19  and  C_20 
ROOT
HETATM    1  N   UNL     1     -44.342  57.584 -60.101  1.00  0.00    -0.065 N 
HETATM    2  H   UNL     1     -44.939  57.102 -60.788  1.00  0.00     0.280 HD
HETATM    3  C   UNL     1     -44.700  56.978 -58.750  1.00  0.00     0.260 C 
HETATM    4  C   UNL     1     -43.368  56.460 -58.187  1.00  0.00     0.113 C 
HETATM    5  C   UNL     1     -42.591  56.074 -59.438  1.00  0.00     0.054 C 
HETATM    6  C   UNL     1     -42.907  57.208 -60.394  1.00  0.00     0.237 C 
ENDROOT
BRANCH   1   7
HETATM    7  C   UNL     1     -44.609  59.058 -60.240  1.00  0.00     0.273 C 
BRANCH   7   8
HETATM    8  C   UNL     1     -43.584  59.920 -59.554  1.00  0.00    -0.029 A 
HETATM    9  C   UNL     1     -43.573  60.021 -58.153  1.00  0.00     0.019 A 
HETATM   10  C   UNL     1     -42.609  60.798 -57.491  1.00  0.00    -0.018 A 
HETATM   11  C   UNL     1     -41.646  61.454 -58.261  1.00  0.00     0.105 A 
HETATM   12  C   UNL     1     -41.643  61.382 -59.661  1.00  0.00     0.102 A 
HETATM   13  C   UNL     1     -42.615  60.615 -60.303  1.00  0.00     0.048 A 
BRANCH  10  14
HETATM   14  C   UNL     1     -42.618  60.883 -55.982  1.00  0.00     0.068 C 
BRANCH  14  15
HETATM   15  C   UNL     1     -42.092  59.628 -55.343  1.00  0.00    -0.032 C 
HETATM   16  C   UNL     1     -41.646  59.544 -54.084  1.00  0.00     0.007 C 
ENDBRANCH  14  15
ENDBRANCH  10  14
BRANCH  11  17
HETATM   17  O   UNL     1     -40.680  62.194 -57.633  1.00  0.00    -0.357 OA
HETATM   18  H   UNL     1     -41.155  62.857 -57.094  1.00  0.00     0.218 HD
ENDBRANCH  11  17
BRANCH  12  19
HETATM   19  O   UNL     1     -40.639  62.087 -60.272  1.00  0.00    -0.353 OA
HETATM   20  C   UNL     1     -40.766  62.331 -61.667  1.00  0.00     0.210 C 
ENDBRANCH  12  19
ENDBRANCH   7   8
ENDBRANCH   1   7
BRANCH   4  21
HETATM   21  N   UNL     1     -43.462  55.418 -57.182  1.00  0.00    -0.337 N 
HETATM   22  C   UNL     1     -42.626  55.375 -56.083  1.00  0.00     0.321 C 
HETATM   23  N   UNL     1     -42.937  54.313 -55.270  1.00  0.00    -0.309 N 
HETATM   24  O   UNL     1     -41.732  56.197 -55.932  1.00  0.00    -0.247 OA
HETATM   25  H   UNL     1     -43.486  53.577 -55.689  1.00  0.00     0.170 HD
HETATM   26  H   UNL     1     -44.375  55.006 -57.027  1.00  0.00     0.164 HD
BRANCH  23  27
HETATM   27  C   UNL     1     -42.415  54.034 -53.990  1.00  0.00     0.036 A 
HETATM   28  C   UNL     1     -43.066  54.367 -52.799  1.00  0.00     0.032 A 
HETATM   29  C   UNL     1     -42.497  54.028 -51.567  1.00  0.00     0.044 A 
HETATM   30  C   UNL     1     -41.280  53.360 -51.529  1.00  0.00     0.116 A 
HETATM   31  F   UNL     1     -40.740  53.036 -50.348  1.00  0.00    -0.206 F 
HETATM   32  C   UNL     1     -40.620  53.021 -52.701  1.00  0.00     0.044 A 
HETATM   33  C   UNL     1     -41.190  53.354 -53.933  1.00  0.00     0.032 A 
ENDBRANCH  23  27
ENDBRANCH   4  21
TORSDOF 8
ENDMDL
MODEL 10
REMARK VINA RESULT:      -7.0      5.545      9.809
REMARK  8 active torsions:
REMARK  status: ('A' for Active; 'I' for Inactive)
REMARK    1  A    between atoms: O_2  and  C_3 
REMARK    2  A    between atoms: C_4  and  O_5 
REMARK    3  A    between atoms: C_6  and  C_7 
REMARK    4  A    between atoms: C_7  and  C_8 
REMARK    5  A    between atoms: C_11  and  C_12 
REMARK    6  A    between atoms: C_12  and  N_13 
REMARK    7  A    between atoms: C_16  and  N_17 
REMARK       I    between atoms: N_17  and  C_18 
REMARK       I    between atoms: C_18  and  N_19 
REMARK    8  A    between atoms: N_19  and  C_20 
ROOT
HETATM    1  N   UNL     1     -43.845  58.973 -53.491  1.00  0.00    -0.065 N 
HETATM    2  H   UNL     1     -43.546  59.819 -52.985  1.00  0.00     0.280 HD
HETATM    3  C   UNL     1     -42.592  58.118 -53.633  1.00  0.00     0.260 C 
HETATM    4  C   UNL     1     -42.964  56.769 -52.998  1.00  0.00     0.113 C 
HETATM    5  C   UNL     1     -43.959  57.159 -51.914  1.00  0.00     0.054 C 
HETATM    6  C   UNL     1     -44.803  58.217 -52.597  1.00  0.00     0.237 C 
ENDROOT
BRANCH   1   7
HETATM    7  C   UNL     1     -44.469  59.426 -54.781  1.00  0.00     0.273 C 
BRANCH   7   8
HETATM    8  C   UNL     1     -43.695  59.005 -56.001  1.00  0.00    -0.029 A 
HETATM    9  C   UNL     1     -42.840  59.917 -56.642  1.00  0.00     0.019 A 
HETATM   10  C   UNL     1     -42.088  59.538 -57.765  1.00  0.00    -0.018 A 
HETATM   11  C   UNL     1     -42.198  58.222 -58.220  1.00  0.00     0.105 A 
HETATM   12  C   UNL     1     -43.055  57.296 -57.609  1.00  0.00     0.102 A 
HETATM   13  C   UNL     1     -43.803  57.693 -56.501  1.00  0.00     0.048 A 
BRANCH  10  14
HETATM   14  C   UNL     1     -41.170  60.538 -58.430  1.00  0.00     0.068 C 
BRANCH  14  15
HETATM   15  C   UNL     1     -41.808  61.175 -59.633  1.00  0.00    -0.032 C 
HETATM   16  C   UNL     1     -41.178  61.992 -60.485  1.00  0.00     0.007 C 
ENDBRANCH  14  15
ENDBRANCH  10  14
BRANCH  11  17
HETATM   17  O   UNL     1     -41.451  57.824 -59.297  1.00  0.00    -0.357 OA
HETATM   18  H   UNL     1     -41.903  57.037 -59.663  1.00  0.00     0.218 HD
ENDBRANCH  11  17
BRANCH  12  19
HETATM   19  O   UNL     1     -43.055  56.049 -58.177  1.00  0.00    -0.353 OA
HETATM   20  C   UNL     1     -44.085  55.756 -59.113  1.00  0.00     0.210 C 
ENDBRANCH  12  19
ENDBRANCH   7   8
ENDBRANCH   1   7
BRANCH   4  21
HETATM   21  N   UNL     1     -41.856  55.950 -52.544  1.00  0.00    -0.337 N 
HETATM   22  C   UNL     1     -41.855  54.574 -52.666  1.00  0.00     0.321 C 
HETATM   23  N   UNL     1     -40.684  54.039 -52.190  1.00  0.00    -0.309 N 
HETATM   24  O   UNL     1     -42.817  53.977 -53.129  1.00  0.00    -0.247 OA
HETATM   25  H   UNL     1     -40.140  54.630 -51.578  1.00  0.00     0.170 HD
HETATM   26  H   UNL     1     -40.934  56.371 -52.559  1.00  0.00     0.164 HD
BRANCH  23  27
HETATM   27  C   UNL     1     -40.253  52.700 -52.289  1.00  0.00     0.036 A 
HETATM   28  C   UNL     1     -39.995  51.886 -51.183  1.00  0.00     0.032 A 
HETATM   29  C   UNL     1     -39.601  50.556 -51.365  1.00  0.00     0.044 A 
HETATM   30  C   UNL     1     -39.464  50.046 -52.649  1.00  0.00     0.116 A 
HETATM   31  F   UNL     1     -39.088  48.772 -52.819  1.00  0.00    -0.206 F 
HETATM   32  C   UNL     1     -39.717  50.839 -53.759  1.00  0.00     0.044 A 
HETATM   33  C   UNL     1     -40.116  52.166 -53.579  1.00  0.00     0.032 A 
ENDBRANCH  23  27
ENDBRANCH   4  21
TORSDOF 8
ENDMDL
