MODEL 1
REMARK VINA RESULT:      -8.2      0.000      0.000
REMARK  6 active torsions:
REMARK  status: ('A' for Active; 'I' for Inactive)
REMARK    1  A    between atoms: N_3  and  C_4 
REMARK    2  A    between atoms: C_12  and  C_13 
REMARK       I    between atoms: C_13  and  N_14 
REMARK    3  A    between atoms: N_14  and  N_15 
REMARK       I    between atoms: N_15  and  C_16 
REMARK    4  A    between atoms: C_16  and  C_17 
REMARK    5  A    between atoms: C_17  and  C_18 
REMARK    6  A    between atoms: C_21  and  O_22 
ROOT
HETATM    1  C   UNL     1     -43.040  56.975 -57.357  1.00  0.00     0.272 C 
HETATM    2  N   UNL     1     -43.008  55.833 -56.584  1.00  0.00    -0.263 N 
HETATM    3  O   UNL     1     -42.019  57.617 -57.602  1.00  0.00    -0.266 OA
HETATM    4  H   UNL     1     -43.795  55.196 -56.506  1.00  0.00     0.190 HD
ENDROOT
BRANCH   1   5
HETATM    5  C   UNL     1     -44.345  57.333 -57.911  1.00  0.00     0.058 A 
HETATM    6  C   UNL     1     -44.852  57.106 -59.191  1.00  0.00     0.029 A 
HETATM    7  N   UNL     1     -46.136  57.663 -59.263  1.00  0.00    -0.319 N 
HETATM    8  C   UNL     1     -44.259  56.290 -60.299  1.00  0.00     0.070 C 
HETATM    9  C   UNL     1     -46.464  58.157 -58.004  1.00  0.00     0.014 A 
HETATM   10  C   UNL     1     -47.720  58.886 -57.666  1.00  0.00     0.068 C 
HETATM   11  C   UNL     1     -45.389  57.939 -57.169  1.00  0.00     0.044 A 
BRANCH   7  12
HETATM   12  C   UNL     1     -46.961  57.724 -60.427  1.00  0.00     0.039 A 
HETATM   13  C   UNL     1     -47.206  58.954 -61.050  1.00  0.00     0.030 A 
HETATM   14  C   UNL     1     -48.027  59.016 -62.180  1.00  0.00     0.002 A 
HETATM   15  C   UNL     1     -48.604  57.854 -62.691  1.00  0.00     0.000 A 
HETATM   16  C   UNL     1     -48.359  56.627 -62.076  1.00  0.00     0.002 A 
HETATM   17  C   UNL     1     -47.540  56.559 -60.947  1.00  0.00     0.030 A 
ENDBRANCH   7  12
ENDBRANCH   1   5
BRANCH   2  18
HETATM   18  N   UNL     1     -41.771  55.382 -56.111  1.00  0.00    -0.267 N 
HETATM   19  C   UNL     1     -41.748  54.531 -55.026  1.00  0.00     0.240 C 
HETATM   20  O   UNL     1     -42.774  54.063 -54.531  1.00  0.00    -0.272 OA
HETATM   21  H   UNL     1     -40.945  55.826 -56.509  1.00  0.00     0.190 HD
BRANCH  19  22
HETATM   22  C   UNL     1     -40.356  54.243 -54.490  1.00  0.00     0.143 C 
BRANCH  22  23
HETATM   23  C   UNL     1     -40.185  52.842 -53.957  1.00  0.00    -0.049 A 
HETATM   24  C   UNL     1     -40.279  51.733 -54.812  1.00  0.00     0.010 A 
HETATM   25  C   UNL     1     -40.075  50.439 -54.324  1.00  0.00     0.037 A 
HETATM   26  C   UNL     1     -39.779  50.253 -52.978  1.00  0.00     0.065 A 
HETATM   27  C   UNL     1     -39.691  51.337 -52.114  1.00  0.00     0.037 A 
HETATM   28  C   UNL     1     -39.892  52.629 -52.602  1.00  0.00     0.010 A 
BRANCH  26  29
HETATM   29  O   UNL     1     -39.560  49.009 -52.463  1.00  0.00    -0.361 OA
HETATM   30  H   UNL     1     -40.324  48.761 -51.917  1.00  0.00     0.217 HD
ENDBRANCH  26  29
ENDBRANCH  22  23
ENDBRANCH  19  22
ENDBRANCH   2  18
TORSDOF 6
ENDMDL
MODEL 2
REMARK VINA RESULT:      -8.2      1.459      2.327
REMARK  6 active torsions:
REMARK  status: ('A' for Active; 'I' for Inactive)
REMARK    1  A    between atoms: N_3  and  C_4 
REMARK    2  A    between atoms: C_12  and  C_13 
REMARK       I    between atoms: C_13  and  N_14 
REMARK    3  A    between atoms: N_14  and  N_15 
REMARK       I    between atoms: N_15  and  C_16 
REMARK    4  A    between atoms: C_16  and  C_17 
REMARK    5  A    between atoms: C_17  and  C_18 
REMARK    6  A    between atoms: C_21  and  O_22 
ROOT
HETATM    1  C   UNL     1     -42.519  56.422 -56.740  1.00  0.00     0.272 C 
HETATM    2  N   UNL     1     -42.158  55.098 -56.605  1.00  0.00    -0.263 N 
HETATM    3  O   UNL     1     -42.066  57.293 -55.997  1.00  0.00    -0.266 OA
HETATM    4  H   UNL     1     -42.379  54.391 -57.301  1.00  0.00     0.190 HD
ENDROOT
BRANCH   1   5
HETATM    5  C   UNL     1     -43.417  56.728 -57.853  1.00  0.00     0.058 A 
HETATM    6  C   UNL     1     -44.064  57.925 -58.161  1.00  0.00     0.029 A 
HETATM    7  N   UNL     1     -44.850  57.722 -59.303  1.00  0.00    -0.319 N 
HETATM    8  C   UNL     1     -43.888  59.271 -57.527  1.00  0.00     0.070 C 
HETATM    9  C   UNL     1     -44.623  56.427 -59.759  1.00  0.00     0.014 A 
HETATM   10  C   UNL     1     -45.312  55.789 -60.917  1.00  0.00     0.068 C 
HETATM   11  C   UNL     1     -43.735  55.822 -58.896  1.00  0.00     0.044 A 
BRANCH   7  12
HETATM   12  C   UNL     1     -45.736  58.674 -59.893  1.00  0.00     0.039 A 
HETATM   13  C   UNL     1     -45.250  59.603 -60.822  1.00  0.00     0.030 A 
HETATM   14  C   UNL     1     -46.113  60.546 -61.388  1.00  0.00     0.002 A 
HETATM   15  C   UNL     1     -47.461  60.563 -61.030  1.00  0.00     0.000 A 
HETATM   16  C   UNL     1     -47.950  59.638 -60.109  1.00  0.00     0.002 A 
HETATM   17  C   UNL     1     -47.092  58.694 -59.540  1.00  0.00     0.030 A 
ENDBRANCH   7  12
ENDBRANCH   1   5
BRANCH   2  18
HETATM   18  N   UNL     1     -41.220  54.758 -55.624  1.00  0.00    -0.267 N 
HETATM   19  C   UNL     1     -41.671  54.232 -54.432  1.00  0.00     0.240 C 
HETATM   20  O   UNL     1     -42.853  53.944 -54.242  1.00  0.00    -0.272 OA
HETATM   21  H   UNL     1     -40.260  55.055 -55.793  1.00  0.00     0.190 HD
BRANCH  19  22
HETATM   22  C   UNL     1     -40.591  54.062 -53.379  1.00  0.00     0.143 C 
BRANCH  22  23
HETATM   23  C   UNL     1     -40.203  52.625 -53.127  1.00  0.00    -0.049 A 
HETATM   24  C   UNL     1     -39.813  52.202 -51.847  1.00  0.00     0.010 A 
HETATM   25  C   UNL     1     -39.498  50.862 -51.606  1.00  0.00     0.037 A 
HETATM   26  C   UNL     1     -39.570  49.943 -52.647  1.00  0.00     0.065 A 
HETATM   27  C   UNL     1     -39.945  50.344 -53.924  1.00  0.00     0.037 A 
HETATM   28  C   UNL     1     -40.261  51.682 -54.163  1.00  0.00     0.010 A 
BRANCH  26  29
HETATM   29  O   UNL     1     -39.284  48.624 -52.454  1.00  0.00    -0.361 OA
HETATM   30  H   UNL     1     -39.671  48.112 -53.182  1.00  0.00     0.217 HD
ENDBRANCH  26  29
ENDBRANCH  22  23
ENDBRANCH  19  22
ENDBRANCH   2  18
TORSDOF 6
ENDMDL
MODEL 3
REMARK VINA RESULT:      -8.2      5.664      7.719
REMARK  6 active torsions:
REMARK  status: ('A' for Active; 'I' for Inactive)
REMARK    1  A    between atoms: N_3  and  C_4 
REMARK    2  A    between atoms: C_12  and  C_13 
REMARK       I    between atoms: C_13  and  N_14 
REMARK    3  A    between atoms: N_14  and  N_15 
REMARK       I    between atoms: N_15  and  C_16 
REMARK    4  A    between atoms: C_16  and  C_17 
REMARK    5  A    between atoms: C_17  and  C_18 
REMARK    6  A    between atoms: C_21  and  O_22 
ROOT
HETATM    1  C   UNL     1     -41.392  57.976 -53.058  1.00  0.00     0.272 C 
HETATM    2  N   UNL     1     -41.834  56.697 -53.324  1.00  0.00    -0.263 N 
HETATM    3  O   UNL     1     -40.234  58.321 -53.296  1.00  0.00    -0.266 OA
HETATM    4  H   UNL     1     -42.816  56.435 -53.298  1.00  0.00     0.190 HD
ENDROOT
BRANCH   1   5
HETATM    5  C   UNL     1     -42.396  58.903 -52.538  1.00  0.00     0.058 A 
HETATM    6  C   UNL     1     -42.355  59.695 -51.390  1.00  0.00     0.029 A 
HETATM    7  N   UNL     1     -43.567  60.390 -51.287  1.00  0.00    -0.319 N 
HETATM    8  C   UNL     1     -41.203  59.934 -50.462  1.00  0.00     0.070 C 
HETATM    9  C   UNL     1     -44.327  60.101 -52.417  1.00  0.00     0.014 A 
HETATM   10  C   UNL     1     -45.713  60.589 -52.670  1.00  0.00     0.068 C 
HETATM   11  C   UNL     1     -43.612  59.215 -53.194  1.00  0.00     0.044 A 
BRANCH   7  12
HETATM   12  C   UNL     1     -43.961  61.239 -50.209  1.00  0.00     0.039 A 
HETATM   13  C   UNL     1     -44.717  60.723 -49.150  1.00  0.00     0.030 A 
HETATM   14  C   UNL     1     -45.117  61.558 -48.102  1.00  0.00     0.002 A 
HETATM   15  C   UNL     1     -44.762  62.906 -48.107  1.00  0.00     0.000 A 
HETATM   16  C   UNL     1     -44.006  63.423 -49.157  1.00  0.00     0.002 A 
HETATM   17  C   UNL     1     -43.604  62.594 -50.207  1.00  0.00     0.030 A 
ENDBRANCH   7  12
ENDBRANCH   1   5
BRANCH   2  18
HETATM   18  N   UNL     1     -40.947  55.794 -53.920  1.00  0.00    -0.267 N 
HETATM   19  C   UNL     1     -41.377  54.506 -54.161  1.00  0.00     0.240 C 
HETATM   20  O   UNL     1     -42.543  54.153 -53.978  1.00  0.00    -0.272 OA
HETATM   21  H   UNL     1     -39.980  56.103 -54.010  1.00  0.00     0.190 HD
BRANCH  19  22
HETATM   22  C   UNL     1     -40.287  53.568 -54.647  1.00  0.00     0.143 C 
BRANCH  22  23
HETATM   23  C   UNL     1     -40.097  52.349 -53.776  1.00  0.00    -0.049 A 
HETATM   24  C   UNL     1     -40.101  51.062 -54.335  1.00  0.00     0.010 A 
HETATM   25  C   UNL     1     -39.880  49.939 -53.533  1.00  0.00     0.037 A 
HETATM   26  C   UNL     1     -39.658  50.102 -52.170  1.00  0.00     0.065 A 
HETATM   27  C   UNL     1     -39.660  51.367 -51.597  1.00  0.00     0.037 A 
HETATM   28  C   UNL     1     -39.878  52.489 -52.398  1.00  0.00     0.010 A 
BRANCH  26  29
HETATM   29  O   UNL     1     -39.425  49.034 -51.354  1.00  0.00    -0.361 OA
HETATM   30  H   UNL     1     -38.466  48.930 -51.245  1.00  0.00     0.217 HD
ENDBRANCH  26  29
ENDBRANCH  22  23
ENDBRANCH  19  22
ENDBRANCH   2  18
TORSDOF 6
ENDMDL
MODEL 4
REMARK VINA RESULT:      -8.1      6.121      7.082
REMARK  6 active torsions:
REMARK  status: ('A' for Active; 'I' for Inactive)
REMARK    1  A    between atoms: N_3  and  C_4 
REMARK    2  A    between atoms: C_12  and  C_13 
REMARK       I    between atoms: C_13  and  N_14 
REMARK    3  A    between atoms: N_14  and  N_15 
REMARK       I    between atoms: N_15  and  C_16 
REMARK    4  A    between atoms: C_16  and  C_17 
REMARK    5  A    between atoms: C_17  and  C_18 
REMARK    6  A    between atoms: C_21  and  O_22 
ROOT
HETATM    1  C   UNL     1     -42.723  55.975 -52.202  1.00  0.00     0.272 C 
HETATM    2  N   UNL     1     -42.817  55.548 -53.509  1.00  0.00    -0.263 N 
HETATM    3  O   UNL     1     -42.124  55.318 -51.349  1.00  0.00    -0.266 OA
HETATM    4  H   UNL     1     -43.153  56.142 -54.262  1.00  0.00     0.190 HD
ENDROOT
BRANCH   1   5
HETATM    5  C   UNL     1     -43.323  57.276 -51.911  1.00  0.00     0.058 A 
HETATM    6  C   UNL     1     -42.783  58.553 -52.073  1.00  0.00     0.029 A 
HETATM    7  N   UNL     1     -43.721  59.491 -51.623  1.00  0.00    -0.319 N 
HETATM    8  C   UNL     1     -41.501  58.946 -52.741  1.00  0.00     0.070 C 
HETATM    9  C   UNL     1     -44.879  58.806 -51.265  1.00  0.00     0.014 A 
HETATM   10  C   UNL     1     -46.099  59.428 -50.676  1.00  0.00     0.068 C 
HETATM   11  C   UNL     1     -44.653  57.460 -51.459  1.00  0.00     0.044 A 
BRANCH   7  12
HETATM   12  C   UNL     1     -43.523  60.903 -51.537  1.00  0.00     0.039 A 
HETATM   13  C   UNL     1     -43.006  61.468 -50.365  1.00  0.00     0.030 A 
HETATM   14  C   UNL     1     -42.827  62.851 -50.273  1.00  0.00     0.002 A 
HETATM   15  C   UNL     1     -43.162  63.672 -51.349  1.00  0.00     0.000 A 
HETATM   16  C   UNL     1     -43.673  63.114 -52.519  1.00  0.00     0.002 A 
HETATM   17  C   UNL     1     -43.855  61.732 -52.615  1.00  0.00     0.030 A 
ENDBRANCH   7  12
ENDBRANCH   1   5
BRANCH   2  18
HETATM   18  N   UNL     1     -42.174  54.360 -53.872  1.00  0.00    -0.267 N 
HETATM   19  C   UNL     1     -40.904  54.431 -54.405  1.00  0.00     0.240 C 
HETATM   20  O   UNL     1     -40.272  55.486 -54.469  1.00  0.00    -0.272 OA
HETATM   21  H   UNL     1     -42.742  53.514 -53.853  1.00  0.00     0.190 HD
BRANCH  19  22
HETATM   22  C   UNL     1     -40.371  53.106 -54.921  1.00  0.00     0.143 C 
BRANCH  22  23
HETATM   23  C   UNL     1     -40.110  52.088 -53.838  1.00  0.00    -0.049 A 
HETATM   24  C   UNL     1     -39.969  50.727 -54.151  1.00  0.00     0.010 A 
HETATM   25  C   UNL     1     -39.682  49.794 -53.152  1.00  0.00     0.037 A 
HETATM   26  C   UNL     1     -39.541  50.219 -51.836  1.00  0.00     0.065 A 
HETATM   27  C   UNL     1     -39.688  51.560 -51.504  1.00  0.00     0.037 A 
HETATM   28  C   UNL     1     -39.971  52.493 -52.502  1.00  0.00     0.010 A 
BRANCH  26  29
HETATM   29  O   UNL     1     -39.249  49.343 -50.832  1.00  0.00    -0.361 OA
HETATM   30  H   UNL     1     -40.066  48.886 -50.573  1.00  0.00     0.217 HD
ENDBRANCH  26  29
ENDBRANCH  22  23
ENDBRANCH  19  22
ENDBRANCH   2  18
TORSDOF 6
ENDMDL
MODEL 5
REMARK VINA RESULT:      -8.0      2.531      3.508
REMARK  6 active torsions:
REMARK  status: ('A' for Active; 'I' for Inactive)
REMARK    1  A    between atoms: N_3  and  C_4 
REMARK    2  A    between atoms: C_12  and  C_13 
REMARK       I    between atoms: C_13  and  N_14 
REMARK    3  A    between atoms: N_14  and  N_15 
REMARK       I    between atoms: N_15  and  C_16 
REMARK    4  A    between atoms: C_16  and  C_17 
REMARK    5  A    between atoms: C_17  and  C_18 
REMARK    6  A    between atoms: C_21  and  O_22 
ROOT
HETATM    1  C   UNL     1     -42.855  56.612 -55.727  1.00  0.00     0.272 C 
HETATM    2  N   UNL     1     -42.561  55.284 -55.507  1.00  0.00    -0.263 N 
HETATM    3  O   UNL     1     -42.887  57.428 -54.805  1.00  0.00    -0.266 OA
HETATM    4  H   UNL     1     -42.363  54.629 -56.258  1.00  0.00     0.190 HD
ENDROOT
BRANCH   1   5
HETATM    5  C   UNL     1     -43.066  56.996 -57.122  1.00  0.00     0.058 A 
HETATM    6  C   UNL     1     -42.827  58.221 -57.746  1.00  0.00     0.029 A 
HETATM    7  N   UNL     1     -43.218  58.119 -59.088  1.00  0.00    -0.319 N 
HETATM    8  C   UNL     1     -42.136  59.431 -57.194  1.00  0.00     0.070 C 
HETATM    9  C   UNL     1     -43.616  56.806 -59.322  1.00  0.00     0.014 A 
HETATM   10  C   UNL     1     -44.166  56.290 -60.608  1.00  0.00     0.068 C 
HETATM   11  C   UNL     1     -43.505  56.110 -58.137  1.00  0.00     0.044 A 
BRANCH   7  12
HETATM   12  C   UNL     1     -43.218  59.178 -60.046  1.00  0.00     0.039 A 
HETATM   13  C   UNL     1     -42.072  59.431 -60.810  1.00  0.00     0.030 A 
HETATM   14  C   UNL     1     -42.065  60.478 -61.737  1.00  0.00     0.002 A 
HETATM   15  C   UNL     1     -43.199  61.271 -61.905  1.00  0.00     0.000 A 
HETATM   16  C   UNL     1     -44.343  61.019 -61.149  1.00  0.00     0.002 A 
HETATM   17  C   UNL     1     -44.356  59.976 -60.221  1.00  0.00     0.030 A 
ENDBRANCH   7  12
ENDBRANCH   1   5
BRANCH   2  18
HETATM   18  N   UNL     1     -42.248  54.876 -54.206  1.00  0.00    -0.267 N 
HETATM   19  C   UNL     1     -40.921  54.764 -53.848  1.00  0.00     0.240 C 
HETATM   20  O   UNL     1     -40.005  55.117 -54.591  1.00  0.00    -0.272 OA
HETATM   21  H   UNL     1     -43.026  54.544 -53.637  1.00  0.00     0.190 HD
BRANCH  19  22
HETATM   22  C   UNL     1     -40.696  54.151 -52.478  1.00  0.00     0.143 C 
BRANCH  22  23
HETATM   23  C   UNL     1     -40.274  52.702 -52.518  1.00  0.00    -0.049 A 
HETATM   24  C   UNL     1     -39.914  52.027 -51.341  1.00  0.00     0.010 A 
HETATM   25  C   UNL     1     -39.568  50.674 -51.376  1.00  0.00     0.037 A 
HETATM   26  C   UNL     1     -39.577  49.994 -52.588  1.00  0.00     0.065 A 
HETATM   27  C   UNL     1     -39.921  50.647 -53.765  1.00  0.00     0.037 A 
HETATM   28  C   UNL     1     -40.269  51.997 -53.731  1.00  0.00     0.010 A 
BRANCH  26  29
HETATM   29  O   UNL     1     -39.258  48.670 -52.665  1.00  0.00    -0.361 OA
HETATM   30  H   UNL     1     -38.299  48.575 -52.547  1.00  0.00     0.217 HD
ENDBRANCH  26  29
ENDBRANCH  22  23
ENDBRANCH  19  22
ENDBRANCH   2  18
TORSDOF 6
ENDMDL
MODEL 6
REMARK VINA RESULT:      -7.8      5.140      6.157
REMARK  6 active torsions:
REMARK  status: ('A' for Active; 'I' for Inactive)
REMARK    1  A    between atoms: N_3  and  C_4 
REMARK    2  A    between atoms: C_12  and  C_13 
REMARK       I    between atoms: C_13  and  N_14 
REMARK    3  A    between atoms: N_14  and  N_15 
REMARK       I    between atoms: N_15  and  C_16 
REMARK    4  A    between atoms: C_16  and  C_17 
REMARK    5  A    between atoms: C_17  and  C_18 
REMARK    6  A    between atoms: C_21  and  O_22 
ROOT
HETATM    1  C   UNL     1     -41.497  56.484 -52.723  1.00  0.00     0.272 C 
HETATM    2  N   UNL     1     -41.271  56.315 -54.073  1.00  0.00    -0.263 N 
HETATM    3  O   UNL     1     -41.050  55.696 -51.890  1.00  0.00    -0.266 OA
HETATM    4  H   UNL     1     -41.479  57.031 -54.763  1.00  0.00     0.190 HD
ENDROOT
BRANCH   1   5
HETATM    5  C   UNL     1     -42.242  57.685 -52.348  1.00  0.00     0.058 A 
HETATM    6  C   UNL     1     -43.470  58.146 -52.823  1.00  0.00     0.029 A 
HETATM    7  N   UNL     1     -43.762  59.361 -52.191  1.00  0.00    -0.319 N 
HETATM    8  C   UNL     1     -44.439  57.452 -53.731  1.00  0.00     0.070 C 
HETATM    9  C   UNL     1     -42.761  59.613 -51.257  1.00  0.00     0.014 A 
HETATM   10  C   UNL     1     -42.660  60.838 -50.413  1.00  0.00     0.068 C 
HETATM   11  C   UNL     1     -41.844  58.587 -51.330  1.00  0.00     0.044 A 
BRANCH   7  12
HETATM   12  C   UNL     1     -44.885  60.201 -52.462  1.00  0.00     0.039 A 
HETATM   13  C   UNL     1     -44.819  61.149 -53.491  1.00  0.00     0.030 A 
HETATM   14  C   UNL     1     -45.911  61.983 -53.746  1.00  0.00     0.002 A 
HETATM   15  C   UNL     1     -47.070  61.873 -52.978  1.00  0.00     0.000 A 
HETATM   16  C   UNL     1     -47.141  60.929 -51.956  1.00  0.00     0.002 A 
HETATM   17  C   UNL     1     -46.053  60.093 -51.696  1.00  0.00     0.030 A 
ENDBRANCH   7  12
ENDBRANCH   1   5
BRANCH   2  18
HETATM   18  N   UNL     1     -40.475  55.240 -54.487  1.00  0.00    -0.267 N 
HETATM   19  C   UNL     1     -41.080  54.025 -54.731  1.00  0.00     0.240 C 
HETATM   20  O   UNL     1     -42.302  53.879 -54.710  1.00  0.00    -0.272 OA
HETATM   21  H   UNL     1     -39.467  55.382 -54.445  1.00  0.00     0.190 HD
BRANCH  19  22
HETATM   22  C   UNL     1     -40.108  52.891 -55.005  1.00  0.00     0.143 C 
BRANCH  22  23
HETATM   23  C   UNL     1     -39.960  51.922 -53.857  1.00  0.00    -0.049 A 
HETATM   24  C   UNL     1     -39.850  50.543 -54.092  1.00  0.00     0.010 A 
HETATM   25  C   UNL     1     -39.668  49.653 -53.030  1.00  0.00     0.037 A 
HETATM   26  C   UNL     1     -39.600  50.141 -51.730  1.00  0.00     0.065 A 
HETATM   27  C   UNL     1     -39.718  51.502 -51.476  1.00  0.00     0.037 A 
HETATM   28  C   UNL     1     -39.896  52.391 -52.536  1.00  0.00     0.010 A 
BRANCH  26  29
HETATM   29  O   UNL     1     -39.411  49.309 -50.666  1.00  0.00    -0.361 OA
HETATM   30  H   UNL     1     -40.259  49.196 -50.207  1.00  0.00     0.217 HD
ENDBRANCH  26  29
ENDBRANCH  22  23
ENDBRANCH  19  22
ENDBRANCH   2  18
TORSDOF 6
ENDMDL
MODEL 7
REMARK VINA RESULT:      -7.6      3.364      9.665
REMARK  6 active torsions:
REMARK  status: ('A' for Active; 'I' for Inactive)
REMARK    1  A    between atoms: N_3  and  C_4 
REMARK    2  A    between atoms: C_12  and  C_13 
REMARK       I    between atoms: C_13  and  N_14 
REMARK    3  A    between atoms: N_14  and  N_15 
REMARK       I    between atoms: N_15  and  C_16 
REMARK    4  A    between atoms: C_16  and  C_17 
REMARK    5  A    between atoms: C_17  and  C_18 
REMARK    6  A    between atoms: C_21  and  O_22 
ROOT
HETATM    1  C   UNL     1     -43.060  56.553 -55.860  1.00  0.00     0.272 C 
HETATM    2  N   UNL     1     -43.677  56.039 -56.981  1.00  0.00    -0.263 N 
HETATM    3  O   UNL     1     -42.833  57.758 -55.744  1.00  0.00    -0.266 OA
HETATM    4  H   UNL     1     -44.027  55.086 -57.031  1.00  0.00     0.190 HD
ENDROOT
BRANCH   1   5
HETATM    5  C   UNL     1     -42.753  55.591 -54.803  1.00  0.00     0.058 A 
HETATM    6  C   UNL     1     -41.680  54.706 -54.699  1.00  0.00     0.029 A 
HETATM    7  N   UNL     1     -41.833  53.958 -53.525  1.00  0.00    -0.319 N 
HETATM    8  C   UNL     1     -40.460  54.614 -55.565  1.00  0.00     0.070 C 
HETATM    9  C   UNL     1     -42.953  54.438 -52.851  1.00  0.00     0.014 A 
HETATM   10  C   UNL     1     -43.503  53.874 -51.585  1.00  0.00     0.068 C 
HETATM   11  C   UNL     1     -43.505  55.447 -53.610  1.00  0.00     0.044 A 
BRANCH   7  12
HETATM   12  C   UNL     1     -40.995  52.885 -53.096  1.00  0.00     0.039 A 
HETATM   13  C   UNL     1     -40.399  52.923 -51.829  1.00  0.00     0.030 A 
HETATM   14  C   UNL     1     -39.565  51.881 -51.415  1.00  0.00     0.002 A 
HETATM   15  C   UNL     1     -39.324  50.799 -52.261  1.00  0.00     0.000 A 
HETATM   16  C   UNL     1     -39.918  50.755 -53.521  1.00  0.00     0.002 A 
HETATM   17  C   UNL     1     -40.752  51.794 -53.941  1.00  0.00     0.030 A 
ENDBRANCH   7  12
ENDBRANCH   1   5
BRANCH   2  18
HETATM   18  N   UNL     1     -44.089  56.924 -57.983  1.00  0.00    -0.267 N 
HETATM   19  C   UNL     1     -43.419  56.918 -59.188  1.00  0.00     0.240 C 
HETATM   20  O   UNL     1     -42.550  56.088 -59.457  1.00  0.00    -0.272 OA
HETATM   21  H   UNL     1     -44.773  57.628 -57.711  1.00  0.00     0.190 HD
BRANCH  19  22
HETATM   22  C   UNL     1     -43.832  58.030 -60.135  1.00  0.00     0.143 C 
BRANCH  22  23
HETATM   23  C   UNL     1     -42.922  59.235 -60.096  1.00  0.00    -0.049 A 
HETATM   24  C   UNL     1     -42.575  59.909 -61.277  1.00  0.00     0.010 A 
HETATM   25  C   UNL     1     -41.770  61.050 -61.234  1.00  0.00     0.037 A 
HETATM   26  C   UNL     1     -41.307  61.517 -60.009  1.00  0.00     0.065 A 
HETATM   27  C   UNL     1     -41.632  60.858 -58.830  1.00  0.00     0.037 A 
HETATM   28  C   UNL     1     -42.438  59.720 -58.873  1.00  0.00     0.010 A 
BRANCH  26  29
HETATM   29  O   UNL     1     -40.529  62.633 -59.920  1.00  0.00    -0.361 OA
HETATM   30  H   UNL     1     -40.140  62.670 -59.031  1.00  0.00     0.217 HD
ENDBRANCH  26  29
ENDBRANCH  22  23
ENDBRANCH  19  22
ENDBRANCH   2  18
TORSDOF 6
ENDMDL
MODEL 8
REMARK VINA RESULT:      -7.5     15.587     17.766
REMARK  6 active torsions:
REMARK  status: ('A' for Active; 'I' for Inactive)
REMARK    1  A    between atoms: N_3  and  C_4 
REMARK    2  A    between atoms: C_12  and  C_13 
REMARK       I    between atoms: C_13  and  N_14 
REMARK    3  A    between atoms: N_14  and  N_15 
REMARK       I    between atoms: N_15  and  C_16 
REMARK    4  A    between atoms: C_16  and  C_17 
REMARK    5  A    between atoms: C_17  and  C_18 
REMARK    6  A    between atoms: C_21  and  O_22 
ROOT
HETATM    1  C   UNL     1     -36.783  41.429 -55.323  1.00  0.00     0.272 C 
HETATM    2  N   UNL     1     -35.550  41.916 -54.944  1.00  0.00    -0.263 N 
HETATM    3  O   UNL     1     -37.677  41.223 -54.501  1.00  0.00    -0.266 OA
HETATM    4  H   UNL     1     -34.860  42.252 -55.609  1.00  0.00     0.190 HD
ENDROOT
BRANCH   1   5
HETATM    5  C   UNL     1     -36.978  41.234 -56.759  1.00  0.00     0.058 A 
HETATM    6  C   UNL     1     -37.096  40.046 -57.481  1.00  0.00     0.029 A 
HETATM    7  N   UNL     1     -37.233  40.364 -58.839  1.00  0.00    -0.319 N 
HETATM    8  C   UNL     1     -37.218  38.647 -56.960  1.00  0.00     0.070 C 
HETATM    9  C   UNL     1     -37.291  41.750 -58.953  1.00  0.00     0.014 A 
HETATM   10  C   UNL     1     -37.372  42.504 -60.237  1.00  0.00     0.068 C 
HETATM   11  C   UNL     1     -37.160  42.287 -57.691  1.00  0.00     0.044 A 
BRANCH   7  12
HETATM   12  C   UNL     1     -37.294  39.431 -59.918  1.00  0.00     0.039 A 
HETATM   13  C   UNL     1     -38.532  38.950 -60.360  1.00  0.00     0.030 A 
HETATM   14  C   UNL     1     -38.592  38.024 -61.406  1.00  0.00     0.002 A 
HETATM   15  C   UNL     1     -37.419  37.579 -62.013  1.00  0.00     0.000 A 
HETATM   16  C   UNL     1     -36.184  38.058 -61.579  1.00  0.00     0.002 A 
HETATM   17  C   UNL     1     -36.119  38.983 -60.534  1.00  0.00     0.030 A 
ENDBRANCH   7  12
ENDBRANCH   1   5
BRANCH   2  18
HETATM   18  N   UNL     1     -35.338  42.220 -53.595  1.00  0.00    -0.267 N 
HETATM   19  C   UNL     1     -34.610  41.338 -52.825  1.00  0.00     0.240 C 
HETATM   20  O   UNL     1     -34.044  40.354 -53.302  1.00  0.00    -0.272 OA
HETATM   21  H   UNL     1     -35.861  43.011 -53.222  1.00  0.00     0.190 HD
BRANCH  19  22
HETATM   22  C   UNL     1     -34.588  41.677 -51.345  1.00  0.00     0.143 C 
BRANCH  22  23
HETATM   23  C   UNL     1     -34.262  40.503 -50.454  1.00  0.00    -0.049 A 
HETATM   24  C   UNL     1     -32.957  40.308 -49.974  1.00  0.00     0.010 A 
HETATM   25  C   UNL     1     -32.667  39.247 -49.113  1.00  0.00     0.037 A 
HETATM   26  C   UNL     1     -33.682  38.375 -48.733  1.00  0.00     0.065 A 
HETATM   27  C   UNL     1     -34.977  38.545 -49.206  1.00  0.00     0.037 A 
HETATM   28  C   UNL     1     -35.267  39.607 -50.063  1.00  0.00     0.010 A 
BRANCH  26  29
HETATM   29  O   UNL     1     -33.446  37.333 -47.885  1.00  0.00    -0.361 OA
HETATM   30  H   UNL     1     -33.835  36.529 -48.266  1.00  0.00     0.217 HD
ENDBRANCH  26  29
ENDBRANCH  22  23
ENDBRANCH  19  22
ENDBRANCH   2  18
TORSDOF 6
ENDMDL
MODEL 9
REMARK VINA RESULT:      -7.5      6.135      7.463
REMARK  6 active torsions:
REMARK  status: ('A' for Active; 'I' for Inactive)
REMARK    1  A    between atoms: N_3  and  C_4 
REMARK    2  A    between atoms: C_12  and  C_13 
REMARK       I    between atoms: C_13  and  N_14 
REMARK    3  A    between atoms: N_14  and  N_15 
REMARK       I    between atoms: N_15  and  C_16 
REMARK    4  A    between atoms: C_16  and  C_17 
REMARK    5  A    between atoms: C_17  and  C_18 
REMARK    6  A    between atoms: C_21  and  O_22 
ROOT
HETATM    1  C   UNL     1     -42.808  56.516 -51.874  1.00  0.00     0.272 C 
HETATM    2  N   UNL     1     -42.750  56.290 -53.233  1.00  0.00    -0.263 N 
HETATM    3  O   UNL     1     -42.602  55.616 -51.060  1.00  0.00    -0.266 OA
HETATM    4  H   UNL     1     -42.747  57.039 -53.919  1.00  0.00     0.190 HD
ENDROOT
BRANCH   1   5
HETATM    5  C   UNL     1     -43.068  57.897 -51.469  1.00  0.00     0.058 A 
HETATM    6  C   UNL     1     -44.285  58.524 -51.200  1.00  0.00     0.029 A 
HETATM    7  N   UNL     1     -44.032  59.865 -50.884  1.00  0.00    -0.319 N 
HETATM    8  C   UNL     1     -45.648  57.910 -51.096  1.00  0.00     0.070 C 
HETATM    9  C   UNL     1     -42.653  60.052 -50.868  1.00  0.00     0.014 A 
HETATM   10  C   UNL     1     -41.964  61.354 -50.635  1.00  0.00     0.068 C 
HETATM   11  C   UNL     1     -42.058  58.854 -51.199  1.00  0.00     0.044 A 
BRANCH   7  12
HETATM   12  C   UNL     1     -45.016  60.869 -50.631  1.00  0.00     0.039 A 
HETATM   13  C   UNL     1     -45.608  61.556 -51.699  1.00  0.00     0.030 A 
HETATM   14  C   UNL     1     -46.559  62.550 -51.453  1.00  0.00     0.002 A 
HETATM   15  C   UNL     1     -46.923  62.860 -50.143  1.00  0.00     0.000 A 
HETATM   16  C   UNL     1     -46.340  62.176 -49.078  1.00  0.00     0.002 A 
HETATM   17  C   UNL     1     -45.388  61.183 -49.318  1.00  0.00     0.030 A 
ENDBRANCH   7  12
ENDBRANCH   1   5
BRANCH   2  18
HETATM   18  N   UNL     1     -42.403  55.011 -53.682  1.00  0.00    -0.267 N 
HETATM   19  C   UNL     1     -41.144  54.814 -54.209  1.00  0.00     0.240 C 
HETATM   20  O   UNL     1     -40.277  55.688 -54.195  1.00  0.00    -0.272 OA
HETATM   21  H   UNL     1     -43.157  54.327 -53.726  1.00  0.00     0.190 HD
BRANCH  19  22
HETATM   22  C   UNL     1     -40.935  53.440 -54.822  1.00  0.00     0.143 C 
BRANCH  22  23
HETATM   23  C   UNL     1     -40.418  52.409 -53.849  1.00  0.00    -0.049 A 
HETATM   24  C   UNL     1     -40.203  52.739 -52.502  1.00  0.00     0.010 A 
HETATM   25  C   UNL     1     -39.768  51.770 -51.593  1.00  0.00     0.037 A 
HETATM   26  C   UNL     1     -39.544  50.470 -52.031  1.00  0.00     0.065 A 
HETATM   27  C   UNL     1     -39.742  50.126 -53.363  1.00  0.00     0.037 A 
HETATM   28  C   UNL     1     -40.179  51.092 -54.270  1.00  0.00     0.010 A 
BRANCH  26  29
HETATM   29  O   UNL     1     -39.131  49.491 -51.176  1.00  0.00    -0.361 OA
HETATM   30  H   UNL     1     -39.837  49.325 -50.531  1.00  0.00     0.217 HD
ENDBRANCH  26  29
ENDBRANCH  22  23
ENDBRANCH  19  22
ENDBRANCH   2  18
TORSDOF 6
ENDMDL
MODEL 10
REMARK VINA RESULT:      -7.4      1.834      2.604
REMARK  6 active torsions:
REMARK  status: ('A' for Active; 'I' for Inactive)
REMARK    1  A    between atoms: N_3  and  C_4 
REMARK    2  A    between atoms: C_12  and  C_13 
REMARK       I    between atoms: C_13  and  N_14 
REMARK    3  A    between atoms: N_14  and  N_15 
REMARK       I    between atoms: N_15  and  C_16 
REMARK    4  A    between atoms: C_16  and  C_17 
REMARK    5  A    between atoms: C_17  and  C_18 
REMARK    6  A    between atoms: C_21  and  O_22 
ROOT
HETATM    1  C   UNL     1     -42.264  56.284 -55.208  1.00  0.00     0.272 C 
HETATM    2  N   UNL     1     -41.907  56.642 -53.925  1.00  0.00    -0.263 N 
HETATM    3  O   UNL     1     -41.831  55.259 -55.736  1.00  0.00    -0.266 OA
HETATM    4  H   UNL     1     -42.374  57.381 -53.407  1.00  0.00     0.190 HD
ENDROOT
BRANCH   1   5
HETATM    5  C   UNL     1     -43.230  57.160 -55.869  1.00  0.00     0.058 A 
HETATM    6  C   UNL     1     -43.689  57.133 -57.186  1.00  0.00     0.029 A 
HETATM    7  N   UNL     1     -44.583  58.197 -57.366  1.00  0.00    -0.319 N 
HETATM    8  C   UNL     1     -43.438  56.098 -58.240  1.00  0.00     0.070 C 
HETATM    9  C   UNL     1     -44.751  58.831 -56.139  1.00  0.00     0.014 A 
HETATM   10  C   UNL     1     -45.574  60.052 -55.907  1.00  0.00     0.068 C 
HETATM   11  C   UNL     1     -43.949  58.193 -55.217  1.00  0.00     0.044 A 
BRANCH   7  12
HETATM   12  C   UNL     1     -45.207  58.571 -58.594  1.00  0.00     0.039 A 
HETATM   13  C   UNL     1     -44.557  59.448 -59.472  1.00  0.00     0.030 A 
HETATM   14  C   UNL     1     -45.174  59.829 -60.667  1.00  0.00     0.002 A 
HETATM   15  C   UNL     1     -46.438  59.336 -60.990  1.00  0.00     0.000 A 
HETATM   16  C   UNL     1     -47.086  58.460 -60.121  1.00  0.00     0.002 A 
HETATM   17  C   UNL     1     -46.475  58.077 -58.925  1.00  0.00     0.030 A 
ENDBRANCH   7  12
ENDBRANCH   1   5
BRANCH   2  18
HETATM   18  N   UNL     1     -41.066  55.788 -53.203  1.00  0.00    -0.267 N 
HETATM   19  C   UNL     1     -41.633  54.886 -52.327  1.00  0.00     0.240 C 
HETATM   20  O   UNL     1     -42.851  54.724 -52.241  1.00  0.00    -0.272 OA
HETATM   21  H   UNL     1     -40.067  55.982 -53.260  1.00  0.00     0.190 HD
BRANCH  19  22
HETATM   22  C   UNL     1     -40.629  54.133 -51.473  1.00  0.00     0.143 C 
BRANCH  22  23
HETATM   23  C   UNL     1     -40.246  52.782 -52.027  1.00  0.00    -0.049 A 
HETATM   24  C   UNL     1     -39.859  51.740 -51.171  1.00  0.00     0.010 A 
HETATM   25  C   UNL     1     -39.548  50.478 -51.683  1.00  0.00     0.037 A 
HETATM   26  C   UNL     1     -39.620  50.257 -53.054  1.00  0.00     0.065 A 
HETATM   27  C   UNL     1     -39.991  51.279 -53.919  1.00  0.00     0.037 A 
HETATM   28  C   UNL     1     -40.304  52.538 -53.407  1.00  0.00     0.010 A 
BRANCH  26  29
HETATM   29  O   UNL     1     -39.337  49.037 -53.594  1.00  0.00    -0.361 OA
HETATM   30  H   UNL     1     -39.819  48.358 -53.096  1.00  0.00     0.217 HD
ENDBRANCH  26  29
ENDBRANCH  22  23
ENDBRANCH  19  22
ENDBRANCH   2  18
TORSDOF 6
ENDMDL
