MODEL 1
REMARK VINA RESULT:      -7.7      0.000      0.000
REMARK  5 active torsions:
REMARK  status: ('A' for Active; 'I' for Inactive)
REMARK    1  A    between atoms: C_2  and  O_3 
REMARK    2  A    between atoms: O_3  and  C_4 
REMARK    3  A    between atoms: C_8  and  C_9 
REMARK    4  A    between atoms: C_9  and  N_10 
REMARK       I    between atoms: N_10  and  C_11 
REMARK       I    between atoms: C_11  and  N_12 
REMARK    5  A    between atoms: N_12  and  C_13 
ROOT
HETATM    1  N   UNL     1     -45.553  57.645 -55.457  1.00  0.00    -0.339 N 
HETATM    2  C   UNL     1     -45.885  58.366 -56.576  1.00  0.00     0.316 C 
HETATM    3  N   UNL     1     -46.533  57.587 -57.502  1.00  0.00    -0.337 N 
HETATM    4  O   UNL     1     -45.624  59.552 -56.732  1.00  0.00    -0.247 OA
HETATM    5  H   UNL     1     -46.112  56.829 -55.263  1.00  0.00     0.164 HD
HETATM    6  H   UNL     1     -46.491  56.585 -57.383  1.00  0.00     0.164 HD
ENDROOT
BRANCH   1   7
HETATM    7  C   UNL     1     -44.891  58.269 -54.333  1.00  0.00     0.163 C 
BRANCH   7   8
HETATM    8  C   UNL     1     -44.325  57.244 -53.389  1.00  0.00    -0.035 A 
HETATM    9  C   UNL     1     -44.397  57.429 -52.007  1.00  0.00     0.028 A 
HETATM   10  C   UNL     1     -43.858  56.456 -51.180  1.00  0.00     0.120 A 
HETATM   11  N   UNL     1     -43.255  55.334 -51.628  1.00  0.00    -0.237 NA
HETATM   12  C   UNL     1     -43.190  55.174 -52.961  1.00  0.00     0.165 A 
HETATM   13  C   UNL     1     -43.722  56.079 -53.870  1.00  0.00     0.066 A 
BRANCH  12  14
HETATM   14  O   UNL     1     -42.621  54.045 -53.504  1.00  0.00    -0.324 OA
BRANCH  14  15
HETATM   15  C   UNL     1     -41.187  53.918 -53.527  1.00  0.00     0.058 C 
HETATM   16  C   UNL     1     -40.577  53.802 -52.122  1.00  0.00     0.045 C 
HETATM   17  C   UNL     1     -40.510  55.011 -54.366  1.00  0.00     0.045 C 
HETATM   18  C   UNL     1     -40.954  52.572 -54.242  1.00  0.00     0.045 C 
ENDBRANCH  14  15
ENDBRANCH  12  14
ENDBRANCH   7   8
ENDBRANCH   1   7
BRANCH   3  19
HETATM   19  C   UNL     1     -46.947  58.082 -58.782  1.00  0.00     0.100 A 
HETATM   20  C   UNL     1     -45.940  58.394 -59.865  1.00  0.00     0.049 A 
HETATM   21  C   UNL     1     -46.893  57.217 -60.016  1.00  0.00     0.024 A 
HETATM   22  C   UNL     1     -44.577  57.776 -59.866  1.00  0.00    -0.045 A 
HETATM   23  C   UNL     1     -46.100  55.921 -60.092  1.00  0.00     0.046 A 
HETATM   24  C   UNL     1     -44.661  56.376 -59.994  1.00  0.00    -0.051 A 
HETATM   25  C   UNL     1     -43.530  55.576 -60.006  1.00  0.00     0.007 A 
HETATM   26  C   UNL     1     -42.284  56.195 -59.886  1.00  0.00     0.001 A 
HETATM   27  C   UNL     1     -42.187  57.588 -59.756  1.00  0.00     0.001 A 
HETATM   28  C   UNL     1     -43.336  58.384 -59.745  1.00  0.00     0.008 A 
ENDBRANCH   3  19
TORSDOF 5
ENDMDL
MODEL 2
REMARK VINA RESULT:      -7.5      2.393      6.782
REMARK  5 active torsions:
REMARK  status: ('A' for Active; 'I' for Inactive)
REMARK    1  A    between atoms: C_2  and  O_3 
REMARK    2  A    between atoms: O_3  and  C_4 
REMARK    3  A    between atoms: C_8  and  C_9 
REMARK    4  A    between atoms: C_9  and  N_10 
REMARK       I    between atoms: N_10  and  C_11 
REMARK       I    between atoms: C_11  and  N_12 
REMARK    5  A    between atoms: N_12  and  C_13 
ROOT
HETATM    1  N   UNL     1     -42.876  58.723 -52.499  1.00  0.00    -0.339 N 
HETATM    2  C   UNL     1     -43.515  57.577 -52.098  1.00  0.00     0.316 C 
HETATM    3  N   UNL     1     -42.719  56.817 -51.278  1.00  0.00    -0.337 N 
HETATM    4  O   UNL     1     -44.649  57.268 -52.440  1.00  0.00    -0.247 OA
HETATM    5  H   UNL     1     -42.141  59.064 -51.898  1.00  0.00     0.164 HD
HETATM    6  H   UNL     1     -41.734  57.037 -51.247  1.00  0.00     0.164 HD
ENDROOT
BRANCH   1   7
HETATM    7  C   UNL     1     -43.536  59.693 -53.342  1.00  0.00     0.163 C 
BRANCH   7   8
HETATM    8  C   UNL     1     -43.015  59.643 -54.752  1.00  0.00    -0.035 A 
HETATM    9  C   UNL     1     -42.581  60.803 -55.396  1.00  0.00     0.028 A 
HETATM   10  C   UNL     1     -42.112  60.704 -56.696  1.00  0.00     0.120 A 
HETATM   11  N   UNL     1     -42.054  59.547 -57.391  1.00  0.00    -0.237 NA
HETATM   12  C   UNL     1     -42.480  58.440 -56.758  1.00  0.00     0.165 A 
HETATM   13  C   UNL     1     -42.944  58.434 -55.450  1.00  0.00     0.066 A 
BRANCH  12  14
HETATM   14  O   UNL     1     -42.426  57.214 -57.380  1.00  0.00    -0.324 OA
BRANCH  14  15
HETATM   15  C   UNL     1     -43.137  57.017 -58.617  1.00  0.00     0.058 C 
HETATM   16  C   UNL     1     -42.281  57.337 -59.852  1.00  0.00     0.045 C 
HETATM   17  C   UNL     1     -44.490  57.744 -58.644  1.00  0.00     0.045 C 
HETATM   18  C   UNL     1     -43.422  55.503 -58.634  1.00  0.00     0.045 C 
ENDBRANCH  14  15
ENDBRANCH  12  14
ENDBRANCH   7   8
ENDBRANCH   1   7
BRANCH   3  19
HETATM   19  C   UNL     1     -43.127  55.546 -50.758  1.00  0.00     0.100 A 
HETATM   20  C   UNL     1     -43.328  54.354 -51.666  1.00  0.00     0.049 A 
HETATM   21  C   UNL     1     -42.170  54.383 -50.678  1.00  0.00     0.024 A 
HETATM   22  C   UNL     1     -42.672  54.277 -53.010  1.00  0.00    -0.045 A 
HETATM   23  C   UNL     1     -40.850  54.336 -51.433  1.00  0.00     0.046 A 
HETATM   24  C   UNL     1     -41.269  54.267 -52.884  1.00  0.00    -0.051 A 
HETATM   25  C   UNL     1     -40.439  54.215 -53.992  1.00  0.00     0.007 A 
HETATM   26  C   UNL     1     -41.029  54.172 -55.257  1.00  0.00     0.001 A 
HETATM   27  C   UNL     1     -42.425  54.184 -55.395  1.00  0.00     0.001 A 
HETATM   28  C   UNL     1     -43.252  54.237 -54.270  1.00  0.00     0.008 A 
ENDBRANCH   3  19
TORSDOF 5
ENDMDL
MODEL 3
REMARK VINA RESULT:      -7.5      4.499      8.103
REMARK  5 active torsions:
REMARK  status: ('A' for Active; 'I' for Inactive)
REMARK    1  A    between atoms: C_2  and  O_3 
REMARK    2  A    between atoms: O_3  and  C_4 
REMARK    3  A    between atoms: C_8  and  C_9 
REMARK    4  A    between atoms: C_9  and  N_10 
REMARK       I    between atoms: N_10  and  C_11 
REMARK       I    between atoms: C_11  and  N_12 
REMARK    5  A    between atoms: N_12  and  C_13 
ROOT
HETATM    1  N   UNL     1     -42.883  58.579 -51.511  1.00  0.00    -0.339 N 
HETATM    2  C   UNL     1     -43.493  57.372 -51.276  1.00  0.00     0.316 C 
HETATM    3  N   UNL     1     -42.609  56.449 -50.776  1.00  0.00    -0.337 N 
HETATM    4  O   UNL     1     -44.676  57.147 -51.498  1.00  0.00    -0.247 OA
HETATM    5  H   UNL     1     -42.054  58.777 -50.971  1.00  0.00     0.164 HD
HETATM    6  H   UNL     1     -41.623  56.657 -50.851  1.00  0.00     0.164 HD
ENDROOT
BRANCH   1   7
HETATM    7  C   UNL     1     -43.629  59.712 -52.008  1.00  0.00     0.163 C 
BRANCH   7   8
HETATM    8  C   UNL     1     -44.031  60.638 -50.893  1.00  0.00    -0.035 A 
HETATM    9  C   UNL     1     -43.447  61.901 -50.766  1.00  0.00     0.028 A 
HETATM   10  C   UNL     1     -43.849  62.716 -49.721  1.00  0.00     0.120 A 
HETATM   11  N   UNL     1     -44.774  62.362 -48.802  1.00  0.00    -0.237 NA
HETATM   12  C   UNL     1     -45.323  61.142 -48.935  1.00  0.00     0.165 A 
HETATM   13  C   UNL     1     -45.003  60.264 -49.962  1.00  0.00     0.066 A 
BRANCH  12  14
HETATM   14  O   UNL     1     -46.295  60.713 -48.062  1.00  0.00    -0.324 OA
BRANCH  14  15
HETATM   15  C   UNL     1     -46.109  60.905 -46.647  1.00  0.00     0.058 C 
HETATM   16  C   UNL     1     -46.919  62.088 -46.095  1.00  0.00     0.045 C 
HETATM   17  C   UNL     1     -44.627  60.980 -46.250  1.00  0.00     0.045 C 
HETATM   18  C   UNL     1     -46.692  59.619 -46.027  1.00  0.00     0.045 C 
ENDBRANCH  14  15
ENDBRANCH  12  14
ENDBRANCH   7   8
ENDBRANCH   1   7
BRANCH   3  19
HETATM   19  C   UNL     1     -42.977  55.095 -50.490  1.00  0.00     0.100 A 
HETATM   20  C   UNL     1     -43.221  54.097 -51.600  1.00  0.00     0.049 A 
HETATM   21  C   UNL     1     -42.009  53.956 -50.690  1.00  0.00     0.024 A 
HETATM   22  C   UNL     1     -42.643  54.292 -52.967  1.00  0.00    -0.045 A 
HETATM   23  C   UNL     1     -40.734  54.080 -51.510  1.00  0.00     0.046 A 
HETATM   24  C   UNL     1     -41.235  54.284 -52.922  1.00  0.00    -0.051 A 
HETATM   25  C   UNL     1     -40.469  54.461 -54.063  1.00  0.00     0.007 A 
HETATM   26  C   UNL     1     -41.130  54.652 -55.278  1.00  0.00     0.001 A 
HETATM   27  C   UNL     1     -42.532  54.665 -55.335  1.00  0.00     0.001 A 
HETATM   28  C   UNL     1     -43.293  54.485 -54.177  1.00  0.00     0.008 A 
ENDBRANCH   3  19
TORSDOF 5
ENDMDL
MODEL 4
REMARK VINA RESULT:      -7.4      2.761      4.755
REMARK  5 active torsions:
REMARK  status: ('A' for Active; 'I' for Inactive)
REMARK    1  A    between atoms: C_2  and  O_3 
REMARK    2  A    between atoms: O_3  and  C_4 
REMARK    3  A    between atoms: C_8  and  C_9 
REMARK    4  A    between atoms: C_9  and  N_10 
REMARK       I    between atoms: N_10  and  C_11 
REMARK       I    between atoms: C_11  and  N_12 
REMARK    5  A    between atoms: N_12  and  C_13 
ROOT
HETATM    1  N   UNL     1     -41.452  54.505 -54.976  1.00  0.00    -0.339 N 
HETATM    2  C   UNL     1     -42.486  54.675 -55.862  1.00  0.00     0.316 C 
HETATM    3  N   UNL     1     -42.149  55.545 -56.868  1.00  0.00    -0.337 N 
HETATM    4  O   UNL     1     -43.576  54.127 -55.758  1.00  0.00    -0.247 OA
HETATM    5  H   UNL     1     -40.523  54.679 -55.328  1.00  0.00     0.164 HD
HETATM    6  H   UNL     1     -41.326  56.116 -56.737  1.00  0.00     0.164 HD
ENDROOT
BRANCH   1   7
HETATM    7  C   UNL     1     -41.568  53.605 -53.852  1.00  0.00     0.163 C 
BRANCH   7   8
HETATM    8  C   UNL     1     -41.891  54.347 -52.584  1.00  0.00    -0.035 A 
HETATM    9  C   UNL     1     -42.921  53.915 -51.745  1.00  0.00     0.028 A 
HETATM   10  C   UNL     1     -43.181  54.634 -50.590  1.00  0.00     0.120 A 
HETATM   11  N   UNL     1     -42.501  55.742 -50.223  1.00  0.00    -0.237 NA
HETATM   12  C   UNL     1     -41.517  56.148 -51.044  1.00  0.00     0.165 A 
HETATM   13  C   UNL     1     -41.166  55.481 -52.210  1.00  0.00     0.066 A 
BRANCH  12  14
HETATM   14  O   UNL     1     -40.754  57.249 -50.731  1.00  0.00    -0.324 OA
BRANCH  14  15
HETATM   15  C   UNL     1     -41.105  58.532 -51.282  1.00  0.00     0.058 C 
HETATM   16  C   UNL     1     -42.622  58.726 -51.421  1.00  0.00     0.045 C 
HETATM   17  C   UNL     1     -40.359  58.838 -52.589  1.00  0.00     0.045 C 
HETATM   18  C   UNL     1     -40.608  59.532 -50.218  1.00  0.00     0.045 C 
ENDBRANCH  14  15
ENDBRANCH  12  14
ENDBRANCH   7   8
ENDBRANCH   1   7
BRANCH   3  19
HETATM   19  C   UNL     1     -43.065  55.935 -57.899  1.00  0.00     0.100 A 
HETATM   20  C   UNL     1     -44.015  57.096 -57.706  1.00  0.00     0.049 A 
HETATM   21  C   UNL     1     -42.863  57.199 -58.696  1.00  0.00     0.024 A 
HETATM   22  C   UNL     1     -43.742  58.170 -56.699  1.00  0.00    -0.045 A 
HETATM   23  C   UNL     1     -41.918  58.312 -58.269  1.00  0.00     0.046 A 
HETATM   24  C   UNL     1     -42.555  58.861 -57.013  1.00  0.00    -0.051 A 
HETATM   25  C   UNL     1     -42.083  59.894 -56.218  1.00  0.00     0.007 A 
HETATM   26  C   UNL     1     -42.816  60.240 -55.082  1.00  0.00     0.001 A 
HETATM   27  C   UNL     1     -43.998  59.558 -54.758  1.00  0.00     0.001 A 
HETATM   28  C   UNL     1     -44.464  58.518 -55.568  1.00  0.00     0.008 A 
ENDBRANCH   3  19
TORSDOF 5
ENDMDL
MODEL 5
REMARK VINA RESULT:      -7.4      1.578      2.509
REMARK  5 active torsions:
REMARK  status: ('A' for Active; 'I' for Inactive)
REMARK    1  A    between atoms: C_2  and  O_3 
REMARK    2  A    between atoms: O_3  and  C_4 
REMARK    3  A    between atoms: C_8  and  C_9 
REMARK    4  A    between atoms: C_9  and  N_10 
REMARK       I    between atoms: N_10  and  C_11 
REMARK       I    between atoms: C_11  and  N_12 
REMARK    5  A    between atoms: N_12  and  C_13 
ROOT
HETATM    1  N   UNL     1     -43.802  58.482 -54.996  1.00  0.00    -0.339 N 
HETATM    2  C   UNL     1     -42.795  58.839 -55.857  1.00  0.00     0.316 C 
HETATM    3  N   UNL     1     -43.152  58.629 -57.165  1.00  0.00    -0.337 N 
HETATM    4  O   UNL     1     -41.710  59.279 -55.498  1.00  0.00    -0.247 OA
HETATM    5  H   UNL     1     -44.739  58.495 -55.368  1.00  0.00     0.164 HD
HETATM    6  H   UNL     1     -43.962  58.053 -57.342  1.00  0.00     0.164 HD
ENDROOT
BRANCH   1   7
HETATM    7  C   UNL     1     -43.661  58.648 -53.567  1.00  0.00     0.163 C 
BRANCH   7   8
HETATM    8  C   UNL     1     -43.540  57.322 -52.868  1.00  0.00    -0.035 A 
HETATM    9  C   UNL     1     -43.908  57.184 -51.528  1.00  0.00     0.028 A 
HETATM   10  C   UNL     1     -43.775  55.942 -50.928  1.00  0.00     0.120 A 
HETATM   11  N   UNL     1     -43.301  54.847 -51.560  1.00  0.00    -0.237 NA
HETATM   12  C   UNL     1     -42.947  54.998 -52.848  1.00  0.00     0.165 A 
HETATM   13  C   UNL     1     -43.066  56.194 -53.542  1.00  0.00     0.066 A 
BRANCH  12  14
HETATM   14  O   UNL     1     -42.484  53.926 -53.577  1.00  0.00    -0.324 OA
BRANCH  14  15
HETATM   15  C   UNL     1     -41.068  53.670 -53.635  1.00  0.00     0.058 C 
HETATM   16  C   UNL     1     -40.406  53.672 -52.249  1.00  0.00     0.045 C 
HETATM   17  C   UNL     1     -40.341  54.589 -54.627  1.00  0.00     0.045 C 
HETATM   18  C   UNL     1     -40.983  52.232 -54.184  1.00  0.00     0.045 C 
ENDBRANCH  14  15
ENDBRANCH  12  14
ENDBRANCH   7   8
ENDBRANCH   1   7
BRANCH   3  19
HETATM   19  C   UNL     1     -42.264  58.874 -58.263  1.00  0.00     0.100 A 
HETATM   20  C   UNL     1     -42.140  57.892 -59.405  1.00  0.00     0.049 A 
HETATM   21  C   UNL     1     -42.784  59.253 -59.627  1.00  0.00     0.024 A 
HETATM   22  C   UNL     1     -43.226  56.908 -59.712  1.00  0.00    -0.045 A 
HETATM   23  C   UNL     1     -44.235  59.072 -60.046  1.00  0.00     0.046 A 
HETATM   24  C   UNL     1     -44.415  57.571 -60.075  1.00  0.00    -0.051 A 
HETATM   25  C   UNL     1     -45.570  56.874 -60.391  1.00  0.00     0.007 A 
HETATM   26  C   UNL     1     -45.533  55.479 -60.341  1.00  0.00     0.001 A 
HETATM   27  C   UNL     1     -44.356  54.808 -59.979  1.00  0.00     0.001 A 
HETATM   28  C   UNL     1     -43.197  55.523 -59.662  1.00  0.00     0.008 A 
ENDBRANCH   3  19
TORSDOF 5
ENDMDL
MODEL 6
REMARK VINA RESULT:      -7.3      1.465      2.942
REMARK  5 active torsions:
REMARK  status: ('A' for Active; 'I' for Inactive)
REMARK    1  A    between atoms: C_2  and  O_3 
REMARK    2  A    between atoms: O_3  and  C_4 
REMARK    3  A    between atoms: C_8  and  C_9 
REMARK    4  A    between atoms: C_9  and  N_10 
REMARK       I    between atoms: N_10  and  C_11 
REMARK       I    between atoms: C_11  and  N_12 
REMARK    5  A    between atoms: N_12  and  C_13 
ROOT
HETATM    1  N   UNL     1     -44.374  56.791 -55.500  1.00  0.00    -0.339 N 
HETATM    2  C   UNL     1     -43.424  56.784 -56.491  1.00  0.00     0.316 C 
HETATM    3  N   UNL     1     -43.893  56.186 -57.634  1.00  0.00    -0.337 N 
HETATM    4  O   UNL     1     -42.297  57.245 -56.364  1.00  0.00    -0.247 OA
HETATM    5  H   UNL     1     -45.337  56.744 -55.797  1.00  0.00     0.164 HD
HETATM    6  H   UNL     1     -44.738  55.638 -57.562  1.00  0.00     0.164 HD
ENDROOT
BRANCH   1   7
HETATM    7  C   UNL     1     -44.113  57.400 -54.216  1.00  0.00     0.163 C 
BRANCH   7   8
HETATM    8  C   UNL     1     -43.639  56.386 -53.212  1.00  0.00    -0.035 A 
HETATM    9  C   UNL     1     -43.725  56.642 -51.841  1.00  0.00     0.028 A 
HETATM   10  C   UNL     1     -43.273  55.677 -50.956  1.00  0.00     0.120 A 
HETATM   11  N   UNL     1     -42.741  54.496 -51.337  1.00  0.00    -0.237 NA
HETATM   12  C   UNL     1     -42.660  54.267 -52.659  1.00  0.00     0.165 A 
HETATM   13  C   UNL     1     -43.108  55.160 -53.622  1.00  0.00     0.066 A 
BRANCH  12  14
HETATM   14  O   UNL     1     -42.160  53.076 -53.134  1.00  0.00    -0.324 OA
BRANCH  14  15
HETATM   15  C   UNL     1     -40.764  52.980 -53.473  1.00  0.00     0.058 C 
HETATM   16  C   UNL     1     -40.271  54.173 -54.306  1.00  0.00     0.045 C 
HETATM   17  C   UNL     1     -40.404  51.634 -54.119  1.00  0.00     0.045 C 
HETATM   18  C   UNL     1     -40.053  53.046 -52.107  1.00  0.00     0.045 C 
ENDBRANCH  14  15
ENDBRANCH  12  14
ENDBRANCH   7   8
ENDBRANCH   1   7
BRANCH   3  19
HETATM   19  C   UNL     1     -43.086  56.005 -58.804  1.00  0.00     0.100 A 
HETATM   20  C   UNL     1     -43.708  55.909 -60.178  1.00  0.00     0.049 A 
HETATM   21  C   UNL     1     -42.873  57.122 -59.794  1.00  0.00     0.024 A 
HETATM   22  C   UNL     1     -45.069  56.465 -60.461  1.00  0.00    -0.045 A 
HETATM   23  C   UNL     1     -43.735  58.374 -59.838  1.00  0.00     0.046 A 
HETATM   24  C   UNL     1     -45.090  57.861 -60.269  1.00  0.00    -0.051 A 
HETATM   25  C   UNL     1     -46.245  58.603 -60.456  1.00  0.00     0.007 A 
HETATM   26  C   UNL     1     -47.406  57.932 -60.842  1.00  0.00     0.001 A 
HETATM   27  C   UNL     1     -47.398  56.542 -61.033  1.00  0.00     0.001 A 
HETATM   28  C   UNL     1     -46.227  55.804 -60.842  1.00  0.00     0.008 A 
ENDBRANCH   3  19
TORSDOF 5
ENDMDL
MODEL 7
REMARK VINA RESULT:      -7.3      1.404      2.058
REMARK  5 active torsions:
REMARK  status: ('A' for Active; 'I' for Inactive)
REMARK    1  A    between atoms: C_2  and  O_3 
REMARK    2  A    between atoms: O_3  and  C_4 
REMARK    3  A    between atoms: C_8  and  C_9 
REMARK    4  A    between atoms: C_9  and  N_10 
REMARK       I    between atoms: N_10  and  C_11 
REMARK       I    between atoms: C_11  and  N_12 
REMARK    5  A    between atoms: N_12  and  C_13 
ROOT
HETATM    1  N   UNL     1     -45.783  57.555 -55.553  1.00  0.00    -0.339 N 
HETATM    2  C   UNL     1     -45.933  58.354 -56.659  1.00  0.00     0.316 C 
HETATM    3  N   UNL     1     -46.744  57.767 -57.598  1.00  0.00    -0.337 N 
HETATM    4  O   UNL     1     -45.399  59.447 -56.793  1.00  0.00    -0.247 OA
HETATM    5  H   UNL     1     -46.520  56.890 -55.373  1.00  0.00     0.164 HD
HETATM    6  H   UNL     1     -46.940  56.781 -57.497  1.00  0.00     0.164 HD
ENDROOT
BRANCH   1   7
HETATM    7  C   UNL     1     -44.997  57.985 -54.419  1.00  0.00     0.163 C 
BRANCH   7   8
HETATM    8  C   UNL     1     -43.710  57.213 -54.318  1.00  0.00    -0.035 A 
HETATM    9  C   UNL     1     -43.059  56.755 -55.465  1.00  0.00     0.028 A 
HETATM   10  C   UNL     1     -41.877  56.046 -55.318  1.00  0.00     0.120 A 
HETATM   11  N   UNL     1     -41.313  55.760 -54.125  1.00  0.00    -0.237 NA
HETATM   12  C   UNL     1     -41.955  56.205 -53.030  1.00  0.00     0.165 A 
HETATM   13  C   UNL     1     -43.130  56.943 -53.076  1.00  0.00     0.066 A 
BRANCH  12  14
HETATM   14  O   UNL     1     -41.434  55.985 -51.776  1.00  0.00    -0.324 OA
BRANCH  14  15
HETATM   15  C   UNL     1     -41.598  54.695 -51.158  1.00  0.00     0.058 C 
HETATM   16  C   UNL     1     -40.420  53.749 -51.433  1.00  0.00     0.045 C 
HETATM   17  C   UNL     1     -42.952  54.048 -51.489  1.00  0.00     0.045 C 
HETATM   18  C   UNL     1     -41.592  55.012 -49.649  1.00  0.00     0.045 C 
ENDBRANCH  14  15
ENDBRANCH  12  14
ENDBRANCH   7   8
ENDBRANCH   1   7
BRANCH   3  19
HETATM   19  C   UNL     1     -47.025  58.368 -58.868  1.00  0.00     0.100 A 
HETATM   20  C   UNL     1     -45.933  58.593 -59.888  1.00  0.00     0.049 A 
HETATM   21  C   UNL     1     -47.021  57.559 -60.141  1.00  0.00     0.024 A 
HETATM   22  C   UNL     1     -44.663  57.802 -59.861  1.00  0.00    -0.045 A 
HETATM   23  C   UNL     1     -46.399  56.175 -60.247  1.00  0.00     0.046 A 
HETATM   24  C   UNL     1     -44.921  56.432 -60.063  1.00  0.00    -0.051 A 
HETATM   25  C   UNL     1     -43.903  55.492 -60.065  1.00  0.00     0.007 A 
HETATM   26  C   UNL     1     -42.595  55.935 -59.859  1.00  0.00     0.001 A 
HETATM   27  C   UNL     1     -42.326  57.297 -59.654  1.00  0.00     0.001 A 
HETATM   28  C   UNL     1     -43.362  58.235 -59.654  1.00  0.00     0.008 A 
ENDBRANCH   3  19
TORSDOF 5
ENDMDL
MODEL 8
REMARK VINA RESULT:      -7.2     16.959     20.362
REMARK  5 active torsions:
REMARK  status: ('A' for Active; 'I' for Inactive)
REMARK    1  A    between atoms: C_2  and  O_3 
REMARK    2  A    between atoms: O_3  and  C_4 
REMARK    3  A    between atoms: C_8  and  C_9 
REMARK    4  A    between atoms: C_9  and  N_10 
REMARK       I    between atoms: N_10  and  C_11 
REMARK       I    between atoms: C_11  and  N_12 
REMARK    5  A    between atoms: N_12  and  C_13 
ROOT
HETATM    1  N   UNL     1     -32.623  38.315 -54.476  1.00  0.00    -0.339 N 
HETATM    2  C   UNL     1     -32.270  39.412 -53.731  1.00  0.00     0.316 C 
HETATM    3  N   UNL     1     -32.730  39.314 -52.442  1.00  0.00    -0.337 N 
HETATM    4  O   UNL     1     -31.633  40.363 -54.167  1.00  0.00    -0.247 OA
HETATM    5  H   UNL     1     -32.798  37.462 -53.968  1.00  0.00     0.164 HD
HETATM    6  H   UNL     1     -33.434  38.616 -52.248  1.00  0.00     0.164 HD
ENDROOT
BRANCH   1   7
HETATM    7  C   UNL     1     -32.216  38.185 -55.857  1.00  0.00     0.163 C 
BRANCH   7   8
HETATM    8  C   UNL     1     -33.377  38.377 -56.793  1.00  0.00    -0.035 A 
HETATM    9  C   UNL     1     -33.411  37.731 -58.031  1.00  0.00     0.028 A 
HETATM   10  C   UNL     1     -34.502  37.942 -58.859  1.00  0.00     0.120 A 
HETATM   11  N   UNL     1     -35.541  38.746 -58.546  1.00  0.00    -0.237 NA
HETATM   12  C   UNL     1     -35.491  39.363 -57.353  1.00  0.00     0.165 A 
HETATM   13  C   UNL     1     -34.454  39.197 -56.446  1.00  0.00     0.066 A 
BRANCH  12  14
HETATM   14  O   UNL     1     -36.523  40.175 -56.942  1.00  0.00    -0.324 OA
BRANCH  14  15
HETATM   15  C   UNL     1     -36.479  41.583 -57.243  1.00  0.00     0.058 C 
HETATM   16  C   UNL     1     -36.855  41.892 -58.700  1.00  0.00     0.045 C 
HETATM   17  C   UNL     1     -35.147  42.232 -56.837  1.00  0.00     0.045 C 
HETATM   18  C   UNL     1     -37.580  42.180 -56.345  1.00  0.00     0.045 C 
ENDBRANCH  14  15
ENDBRANCH  12  14
ENDBRANCH   7   8
ENDBRANCH   1   7
BRANCH   3  19
HETATM   19  C   UNL     1     -32.541  40.348 -51.467  1.00  0.00     0.100 A 
HETATM   20  C   UNL     1     -33.583  41.421 -51.249  1.00  0.00     0.049 A 
HETATM   21  C   UNL     1     -33.326  40.370 -50.179  1.00  0.00     0.024 A 
HETATM   22  C   UNL     1     -35.013  41.214 -51.643  1.00  0.00    -0.045 A 
HETATM   23  C   UNL     1     -34.585  39.546 -49.956  1.00  0.00     0.046 A 
HETATM   24  C   UNL     1     -35.585  40.153 -50.914  1.00  0.00    -0.051 A 
HETATM   25  C   UNL     1     -36.898  39.759 -51.112  1.00  0.00     0.007 A 
HETATM   26  C   UNL     1     -37.656  40.443 -52.064  1.00  0.00     0.001 A 
HETATM   27  C   UNL     1     -37.097  41.500 -52.798  1.00  0.00     0.001 A 
HETATM   28  C   UNL     1     -35.770  41.888 -52.589  1.00  0.00     0.008 A 
ENDBRANCH   3  19
TORSDOF 5
ENDMDL
MODEL 9
REMARK VINA RESULT:      -7.2      4.962      8.156
REMARK  5 active torsions:
REMARK  status: ('A' for Active; 'I' for Inactive)
REMARK    1  A    between atoms: C_2  and  O_3 
REMARK    2  A    between atoms: O_3  and  C_4 
REMARK    3  A    between atoms: C_8  and  C_9 
REMARK    4  A    between atoms: C_9  and  N_10 
REMARK       I    between atoms: N_10  and  C_11 
REMARK       I    between atoms: C_11  and  N_12 
REMARK    5  A    between atoms: N_12  and  C_13 
ROOT
HETATM    1  N   UNL     1     -40.886  58.132 -53.799  1.00  0.00    -0.339 N 
HETATM    2  C   UNL     1     -41.467  56.943 -54.163  1.00  0.00     0.316 C 
HETATM    3  N   UNL     1     -40.693  55.871 -53.796  1.00  0.00    -0.337 N 
HETATM    4  O   UNL     1     -42.537  56.854 -54.751  1.00  0.00    -0.247 OA
HETATM    5  H   UNL     1     -40.238  58.100 -53.026  1.00  0.00     0.164 HD
HETATM    6  H   UNL     1     -39.735  56.053 -53.533  1.00  0.00     0.164 HD
ENDROOT
BRANCH   1   7
HETATM    7  C   UNL     1     -41.539  59.395 -54.055  1.00  0.00     0.163 C 
BRANCH   7   8
HETATM    8  C   UNL     1     -42.070  60.007 -52.787  1.00  0.00    -0.035 A 
HETATM    9  C   UNL     1     -41.455  59.754 -51.559  1.00  0.00     0.028 A 
HETATM   10  C   UNL     1     -41.983  60.340 -50.420  1.00  0.00     0.120 A 
HETATM   11  N   UNL     1     -43.071  61.140 -50.419  1.00  0.00    -0.237 NA
HETATM   12  C   UNL     1     -43.654  61.369 -51.609  1.00  0.00     0.165 A 
HETATM   13  C   UNL     1     -43.185  60.848 -52.807  1.00  0.00     0.066 A 
BRANCH  12  14
HETATM   14  O   UNL     1     -44.748  62.198 -51.703  1.00  0.00    -0.324 OA
BRANCH  14  15
HETATM   15  C   UNL     1     -46.071  61.636 -51.617  1.00  0.00     0.058 C 
HETATM   16  C   UNL     1     -46.074  60.204 -51.061  1.00  0.00     0.045 C 
HETATM   17  C   UNL     1     -46.848  61.747 -52.938  1.00  0.00     0.045 C 
HETATM   18  C   UNL     1     -46.780  62.533 -50.583  1.00  0.00     0.045 C 
ENDBRANCH  14  15
ENDBRANCH  12  14
ENDBRANCH   7   8
ENDBRANCH   1   7
BRANCH   3  19
HETATM   19  C   UNL     1     -41.047  54.516 -54.100  1.00  0.00     0.100 A 
HETATM   20  C   UNL     1     -40.855  53.409 -53.088  1.00  0.00     0.049 A 
HETATM   21  C   UNL     1     -42.255  53.859 -53.481  1.00  0.00     0.024 A 
HETATM   22  C   UNL     1     -40.765  53.698 -51.622  1.00  0.00    -0.045 A 
HETATM   23  C   UNL     1     -42.975  54.417 -52.262  1.00  0.00     0.046 A 
HETATM   24  C   UNL     1     -41.963  54.269 -51.149  1.00  0.00    -0.051 A 
HETATM   25  C   UNL     1     -42.119  54.638 -49.823  1.00  0.00     0.007 A 
HETATM   26  C   UNL     1     -41.050  54.431 -48.950  1.00  0.00     0.001 A 
HETATM   27  C   UNL     1     -39.851  53.865 -49.409  1.00  0.00     0.001 A 
HETATM   28  C   UNL     1     -39.706  53.497 -50.750  1.00  0.00     0.008 A 
ENDBRANCH   3  19
TORSDOF 5
ENDMDL
MODEL 10
REMARK VINA RESULT:      -7.2      2.704      6.885
REMARK  5 active torsions:
REMARK  status: ('A' for Active; 'I' for Inactive)
REMARK    1  A    between atoms: C_2  and  O_3 
REMARK    2  A    between atoms: O_3  and  C_4 
REMARK    3  A    between atoms: C_8  and  C_9 
REMARK    4  A    between atoms: C_9  and  N_10 
REMARK       I    between atoms: N_10  and  C_11 
REMARK       I    between atoms: C_11  and  N_12 
REMARK    5  A    between atoms: N_12  and  C_13 
ROOT
HETATM    1  N   UNL     1     -43.299  58.515 -51.092  1.00  0.00    -0.339 N 
HETATM    2  C   UNL     1     -43.808  57.259 -50.870  1.00  0.00     0.316 C 
HETATM    3  N   UNL     1     -42.808  56.335 -50.695  1.00  0.00    -0.337 N 
HETATM    4  O   UNL     1     -45.003  56.998 -50.844  1.00  0.00    -0.247 OA
HETATM    5  H   UNL     1     -42.374  58.697 -50.734  1.00  0.00     0.164 HD
HETATM    6  H   UNL     1     -41.872  56.601 -50.965  1.00  0.00     0.164 HD
ENDROOT
BRANCH   1   7
HETATM    7  C   UNL     1     -44.169  59.654 -51.271  1.00  0.00     0.163 C 
BRANCH   7   8
HETATM    8  C   UNL     1     -43.972  60.291 -52.619  1.00  0.00    -0.035 A 
HETATM    9  C   UNL     1     -43.358  61.540 -52.737  1.00  0.00     0.028 A 
HETATM   10  C   UNL     1     -43.201  62.085 -54.001  1.00  0.00     0.120 A 
HETATM   11  N   UNL     1     -43.617  61.485 -55.137  1.00  0.00    -0.237 NA
HETATM   12  C   UNL     1     -44.210  60.286 -55.006  1.00  0.00     0.165 A 
HETATM   13  C   UNL     1     -44.390  59.648 -53.787  1.00  0.00     0.066 A 
BRANCH  12  14
HETATM   14  O   UNL     1     -44.635  59.591 -56.115  1.00  0.00    -0.324 OA
BRANCH  14  15
HETATM   15  C   UNL     1     -43.663  58.973 -56.978  1.00  0.00     0.058 C 
HETATM   16  C   UNL     1     -42.407  58.510 -56.225  1.00  0.00     0.045 C 
HETATM   17  C   UNL     1     -43.321  59.840 -58.199  1.00  0.00     0.045 C 
HETATM   18  C   UNL     1     -44.384  57.711 -57.492  1.00  0.00     0.045 C 
ENDBRANCH  14  15
ENDBRANCH  12  14
ENDBRANCH   7   8
ENDBRANCH   1   7
BRANCH   3  19
HETATM   19  C   UNL     1     -43.065  54.940 -50.495  1.00  0.00     0.100 A 
HETATM   20  C   UNL     1     -43.296  54.009 -51.664  1.00  0.00     0.049 A 
HETATM   21  C   UNL     1     -42.031  53.893 -50.825  1.00  0.00     0.024 A 
HETATM   22  C   UNL     1     -42.805  54.344 -53.038  1.00  0.00    -0.045 A 
HETATM   23  C   UNL     1     -40.812  54.169 -51.692  1.00  0.00     0.046 A 
HETATM   24  C   UNL     1     -41.399  54.437 -53.059  1.00  0.00    -0.051 A 
HETATM   25  C   UNL     1     -40.708  54.751 -54.219  1.00  0.00     0.007 A 
HETATM   26  C   UNL     1     -41.443  54.980 -55.383  1.00  0.00     0.001 A 
HETATM   27  C   UNL     1     -42.843  54.894 -55.374  1.00  0.00     0.001 A 
HETATM   28  C   UNL     1     -43.529  54.576 -54.198  1.00  0.00     0.008 A 
ENDBRANCH   3  19
TORSDOF 5
ENDMDL
