MODEL 1
REMARK VINA RESULT:      -8.7      0.000      0.000
REMARK  8 active torsions:
REMARK  status: ('A' for Active; 'I' for Inactive)
REMARK    1  A    between atoms: C_2  and  O_3 
REMARK    2  A    between atoms: O_3  and  C_4 
REMARK    3  A    between atoms: C_4  and  C_5 
REMARK    4  A    between atoms: C_6  and  N_7 
REMARK       I    between atoms: N_7  and  C_8 
REMARK    5  A    between atoms: C_8  and  C_9 
REMARK    6  A    between atoms: C_9  and  S_10 
REMARK    7  A    between atoms: S_10  and  C_11 
REMARK    8  A    between atoms: N_18  and  C_19 
ROOT
HETATM    1  C   UNL     1     -42.115  60.288 -53.434  1.00  0.00     0.185 C 
ENDROOT
BRANCH   1   2
HETATM    2  C   UNL     1     -41.259  59.037 -53.303  1.00  0.00     0.232 C 
HETATM    3  N   UNL     1     -42.007  57.869 -53.334  1.00  0.00    -0.320 N 
HETATM    4  H   UNL     1     -43.023  57.943 -53.293  1.00  0.00     0.169 HD
HETATM    5  O   UNL     1     -40.037  59.131 -53.218  1.00  0.00    -0.272 OA
BRANCH   3   6
HETATM    6  C   UNL     1     -41.527  56.568 -53.433  1.00  0.00     0.094 A 
HETATM    7  C   UNL     1     -41.430  55.644 -52.394  1.00  0.00     0.080 A 
HETATM    8  C   UNL     1     -40.904  54.378 -52.879  1.00  0.00    -0.026 A 
HETATM    9  C   UNL     1     -40.701  54.409 -54.246  1.00  0.00    -0.008 A 
HETATM   10  C   UNL     1     -40.664  53.118 -52.090  1.00  0.00     0.041 C 
HETATM   11  S   UNL     1     -41.033  55.923 -54.923  1.00  0.00    -0.075 SA
HETATM   12  C   UNL     1     -40.230  53.263 -55.086  1.00  0.00     0.047 C 
HETATM   13  C   UNL     1     -40.430  51.940 -54.336  1.00  0.00     0.005 C 
HETATM   14  C   UNL     1     -39.917  52.043 -52.895  1.00  0.00     0.005 C 
BRANCH   7  15
HETATM   15  C   UNL     1     -41.856  55.976 -51.030  1.00  0.00     0.296 C 
HETATM   16  O   UNL     1     -43.013  56.282 -50.756  1.00  0.00    -0.259 OA
BRANCH  15  17
HETATM   17  O   UNL     1     -40.850  55.894 -50.118  1.00  0.00    -0.318 OA
BRANCH  17  18
HETATM   18  C   UNL     1     -41.092  55.038 -48.994  1.00  0.00     0.174 C 
HETATM   19  C   UNL     1     -39.870  54.160 -48.807  1.00  0.00     0.034 C 
ENDBRANCH  17  18
ENDBRANCH  15  17
ENDBRANCH   7  15
ENDBRANCH   3   6
ENDBRANCH   1   2
BRANCH   1  20
HETATM   20  S   UNL     1     -43.704  59.899 -54.225  1.00  0.00    -0.083 SA
BRANCH  20  21
HETATM   21  C   UNL     1     -43.210  60.018 -55.878  1.00  0.00     0.171 A 
HETATM   22  N   UNL     1     -43.280  59.005 -56.685  1.00  0.00    -0.204 NA
HETATM   23  C   UNL     1     -42.808  59.284 -57.934  1.00  0.00     0.171 A 
HETATM   24  C   UNL     1     -42.251  60.476 -58.338  1.00  0.00     0.099 A 
HETATM   25  N   UNL     1     -42.758  58.440 -59.042  1.00  0.00    -0.215 N 
HETATM   26  C   UNL     1     -42.202  61.579 -57.424  1.00  0.00     0.263 A 
HETATM   27  C   UNL     1     -41.810  60.273 -59.643  1.00  0.00     0.160 A 
HETATM   28  O   UNL     1     -41.728  62.676 -57.690  1.00  0.00    -0.267 OA
HETATM   29  N   UNL     1     -42.734  61.267 -56.193  1.00  0.00    -0.301 N 
HETATM   30  H   UNL     1     -42.731  61.988 -55.488  1.00  0.00     0.171 HD
HETATM   31  N   UNL     1     -42.066  59.033 -60.068  1.00  0.00    -0.177 NA
BRANCH  25  32
HETATM   32  C   UNL     1     -43.327  57.146 -59.225  1.00  0.00     0.060 A 
HETATM   33  C   UNL     1     -43.003  56.073 -58.381  1.00  0.00     0.034 A 
HETATM   34  C   UNL     1     -43.612  54.828 -58.565  1.00  0.00     0.044 A 
HETATM   35  C   UNL     1     -44.533  54.654 -59.591  1.00  0.00     0.116 A 
HETATM   36  F   UNL     1     -45.104  53.457 -59.770  1.00  0.00    -0.206 F 
HETATM   37  C   UNL     1     -44.865  55.704 -60.439  1.00  0.00     0.044 A 
HETATM   38  C   UNL     1     -44.269  56.953 -60.252  1.00  0.00     0.034 A 
ENDBRANCH  25  32
ENDBRANCH  20  21
ENDBRANCH   1  20
TORSDOF 8
ENDMDL
MODEL 2
REMARK VINA RESULT:      -8.7      3.007      4.896
REMARK  8 active torsions:
REMARK  status: ('A' for Active; 'I' for Inactive)
REMARK    1  A    between atoms: C_2  and  O_3 
REMARK    2  A    between atoms: O_3  and  C_4 
REMARK    3  A    between atoms: C_4  and  C_5 
REMARK    4  A    between atoms: C_6  and  N_7 
REMARK       I    between atoms: N_7  and  C_8 
REMARK    5  A    between atoms: C_8  and  C_9 
REMARK    6  A    between atoms: C_9  and  S_10 
REMARK    7  A    between atoms: S_10  and  C_11 
REMARK    8  A    between atoms: N_18  and  C_19 
ROOT
HETATM    1  C   UNL     1     -41.432  57.039 -49.756  1.00  0.00     0.185 C 
ENDROOT
BRANCH   1   2
HETATM    2  C   UNL     1     -41.705  55.697 -50.419  1.00  0.00     0.232 C 
HETATM    3  N   UNL     1     -40.606  55.206 -51.109  1.00  0.00    -0.320 N 
HETATM    4  H   UNL     1     -39.800  55.818 -51.236  1.00  0.00     0.169 HD
HETATM    5  O   UNL     1     -42.796  55.151 -50.281  1.00  0.00    -0.272 OA
BRANCH   3   6
HETATM    6  C   UNL     1     -40.456  53.936 -51.654  1.00  0.00     0.094 A 
HETATM    7  C   UNL     1     -40.509  53.608 -53.007  1.00  0.00     0.080 A 
HETATM    8  C   UNL     1     -40.285  52.184 -53.201  1.00  0.00    -0.026 A 
HETATM    9  C   UNL     1     -40.018  51.550 -52.002  1.00  0.00    -0.008 A 
HETATM   10  C   UNL     1     -40.241  51.428 -54.503  1.00  0.00     0.041 C 
HETATM   11  S   UNL     1     -40.124  52.592 -50.673  1.00  0.00    -0.075 SA
HETATM   12  C   UNL     1     -39.678  50.102 -51.836  1.00  0.00     0.047 C 
HETATM   13  C   UNL     1     -39.222  49.509 -53.175  1.00  0.00     0.005 C 
HETATM   14  C   UNL     1     -40.178  49.905 -54.306  1.00  0.00     0.005 C 
BRANCH   7  15
HETATM   15  C   UNL     1     -40.731  54.630 -54.036  1.00  0.00     0.296 C 
HETATM   16  O   UNL     1     -39.948  54.816 -54.963  1.00  0.00    -0.259 OA
BRANCH  15  17
HETATM   17  O   UNL     1     -41.888  55.326 -53.860  1.00  0.00    -0.318 OA
BRANCH  17  18
HETATM   18  C   UNL     1     -43.099  54.581 -54.035  1.00  0.00     0.174 C 
HETATM   19  C   UNL     1     -43.164  54.133 -55.482  1.00  0.00     0.034 C 
ENDBRANCH  17  18
ENDBRANCH  15  17
ENDBRANCH   7  15
ENDBRANCH   3   6
ENDBRANCH   1   2
BRANCH   1  20
HETATM   20  S   UNL     1     -40.714  58.209 -50.946  1.00  0.00    -0.083 SA
BRANCH  20  21
HETATM   21  C   UNL     1     -42.170  58.708 -51.735  1.00  0.00     0.171 A 
HETATM   22  N   UNL     1     -42.251  58.789 -53.027  1.00  0.00    -0.204 NA
HETATM   23  C   UNL     1     -43.465  59.237 -53.458  1.00  0.00     0.171 A 
HETATM   24  C   UNL     1     -44.511  59.631 -52.655  1.00  0.00     0.099 A 
HETATM   25  N   UNL     1     -43.897  59.419 -54.770  1.00  0.00    -0.215 N 
HETATM   26  C   UNL     1     -44.391  59.514 -51.231  1.00  0.00     0.263 A 
HETATM   27  C   UNL     1     -45.494  60.115 -53.513  1.00  0.00     0.160 A 
HETATM   28  O   UNL     1     -45.265  59.837 -50.437  1.00  0.00    -0.267 OA
HETATM   29  N   UNL     1     -43.169  59.012 -50.845  1.00  0.00    -0.301 N 
HETATM   30  H   UNL     1     -43.001  58.905 -49.856  1.00  0.00     0.171 HD
HETATM   31  N   UNL     1     -45.122  60.038 -54.793  1.00  0.00    -0.177 NA
BRANCH  25  32
HETATM   32  C   UNL     1     -43.273  59.036 -55.994  1.00  0.00     0.060 A 
HETATM   33  C   UNL     1     -42.460  59.923 -56.715  1.00  0.00     0.034 A 
HETATM   34  C   UNL     1     -41.831  59.499 -57.890  1.00  0.00     0.044 A 
HETATM   35  C   UNL     1     -42.021  58.200 -58.346  1.00  0.00     0.116 A 
HETATM   36  F   UNL     1     -41.426  57.804 -59.478  1.00  0.00    -0.206 F 
HETATM   37  C   UNL     1     -42.825  57.309 -57.648  1.00  0.00     0.044 A 
HETATM   38  C   UNL     1     -43.446  57.722 -56.467  1.00  0.00     0.034 A 
ENDBRANCH  25  32
ENDBRANCH  20  21
ENDBRANCH   1  20
TORSDOF 8
ENDMDL
MODEL 3
REMARK VINA RESULT:      -8.5      2.090      2.607
REMARK  8 active torsions:
REMARK  status: ('A' for Active; 'I' for Inactive)
REMARK    1  A    between atoms: C_2  and  O_3 
REMARK    2  A    between atoms: O_3  and  C_4 
REMARK    3  A    between atoms: C_4  and  C_5 
REMARK    4  A    between atoms: C_6  and  N_7 
REMARK       I    between atoms: N_7  and  C_8 
REMARK    5  A    between atoms: C_8  and  C_9 
REMARK    6  A    between atoms: C_9  and  S_10 
REMARK    7  A    between atoms: S_10  and  C_11 
REMARK    8  A    between atoms: N_18  and  C_19 
ROOT
HETATM    1  C   UNL     1     -45.139  57.740 -54.533  1.00  0.00     0.185 C 
ENDROOT
BRANCH   1   2
HETATM    2  C   UNL     1     -43.825  57.116 -54.091  1.00  0.00     0.232 C 
HETATM    3  N   UNL     1     -43.949  55.771 -53.773  1.00  0.00    -0.320 N 
HETATM    4  H   UNL     1     -44.885  55.370 -53.719  1.00  0.00     0.169 HD
HETATM    5  O   UNL     1     -42.796  57.786 -54.079  1.00  0.00    -0.272 OA
BRANCH   3   6
HETATM    6  C   UNL     1     -42.921  54.868 -53.525  1.00  0.00     0.094 A 
HETATM    7  C   UNL     1     -42.452  54.476 -52.273  1.00  0.00     0.080 A 
HETATM    8  C   UNL     1     -41.384  53.499 -52.406  1.00  0.00    -0.026 A 
HETATM    9  C   UNL     1     -41.162  53.175 -53.732  1.00  0.00    -0.008 A 
HETATM   10  C   UNL     1     -40.624  52.810 -51.304  1.00  0.00     0.041 C 
HETATM   11  S   UNL     1     -42.124  54.073 -54.794  1.00  0.00    -0.075 SA
HETATM   12  C   UNL     1     -40.182  52.160 -54.231  1.00  0.00     0.047 C 
HETATM   13  C   UNL     1     -39.781  51.209 -53.097  1.00  0.00     0.005 C 
HETATM   14  C   UNL     1     -39.433  51.988 -51.823  1.00  0.00     0.005 C 
BRANCH   7  15
HETATM   15  C   UNL     1     -43.040  55.001 -51.035  1.00  0.00     0.296 C 
HETATM   16  O   UNL     1     -43.758  54.324 -50.306  1.00  0.00    -0.259 OA
BRANCH  15  17
HETATM   17  O   UNL     1     -42.694  56.293 -50.783  1.00  0.00    -0.318 OA
BRANCH  17  18
HETATM   18  C   UNL     1     -41.352  56.504 -50.327  1.00  0.00     0.174 C 
HETATM   19  C   UNL     1     -40.916  57.881 -50.790  1.00  0.00     0.034 C 
ENDBRANCH  17  18
ENDBRANCH  15  17
ENDBRANCH   7  15
ENDBRANCH   3   6
ENDBRANCH   1   2
BRANCH   1  20
HETATM   20  S   UNL     1     -44.960  59.536 -54.744  1.00  0.00    -0.083 SA
BRANCH  20  21
HETATM   21  C   UNL     1     -44.192  59.543 -56.293  1.00  0.00     0.171 A 
HETATM   22  N   UNL     1     -44.740  58.983 -57.327  1.00  0.00    -0.204 NA
HETATM   23  C   UNL     1     -43.965  59.057 -58.448  1.00  0.00     0.171 A 
HETATM   24  C   UNL     1     -42.704  59.604 -58.521  1.00  0.00     0.099 A 
HETATM   25  N   UNL     1     -44.255  58.585 -59.726  1.00  0.00    -0.215 N 
HETATM   26  C   UNL     1     -42.135  60.227 -57.361  1.00  0.00     0.263 A 
HETATM   27  C   UNL     1     -42.254  59.360 -59.815  1.00  0.00     0.160 A 
HETATM   28  O   UNL     1     -41.024  60.739 -57.329  1.00  0.00    -0.267 OA
HETATM   29  N   UNL     1     -42.972  60.171 -56.269  1.00  0.00    -0.301 N 
HETATM   30  H   UNL     1     -42.643  60.581 -55.409  1.00  0.00     0.171 HD
HETATM   31  N   UNL     1     -43.160  58.704 -60.544  1.00  0.00    -0.177 NA
BRANCH  25  32
HETATM   32  C   UNL     1     -45.476  58.064 -60.247  1.00  0.00     0.060 A 
HETATM   33  C   UNL     1     -46.499  58.905 -60.708  1.00  0.00     0.034 A 
HETATM   34  C   UNL     1     -47.666  58.358 -61.251  1.00  0.00     0.044 A 
HETATM   35  C   UNL     1     -47.812  56.978 -61.324  1.00  0.00     0.116 A 
HETATM   36  F   UNL     1     -48.937  56.460 -61.833  1.00  0.00    -0.206 F 
HETATM   37  C   UNL     1     -46.813  56.128 -60.868  1.00  0.00     0.044 A 
HETATM   38  C   UNL     1     -45.640  56.669 -60.337  1.00  0.00     0.034 A 
ENDBRANCH  25  32
ENDBRANCH  20  21
ENDBRANCH   1  20
TORSDOF 8
ENDMDL
MODEL 4
REMARK VINA RESULT:      -8.3      6.409      9.330
REMARK  8 active torsions:
REMARK  status: ('A' for Active; 'I' for Inactive)
REMARK    1  A    between atoms: C_2  and  O_3 
REMARK    2  A    between atoms: O_3  and  C_4 
REMARK    3  A    between atoms: C_4  and  C_5 
REMARK    4  A    between atoms: C_6  and  N_7 
REMARK       I    between atoms: N_7  and  C_8 
REMARK    5  A    between atoms: C_8  and  C_9 
REMARK    6  A    between atoms: C_9  and  S_10 
REMARK    7  A    between atoms: S_10  and  C_11 
REMARK    8  A    between atoms: N_18  and  C_19 
ROOT
HETATM    1  C   UNL     1     -43.638  59.451 -51.328  1.00  0.00     0.185 C 
ENDROOT
BRANCH   1   2
HETATM    2  C   UNL     1     -42.648  58.297 -51.361  1.00  0.00     0.232 C 
HETATM    3  N   UNL     1     -43.046  57.272 -52.208  1.00  0.00    -0.320 N 
HETATM    4  H   UNL     1     -43.988  57.305 -52.600  1.00  0.00     0.169 HD
HETATM    5  O   UNL     1     -41.610  58.355 -50.708  1.00  0.00    -0.272 OA
BRANCH   3   6
HETATM    6  C   UNL     1     -42.292  56.177 -52.613  1.00  0.00     0.094 A 
HETATM    7  C   UNL     1     -42.156  54.970 -51.929  1.00  0.00     0.080 A 
HETATM    8  C   UNL     1     -41.307  54.052 -52.670  1.00  0.00    -0.026 A 
HETATM    9  C   UNL     1     -40.914  54.595 -53.879  1.00  0.00    -0.008 A 
HETATM   10  C   UNL     1     -40.925  52.644 -52.293  1.00  0.00     0.041 C 
HETATM   11  S   UNL     1     -41.455  56.184 -54.089  1.00  0.00    -0.075 SA
HETATM   12  C   UNL     1     -40.089  53.905 -54.920  1.00  0.00     0.047 C 
HETATM   13  C   UNL     1     -40.113  52.388 -54.693  1.00  0.00     0.005 C 
HETATM   14  C   UNL     1     -39.854  52.048 -53.221  1.00  0.00     0.005 C 
BRANCH   7  15
HETATM   15  C   UNL     1     -42.843  54.730 -50.655  1.00  0.00     0.296 C 
HETATM   16  O   UNL     1     -44.028  54.997 -50.483  1.00  0.00    -0.259 OA
BRANCH  15  17
HETATM   17  O   UNL     1     -42.038  54.175 -49.708  1.00  0.00    -0.318 OA
BRANCH  17  18
HETATM   18  C   UNL     1     -41.062  55.048 -49.127  1.00  0.00     0.174 C 
HETATM   19  C   UNL     1     -39.707  54.378 -49.252  1.00  0.00     0.034 C 
ENDBRANCH  17  18
ENDBRANCH  15  17
ENDBRANCH   7  15
ENDBRANCH   3   6
ENDBRANCH   1   2
BRANCH   1  20
HETATM   20  S   UNL     1     -42.859  60.947 -50.652  1.00  0.00    -0.083 SA
BRANCH  20  21
HETATM   21  C   UNL     1     -44.259  61.671 -49.938  1.00  0.00     0.171 A 
HETATM   22  N   UNL     1     -44.382  61.794 -48.653  1.00  0.00    -0.204 NA
HETATM   23  C   UNL     1     -45.570  62.352 -48.281  1.00  0.00     0.171 A 
HETATM   24  C   UNL     1     -46.592  62.712 -49.130  1.00  0.00     0.099 A 
HETATM   25  N   UNL     1     -46.015  62.647 -46.994  1.00  0.00    -0.215 N 
HETATM   26  C   UNL     1     -46.416  62.575 -50.546  1.00  0.00     0.263 A 
HETATM   27  C   UNL     1     -47.641  63.126 -48.314  1.00  0.00     0.160 A 
HETATM   28  O   UNL     1     -47.265  62.868 -51.378  1.00  0.00    -0.267 OA
HETATM   29  N   UNL     1     -45.185  62.055 -50.876  1.00  0.00    -0.301 N 
HETATM   30  H   UNL     1     -44.984  61.919 -51.855  1.00  0.00     0.171 HD
HETATM   31  N   UNL     1     -47.327  63.049 -47.019  1.00  0.00    -0.177 NA
BRANCH  25  32
HETATM   32  C   UNL     1     -45.307  62.611 -45.757  1.00  0.00     0.060 A 
HETATM   33  C   UNL     1     -44.764  61.419 -45.253  1.00  0.00     0.034 A 
HETATM   34  C   UNL     1     -44.040  61.430 -44.057  1.00  0.00     0.044 A 
HETATM   35  C   UNL     1     -43.867  62.622 -43.365  1.00  0.00     0.116 A 
HETATM   36  F   UNL     1     -43.184  62.624 -42.213  1.00  0.00    -0.206 F 
HETATM   37  C   UNL     1     -44.400  63.812 -43.846  1.00  0.00     0.044 A 
HETATM   38  C   UNL     1     -45.113  63.810 -45.046  1.00  0.00     0.034 A 
ENDBRANCH  25  32
ENDBRANCH  20  21
ENDBRANCH   1  20
TORSDOF 8
ENDMDL
MODEL 5
REMARK VINA RESULT:      -8.3      3.129      8.765
REMARK  8 active torsions:
REMARK  status: ('A' for Active; 'I' for Inactive)
REMARK    1  A    between atoms: C_2  and  O_3 
REMARK    2  A    between atoms: O_3  and  C_4 
REMARK    3  A    between atoms: C_4  and  C_5 
REMARK    4  A    between atoms: C_6  and  N_7 
REMARK       I    between atoms: N_7  and  C_8 
REMARK    5  A    between atoms: C_8  and  C_9 
REMARK    6  A    between atoms: C_9  and  S_10 
REMARK    7  A    between atoms: S_10  and  C_11 
REMARK    8  A    between atoms: N_18  and  C_19 
ROOT
HETATM    1  C   UNL     1     -43.207  56.257 -55.339  1.00  0.00     0.185 C 
ENDROOT
BRANCH   1   2
HETATM    2  C   UNL     1     -43.381  57.496 -56.204  1.00  0.00     0.232 C 
HETATM    3  N   UNL     1     -42.233  57.823 -56.910  1.00  0.00    -0.320 N 
HETATM    4  H   UNL     1     -41.369  57.326 -56.690  1.00  0.00     0.169 HD
HETATM    5  O   UNL     1     -44.465  58.070 -56.249  1.00  0.00    -0.272 OA
BRANCH   3   6
HETATM    6  C   UNL     1     -42.111  58.766 -57.925  1.00  0.00     0.094 A 
HETATM    7  C   UNL     1     -42.252  58.530 -59.291  1.00  0.00     0.080 A 
HETATM    8  C   UNL     1     -42.079  59.760 -60.047  1.00  0.00    -0.026 A 
HETATM    9  C   UNL     1     -41.884  60.842 -59.207  1.00  0.00    -0.008 A 
HETATM   10  C   UNL     1     -42.172  59.945 -61.539  1.00  0.00     0.041 C 
HETATM   11  S   UNL     1     -41.812  60.399 -57.577  1.00  0.00    -0.075 SA
HETATM   12  C   UNL     1     -41.735  62.267 -59.640  1.00  0.00     0.047 C 
HETATM   13  C   UNL     1     -42.268  62.446 -61.066  1.00  0.00     0.005 C 
HETATM   14  C   UNL     1     -41.737  61.347 -61.994  1.00  0.00     0.005 C 
BRANCH   7  15
HETATM   15  C   UNL     1     -42.568  57.194 -59.810  1.00  0.00     0.296 C 
HETATM   16  O   UNL     1     -41.754  56.518 -60.432  1.00  0.00    -0.259 OA
BRANCH  15  17
HETATM   17  O   UNL     1     -43.834  56.790 -59.517  1.00  0.00    -0.318 OA
BRANCH  17  18
HETATM   18  C   UNL     1     -44.437  55.893 -60.458  1.00  0.00     0.174 C 
HETATM   19  C   UNL     1     -44.563  54.537 -59.791  1.00  0.00     0.034 C 
ENDBRANCH  17  18
ENDBRANCH  15  17
ENDBRANCH   7  15
ENDBRANCH   3   6
ENDBRANCH   1   2
BRANCH   1  20
HETATM   20  S   UNL     1     -44.104  56.438 -53.769  1.00  0.00    -0.083 SA
BRANCH  20  21
HETATM   21  C   UNL     1     -42.818  56.030 -52.685  1.00  0.00     0.171 A 
HETATM   22  N   UNL     1     -42.221  54.880 -52.738  1.00  0.00    -0.204 NA
HETATM   23  C   UNL     1     -41.263  54.731 -51.779  1.00  0.00     0.171 A 
HETATM   24  C   UNL     1     -40.958  55.645 -50.796  1.00  0.00     0.099 A 
HETATM   25  N   UNL     1     -40.423  53.641 -51.566  1.00  0.00    -0.215 N 
HETATM   26  C   UNL     1     -41.628  56.912 -50.776  1.00  0.00     0.263 A 
HETATM   27  C   UNL     1     -40.010  55.032 -49.982  1.00  0.00     0.160 A 
HETATM   28  O   UNL     1     -41.425  57.787 -49.944  1.00  0.00    -0.267 OA
HETATM   29  N   UNL     1     -42.550  57.036 -51.791  1.00  0.00    -0.301 N 
HETATM   30  H   UNL     1     -43.072  57.898 -51.844  1.00  0.00     0.171 HD
HETATM   31  N   UNL     1     -39.709  53.802 -50.405  1.00  0.00    -0.177 NA
BRANCH  25  32
HETATM   32  C   UNL     1     -40.214  52.483 -52.372  1.00  0.00     0.060 A 
HETATM   33  C   UNL     1     -40.414  52.506 -53.760  1.00  0.00     0.034 A 
HETATM   34  C   UNL     1     -40.160  51.363 -54.524  1.00  0.00     0.044 A 
HETATM   35  C   UNL     1     -39.717  50.202 -53.903  1.00  0.00     0.116 A 
HETATM   36  F   UNL     1     -39.487  49.106 -54.638  1.00  0.00    -0.206 F 
HETATM   37  C   UNL     1     -39.517  50.158 -52.529  1.00  0.00     0.044 A 
HETATM   38  C   UNL     1     -39.758  51.299 -51.762  1.00  0.00     0.034 A 
ENDBRANCH  25  32
ENDBRANCH  20  21
ENDBRANCH   1  20
TORSDOF 8
ENDMDL
MODEL 6
REMARK VINA RESULT:      -8.1      6.258      9.319
REMARK  8 active torsions:
REMARK  status: ('A' for Active; 'I' for Inactive)
REMARK    1  A    between atoms: C_2  and  O_3 
REMARK    2  A    between atoms: O_3  and  C_4 
REMARK    3  A    between atoms: C_4  and  C_5 
REMARK    4  A    between atoms: C_6  and  N_7 
REMARK       I    between atoms: N_7  and  C_8 
REMARK    5  A    between atoms: C_8  and  C_9 
REMARK    6  A    between atoms: C_9  and  S_10 
REMARK    7  A    between atoms: S_10  and  C_11 
REMARK    8  A    between atoms: N_18  and  C_19 
ROOT
HETATM    1  C   UNL     1     -43.535  58.883 -51.290  1.00  0.00     0.185 C 
ENDROOT
BRANCH   1   2
HETATM    2  C   UNL     1     -42.462  57.805 -51.278  1.00  0.00     0.232 C 
HETATM    3  N   UNL     1     -42.973  56.536 -51.509  1.00  0.00    -0.320 N 
HETATM    4  H   UNL     1     -43.986  56.415 -51.518  1.00  0.00     0.169 HD
HETATM    5  O   UNL     1     -41.283  58.108 -51.112  1.00  0.00    -0.272 OA
BRANCH   3   6
HETATM    6  C   UNL     1     -42.253  55.372 -51.754  1.00  0.00     0.094 A 
HETATM    7  C   UNL     1     -41.859  54.893 -53.002  1.00  0.00     0.080 A 
HETATM    8  C   UNL     1     -41.101  53.659 -52.864  1.00  0.00    -0.026 A 
HETATM    9  C   UNL     1     -40.921  53.327 -51.534  1.00  0.00    -0.008 A 
HETATM   10  C   UNL     1     -40.479  52.834 -53.959  1.00  0.00     0.041 C 
HETATM   11  S   UNL     1     -41.708  54.391 -50.481  1.00  0.00    -0.075 SA
HETATM   12  C   UNL     1     -40.137  52.158 -51.024  1.00  0.00     0.047 C 
HETATM   13  C   UNL     1     -39.192  51.639 -52.115  1.00  0.00     0.005 C 
HETATM   14  C   UNL     1     -39.925  51.492 -53.453  1.00  0.00     0.005 C 
BRANCH   7  15
HETATM   15  C   UNL     1     -42.178  55.618 -54.237  1.00  0.00     0.296 C 
HETATM   16  O   UNL     1     -41.314  55.992 -55.025  1.00  0.00    -0.259 OA
BRANCH  15  17
HETATM   17  O   UNL     1     -43.513  55.811 -54.416  1.00  0.00    -0.318 OA
BRANCH  17  18
HETATM   18  C   UNL     1     -43.880  56.961 -55.189  1.00  0.00     0.174 C 
HETATM   19  C   UNL     1     -45.062  57.621 -54.505  1.00  0.00     0.034 C 
ENDBRANCH  17  18
ENDBRANCH  15  17
ENDBRANCH   7  15
ENDBRANCH   3   6
ENDBRANCH   1   2
BRANCH   1  20
HETATM   20  S   UNL     1     -42.799  60.525 -51.037  1.00  0.00    -0.083 SA
BRANCH  20  21
HETATM   21  C   UNL     1     -44.183  61.334 -50.388  1.00  0.00     0.171 A 
HETATM   22  N   UNL     1     -44.357  61.466 -49.109  1.00  0.00    -0.204 NA
HETATM   23  C   UNL     1     -45.524  62.096 -48.791  1.00  0.00     0.171 A 
HETATM   24  C   UNL     1     -46.482  62.517 -49.686  1.00  0.00     0.099 A 
HETATM   25  N   UNL     1     -46.009  62.419 -47.526  1.00  0.00    -0.215 N 
HETATM   26  C   UNL     1     -46.250  62.368 -51.092  1.00  0.00     0.263 A 
HETATM   27  C   UNL     1     -47.540  62.996 -48.918  1.00  0.00     0.160 A 
HETATM   28  O   UNL     1     -47.040  62.711 -51.962  1.00  0.00    -0.267 OA
HETATM   29  N   UNL     1     -45.039  61.773 -51.366  1.00  0.00    -0.301 N 
HETATM   30  H   UNL     1     -44.802  61.624 -52.335  1.00  0.00     0.171 HD
HETATM   31  N   UNL     1     -47.291  62.902 -47.610  1.00  0.00    -0.177 NA
BRANCH  25  32
HETATM   32  C   UNL     1     -45.362  62.342 -46.258  1.00  0.00     0.060 A 
HETATM   33  C   UNL     1     -44.841  61.134 -45.769  1.00  0.00     0.034 A 
HETATM   34  C   UNL     1     -44.176  61.104 -44.539  1.00  0.00     0.044 A 
HETATM   35  C   UNL     1     -44.042  62.272 -43.798  1.00  0.00     0.116 A 
HETATM   36  F   UNL     1     -43.415  62.234 -42.615  1.00  0.00    -0.206 F 
HETATM   37  C   UNL     1     -44.554  63.476 -44.263  1.00  0.00     0.044 A 
HETATM   38  C   UNL     1     -45.208  63.516 -45.496  1.00  0.00     0.034 A 
ENDBRANCH  25  32
ENDBRANCH  20  21
ENDBRANCH   1  20
TORSDOF 8
ENDMDL
MODEL 7
REMARK VINA RESULT:      -7.9      2.472      3.019
REMARK  8 active torsions:
REMARK  status: ('A' for Active; 'I' for Inactive)
REMARK    1  A    between atoms: C_2  and  O_3 
REMARK    2  A    between atoms: O_3  and  C_4 
REMARK    3  A    between atoms: C_4  and  C_5 
REMARK    4  A    between atoms: C_6  and  N_7 
REMARK       I    between atoms: N_7  and  C_8 
REMARK    5  A    between atoms: C_8  and  C_9 
REMARK    6  A    between atoms: C_9  and  S_10 
REMARK    7  A    between atoms: S_10  and  C_11 
REMARK    8  A    between atoms: N_18  and  C_19 
ROOT
HETATM    1  C   UNL     1     -42.804  57.669 -54.130  1.00  0.00     0.185 C 
ENDROOT
BRANCH   1   2
HETATM    2  C   UNL     1     -42.557  56.170 -54.215  1.00  0.00     0.232 C 
HETATM    3  N   UNL     1     -41.302  55.806 -53.750  1.00  0.00    -0.320 N 
HETATM    4  H   UNL     1     -40.628  56.544 -53.542  1.00  0.00     0.169 HD
HETATM    5  O   UNL     1     -43.438  55.422 -54.628  1.00  0.00    -0.272 OA
BRANCH   3   6
HETATM    6  C   UNL     1     -40.836  54.518 -53.510  1.00  0.00     0.094 A 
HETATM    7  C   UNL     1     -40.705  53.907 -52.264  1.00  0.00     0.080 A 
HETATM    8  C   UNL     1     -40.209  52.548 -52.407  1.00  0.00    -0.026 A 
HETATM    9  C   UNL     1     -40.060  52.205 -53.738  1.00  0.00    -0.008 A 
HETATM   10  C   UNL     1     -39.948  51.544 -51.315  1.00  0.00     0.041 C 
HETATM   11  S   UNL     1     -40.406  53.486 -54.786  1.00  0.00    -0.075 SA
HETATM   12  C   UNL     1     -39.630  50.867 -54.252  1.00  0.00     0.047 C 
HETATM   13  C   UNL     1     -39.810  49.800 -53.165  1.00  0.00     0.005 C 
HETATM   14  C   UNL     1     -39.240  50.278 -51.825  1.00  0.00     0.005 C 
BRANCH   7  15
HETATM   15  C   UNL     1     -41.076  54.603 -51.026  1.00  0.00     0.296 C 
HETATM   16  O   UNL     1     -40.243  54.992 -50.213  1.00  0.00    -0.259 OA
BRANCH  15  17
HETATM   17  O   UNL     1     -42.418  54.779 -50.891  1.00  0.00    -0.318 OA
BRANCH  17  18
HETATM   18  C   UNL     1     -42.848  56.116 -50.603  1.00  0.00     0.174 C 
HETATM   19  C   UNL     1     -44.364  56.131 -50.625  1.00  0.00     0.034 C 
ENDBRANCH  17  18
ENDBRANCH  15  17
ENDBRANCH   7  15
ENDBRANCH   3   6
ENDBRANCH   1   2
BRANCH   1  20
HETATM   20  S   UNL     1     -44.494  58.011 -53.557  1.00  0.00    -0.083 SA
BRANCH  20  21
HETATM   21  C   UNL     1     -45.062  58.894 -54.931  1.00  0.00     0.171 A 
HETATM   22  N   UNL     1     -45.018  58.395 -56.128  1.00  0.00    -0.204 NA
HETATM   23  C   UNL     1     -45.474  59.256 -57.083  1.00  0.00     0.171 A 
HETATM   24  C   UNL     1     -45.894  60.549 -56.868  1.00  0.00     0.099 A 
HETATM   25  N   UNL     1     -45.586  59.036 -58.454  1.00  0.00    -0.215 N 
HETATM   26  C   UNL     1     -45.943  61.063 -55.530  1.00  0.00     0.263 A 
HETATM   27  C   UNL     1     -46.158  61.081 -58.126  1.00  0.00     0.160 A 
HETATM   28  O   UNL     1     -46.302  62.196 -55.240  1.00  0.00    -0.267 OA
HETATM   29  N   UNL     1     -45.521  60.143 -54.597  1.00  0.00    -0.301 N 
HETATM   30  H   UNL     1     -45.518  60.429 -53.630  1.00  0.00     0.171 HD
HETATM   31  N   UNL     1     -45.932  60.197 -59.101  1.00  0.00    -0.177 NA
BRANCH  25  32
HETATM   32  C   UNL     1     -45.425  57.831 -59.198  1.00  0.00     0.060 A 
HETATM   33  C   UNL     1     -46.528  57.066 -59.608  1.00  0.00     0.034 A 
HETATM   34  C   UNL     1     -46.335  55.911 -60.373  1.00  0.00     0.044 A 
HETATM   35  C   UNL     1     -45.047  55.518 -60.716  1.00  0.00     0.116 A 
HETATM   36  F   UNL     1     -44.867  54.404 -61.437  1.00  0.00    -0.206 F 
HETATM   37  C   UNL     1     -43.943  56.259 -60.316  1.00  0.00     0.044 A 
HETATM   38  C   UNL     1     -44.129  57.421 -59.563  1.00  0.00     0.034 A 
ENDBRANCH  25  32
ENDBRANCH  20  21
ENDBRANCH   1  20
TORSDOF 8
ENDMDL
MODEL 8
REMARK VINA RESULT:      -7.9      3.655      8.987
REMARK  8 active torsions:
REMARK  status: ('A' for Active; 'I' for Inactive)
REMARK    1  A    between atoms: C_2  and  O_3 
REMARK    2  A    between atoms: O_3  and  C_4 
REMARK    3  A    between atoms: C_4  and  C_5 
REMARK    4  A    between atoms: C_6  and  N_7 
REMARK       I    between atoms: N_7  and  C_8 
REMARK    5  A    between atoms: C_8  and  C_9 
REMARK    6  A    between atoms: C_9  and  S_10 
REMARK    7  A    between atoms: S_10  and  C_11 
REMARK    8  A    between atoms: N_18  and  C_19 
ROOT
HETATM    1  C   UNL     1     -42.887  56.229 -57.312  1.00  0.00     0.185 C 
ENDROOT
BRANCH   1   2
HETATM    2  C   UNL     1     -43.723  56.286 -58.582  1.00  0.00     0.232 C 
HETATM    3  N   UNL     1     -44.978  56.839 -58.374  1.00  0.00    -0.320 N 
HETATM    4  H   UNL     1     -45.279  57.014 -57.414  1.00  0.00     0.169 HD
HETATM    5  O   UNL     1     -43.254  55.899 -59.648  1.00  0.00    -0.272 OA
BRANCH   3   6
HETATM    6  C   UNL     1     -45.903  57.212 -59.343  1.00  0.00     0.094 A 
HETATM    7  C   UNL     1     -46.198  58.513 -59.745  1.00  0.00     0.080 A 
HETATM    8  C   UNL     1     -47.200  58.512 -60.798  1.00  0.00    -0.026 A 
HETATM    9  C   UNL     1     -47.546  57.224 -61.161  1.00  0.00    -0.008 A 
HETATM   10  C   UNL     1     -47.778  59.701 -61.520  1.00  0.00     0.041 C 
HETATM   11  S   UNL     1     -46.777  56.050 -60.217  1.00  0.00    -0.075 SA
HETATM   12  C   UNL     1     -48.499  56.850 -62.253  1.00  0.00     0.047 C 
HETATM   13  C   UNL     1     -48.698  58.032 -63.209  1.00  0.00     0.005 C 
HETATM   14  C   UNL     1     -48.957  59.329 -62.434  1.00  0.00     0.005 C 
BRANCH   7  15
HETATM   15  C   UNL     1     -45.515  59.671 -59.156  1.00  0.00     0.296 C 
HETATM   16  O   UNL     1     -46.120  60.583 -58.601  1.00  0.00    -0.259 OA
BRANCH  15  17
HETATM   17  O   UNL     1     -44.160  59.614 -59.278  1.00  0.00    -0.318 OA
BRANCH  17  18
HETATM   18  C   UNL     1     -43.646  59.733 -60.610  1.00  0.00     0.174 C 
HETATM   19  C   UNL     1     -42.229  59.194 -60.611  1.00  0.00     0.034 C 
ENDBRANCH  17  18
ENDBRANCH  15  17
ENDBRANCH   7  15
ENDBRANCH   3   6
ENDBRANCH   1   2
BRANCH   1  20
HETATM   20  S   UNL     1     -42.888  57.839 -56.469  1.00  0.00    -0.083 SA
BRANCH  20  21
HETATM   21  C   UNL     1     -43.094  57.283 -54.844  1.00  0.00     0.171 A 
HETATM   22  N   UNL     1     -42.626  56.139 -54.451  1.00  0.00    -0.204 NA
HETATM   23  C   UNL     1     -42.923  55.859 -53.150  1.00  0.00     0.171 A 
HETATM   24  C   UNL     1     -43.684  56.641 -52.311  1.00  0.00     0.099 A 
HETATM   25  N   UNL     1     -42.559  54.738 -52.407  1.00  0.00    -0.215 N 
HETATM   26  C   UNL     1     -44.173  57.906 -52.774  1.00  0.00     0.263 A 
HETATM   27  C   UNL     1     -43.819  55.918 -51.129  1.00  0.00     0.160 A 
HETATM   28  O   UNL     1     -44.856  58.670 -52.103  1.00  0.00    -0.267 OA
HETATM   29  N   UNL     1     -43.808  58.168 -54.076  1.00  0.00    -0.301 N 
HETATM   30  H   UNL     1     -44.119  59.037 -54.481  1.00  0.00     0.171 HD
HETATM   31  N   UNL     1     -43.185  54.745 -51.186  1.00  0.00    -0.177 NA
BRANCH  25  32
HETATM   32  C   UNL     1     -41.656  53.684 -52.735  1.00  0.00     0.060 A 
HETATM   33  C   UNL     1     -41.621  53.117 -54.019  1.00  0.00     0.034 A 
HETATM   34  C   UNL     1     -40.694  52.114 -54.316  1.00  0.00     0.044 A 
HETATM   35  C   UNL     1     -39.813  51.674 -53.335  1.00  0.00     0.116 A 
HETATM   36  F   UNL     1     -38.936  50.704 -53.623  1.00  0.00    -0.206 F 
HETATM   37  C   UNL     1     -39.835  52.220 -52.058  1.00  0.00     0.044 A 
HETATM   38  C   UNL     1     -40.750  53.231 -51.758  1.00  0.00     0.034 A 
ENDBRANCH  25  32
ENDBRANCH  20  21
ENDBRANCH   1  20
TORSDOF 8
ENDMDL
MODEL 9
REMARK VINA RESULT:      -7.9      1.615      2.726
REMARK  8 active torsions:
REMARK  status: ('A' for Active; 'I' for Inactive)
REMARK    1  A    between atoms: C_2  and  O_3 
REMARK    2  A    between atoms: O_3  and  C_4 
REMARK    3  A    between atoms: C_4  and  C_5 
REMARK    4  A    between atoms: C_6  and  N_7 
REMARK       I    between atoms: N_7  and  C_8 
REMARK    5  A    between atoms: C_8  and  C_9 
REMARK    6  A    between atoms: C_9  and  S_10 
REMARK    7  A    between atoms: S_10  and  C_11 
REMARK    8  A    between atoms: N_18  and  C_19 
ROOT
HETATM    1  C   UNL     1     -42.535  60.964 -53.757  1.00  0.00     0.185 C 
ENDROOT
BRANCH   1   2
HETATM    2  C   UNL     1     -41.717  59.750 -53.344  1.00  0.00     0.232 C 
HETATM    3  N   UNL     1     -42.362  58.963 -52.401  1.00  0.00    -0.320 N 
HETATM    4  H   UNL     1     -43.216  59.321 -51.973  1.00  0.00     0.169 HD
HETATM    5  O   UNL     1     -40.624  59.536 -53.863  1.00  0.00    -0.272 OA
BRANCH   3   6
HETATM    6  C   UNL     1     -41.984  57.698 -51.962  1.00  0.00     0.094 A 
HETATM    7  C   UNL     1     -42.235  56.491 -52.612  1.00  0.00     0.080 A 
HETATM    8  C   UNL     1     -41.669  55.379 -51.866  1.00  0.00    -0.026 A 
HETATM    9  C   UNL     1     -40.982  55.819 -50.750  1.00  0.00    -0.008 A 
HETATM   10  C   UNL     1     -41.699  53.917 -52.230  1.00  0.00     0.041 C 
HETATM   11  S   UNL     1     -41.085  57.494 -50.538  1.00  0.00    -0.075 SA
HETATM   12  C   UNL     1     -40.224  54.954 -49.793  1.00  0.00     0.047 C 
HETATM   13  C   UNL     1     -39.921  53.594 -50.435  1.00  0.00     0.005 C 
HETATM   14  C   UNL     1     -41.171  53.012 -51.106  1.00  0.00     0.005 C 
BRANCH   7  15
HETATM   15  C   UNL     1     -42.951  56.444 -53.892  1.00  0.00     0.296 C 
HETATM   16  O   UNL     1     -44.176  56.487 -53.965  1.00  0.00    -0.259 OA
BRANCH  15  17
HETATM   17  O   UNL     1     -42.123  56.363 -54.968  1.00  0.00    -0.318 OA
BRANCH  17  18
HETATM   18  C   UNL     1     -42.105  55.103 -55.650  1.00  0.00     0.174 C 
HETATM   19  C   UNL     1     -40.730  54.491 -55.459  1.00  0.00     0.034 C 
ENDBRANCH  17  18
ENDBRANCH  15  17
ENDBRANCH   7  15
ENDBRANCH   3   6
ENDBRANCH   1   2
BRANCH   1  20
HETATM   20  S   UNL     1     -44.046  60.455 -54.628  1.00  0.00    -0.083 SA
BRANCH  20  21
HETATM   21  C   UNL     1     -43.422  60.429 -56.241  1.00  0.00     0.171 A 
HETATM   22  N   UNL     1     -43.540  59.385 -57.001  1.00  0.00    -0.204 NA
HETATM   23  C   UNL     1     -42.951  59.543 -58.221  1.00  0.00     0.171 A 
HETATM   24  C   UNL     1     -42.242  60.647 -58.637  1.00  0.00     0.099 A 
HETATM   25  N   UNL     1     -42.911  58.637 -59.279  1.00  0.00    -0.215 N 
HETATM   26  C   UNL     1     -42.144  61.789 -57.776  1.00  0.00     0.263 A 
HETATM   27  C   UNL     1     -41.732  60.326 -59.891  1.00  0.00     0.160 A 
HETATM   28  O   UNL     1     -41.537  62.814 -58.057  1.00  0.00    -0.267 OA
HETATM   29  N   UNL     1     -42.794  61.603 -56.577  1.00  0.00    -0.301 N 
HETATM   30  H   UNL     1     -42.767  62.358 -55.910  1.00  0.00     0.171 HD
HETATM   31  N   UNL     1     -42.086  59.097 -60.275  1.00  0.00    -0.177 NA
BRANCH  25  32
HETATM   32  C   UNL     1     -43.600  57.400 -59.443  1.00  0.00     0.060 A 
HETATM   33  C   UNL     1     -44.918  57.349 -59.921  1.00  0.00     0.034 A 
HETATM   34  C   UNL     1     -45.548  56.115 -60.109  1.00  0.00     0.044 A 
HETATM   35  C   UNL     1     -44.868  54.940 -59.812  1.00  0.00     0.116 A 
HETATM   36  F   UNL     1     -45.481  53.761 -59.983  1.00  0.00    -0.206 F 
HETATM   37  C   UNL     1     -43.564  54.970 -59.335  1.00  0.00     0.044 A 
HETATM   38  C   UNL     1     -42.925  56.199 -59.157  1.00  0.00     0.034 A 
ENDBRANCH  25  32
ENDBRANCH  20  21
ENDBRANCH   1  20
TORSDOF 8
ENDMDL
MODEL 10
REMARK VINA RESULT:      -7.8      4.080      5.711
REMARK  8 active torsions:
REMARK  status: ('A' for Active; 'I' for Inactive)
REMARK    1  A    between atoms: C_2  and  O_3 
REMARK    2  A    between atoms: O_3  and  C_4 
REMARK    3  A    between atoms: C_4  and  C_5 
REMARK    4  A    between atoms: C_6  and  N_7 
REMARK       I    between atoms: N_7  and  C_8 
REMARK    5  A    between atoms: C_8  and  C_9 
REMARK    6  A    between atoms: C_9  and  S_10 
REMARK    7  A    between atoms: S_10  and  C_11 
REMARK    8  A    between atoms: N_18  and  C_19 
ROOT
HETATM    1  C   UNL     1     -43.015  55.492 -57.182  1.00  0.00     0.185 C 
ENDROOT
BRANCH   1   2
HETATM    2  C   UNL     1     -42.685  55.738 -55.718  1.00  0.00     0.232 C 
HETATM    3  N   UNL     1     -42.761  54.585 -54.949  1.00  0.00    -0.320 N 
HETATM    4  H   UNL     1     -43.155  53.745 -55.372  1.00  0.00     0.169 HD
HETATM    5  O   UNL     1     -42.359  56.859 -55.338  1.00  0.00    -0.272 OA
BRANCH   3   6
HETATM    6  C   UNL     1     -42.338  54.423 -53.634  1.00  0.00     0.094 A 
HETATM    7  C   UNL     1     -41.123  53.881 -53.220  1.00  0.00     0.080 A 
HETATM    8  C   UNL     1     -41.021  53.895 -51.769  1.00  0.00    -0.026 A 
HETATM    9  C   UNL     1     -42.126  54.496 -51.194  1.00  0.00    -0.008 A 
HETATM   10  C   UNL     1     -39.869  53.422 -50.922  1.00  0.00     0.041 C 
HETATM   11  S   UNL     1     -43.293  54.945 -52.333  1.00  0.00    -0.075 SA
HETATM   12  C   UNL     1     -42.326  54.737 -49.731  1.00  0.00     0.047 C 
HETATM   13  C   UNL     1     -40.984  54.653 -48.993  1.00  0.00     0.005 C 
HETATM   14  C   UNL     1     -40.197  53.409 -49.421  1.00  0.00     0.005 C 
BRANCH   7  15
HETATM   15  C   UNL     1     -40.121  53.416 -54.186  1.00  0.00     0.296 C 
HETATM   16  O   UNL     1     -39.747  54.104 -55.132  1.00  0.00    -0.259 OA
BRANCH  15  17
HETATM   17  O   UNL     1     -39.650  52.169 -53.913  1.00  0.00    -0.318 OA
BRANCH  17  18
HETATM   18  C   UNL     1     -40.477  51.080 -54.343  1.00  0.00     0.174 C 
HETATM   19  C   UNL     1     -39.624  49.827 -54.354  1.00  0.00     0.034 C 
ENDBRANCH  17  18
ENDBRANCH  15  17
ENDBRANCH   7  15
ENDBRANCH   3   6
ENDBRANCH   1   2
BRANCH   1  20
HETATM   20  S   UNL     1     -42.678  56.975 -58.175  1.00  0.00    -0.083 SA
BRANCH  20  21
HETATM   21  C   UNL     1     -44.054  56.907 -59.221  1.00  0.00     0.171 A 
HETATM   22  N   UNL     1     -45.028  57.758 -59.122  1.00  0.00    -0.204 NA
HETATM   23  C   UNL     1     -46.039  57.518 -60.006  1.00  0.00     0.171 A 
HETATM   24  C   UNL     1     -46.102  56.467 -60.893  1.00  0.00     0.099 A 
HETATM   25  N   UNL     1     -47.214  58.244 -60.184  1.00  0.00    -0.215 N 
HETATM   26  C   UNL     1     -45.000  55.554 -60.985  1.00  0.00     0.263 A 
HETATM   27  C   UNL     1     -47.348  56.555 -61.505  1.00  0.00     0.160 A 
HETATM   28  O   UNL     1     -44.964  54.593 -61.742  1.00  0.00    -0.267 OA
HETATM   29  N   UNL     1     -43.984  55.864 -60.110  1.00  0.00    -0.301 N 
HETATM   30  H   UNL     1     -43.173  55.265 -60.107  1.00  0.00     0.171 HD
HETATM   31  N   UNL     1     -48.054  57.596 -61.055  1.00  0.00    -0.177 NA
BRANCH  25  32
HETATM   32  C   UNL     1     -47.598  59.502 -59.632  1.00  0.00     0.060 A 
HETATM   33  C   UNL     1     -47.989  59.629 -58.291  1.00  0.00     0.034 A 
HETATM   34  C   UNL     1     -48.320  60.885 -57.773  1.00  0.00     0.044 A 
HETATM   35  C   UNL     1     -48.269  62.005 -58.593  1.00  0.00     0.116 A 
HETATM   36  F   UNL     1     -48.599  63.203 -58.095  1.00  0.00    -0.206 F 
HETATM   37  C   UNL     1     -47.889  61.899 -59.925  1.00  0.00     0.044 A 
HETATM   38  C   UNL     1     -47.545  60.650 -60.445  1.00  0.00     0.034 A 
ENDBRANCH  25  32
ENDBRANCH  20  21
ENDBRANCH   1  20
TORSDOF 8
ENDMDL
