MODEL 1
REMARK VINA RESULT:      -7.8      0.000      0.000
REMARK  5 active torsions:
REMARK  status: ('A' for Active; 'I' for Inactive)
REMARK    1  A    between atoms: C_2  and  C_3 
REMARK       I    between atoms: C_3  and  N_4 
REMARK    2  A    between atoms: N_4  and  N_5 
REMARK       I    between atoms: N_5  and  C_6 
REMARK       I    between atoms: C_6  and  N_7 
REMARK    3  A    between atoms: N_7  and  C_8 
REMARK    4  A    between atoms: C_18  and  N_19 
REMARK       I    between atoms: N_19  and  C_20 
REMARK       I    between atoms: C_20  and  N_21 
REMARK    5  A    between atoms: N_21  and  C_22 
ROOT
HETATM    1  C   UNL     1     -44.374  55.910 -54.854  1.00  0.00     0.019 A 
HETATM    2  C   UNL     1     -44.713  57.111 -54.222  1.00  0.00     0.033 A 
HETATM    3  C   UNL     1     -44.326  57.317 -52.894  1.00  0.00     0.019 A 
HETATM    4  C   UNL     1     -43.590  56.334 -52.215  1.00  0.00     0.030 A 
HETATM    5  C   UNL     1     -43.226  55.148 -52.856  1.00  0.00     0.036 A 
HETATM    6  C   UNL     1     -43.637  54.938 -54.176  1.00  0.00     0.030 A 
ENDROOT
BRANCH   2   7
HETATM    7  C   UNL     1     -45.416  58.145 -55.030  1.00  0.00     0.270 C 
HETATM    8  N   UNL     1     -46.254  57.703 -56.042  1.00  0.00    -0.262 N 
HETATM    9  H   UNL     1     -46.083  56.798 -56.469  1.00  0.00     0.190 HD
HETATM   10  O   UNL     1     -45.219  59.338 -54.809  1.00  0.00    -0.266 OA
BRANCH   8  11
HETATM   11  N   UNL     1     -46.726  58.707 -56.906  1.00  0.00    -0.249 N 
HETATM   12  C   UNL     1     -46.192  58.963 -58.142  1.00  0.00     0.335 C 
HETATM   13  N   UNL     1     -45.334  57.993 -58.581  1.00  0.00    -0.337 N 
HETATM   14  O   UNL     1     -46.483  59.986 -58.744  1.00  0.00    -0.246 OA
HETATM   15  H   UNL     1     -45.569  57.092 -58.188  1.00  0.00     0.164 HD
HETATM   16  H   UNL     1     -47.385  59.379 -56.516  1.00  0.00     0.192 HD
BRANCH  13  17
HETATM   17  C   UNL     1     -44.645  57.963 -59.871  1.00  0.00     0.086 C 
HETATM   18  C   UNL     1     -43.654  59.118 -60.066  1.00  0.00     0.025 C 
HETATM   19  C   UNL     1     -42.225  58.815 -59.633  1.00  0.00     0.002 C 
HETATM   20  C   UNL     1     -41.719  57.508 -60.229  1.00  0.00     0.000 C 
HETATM   21  C   UNL     1     -42.625  56.335 -59.879  1.00  0.00     0.002 C 
HETATM   22  C   UNL     1     -44.082  56.587 -60.260  1.00  0.00     0.025 C 
ENDBRANCH  13  17
ENDBRANCH   8  11
ENDBRANCH   2   7
BRANCH   5  23
HETATM   23  N   UNL     1     -42.391  54.168 -52.287  1.00  0.00    -0.309 N 
HETATM   24  C   UNL     1     -41.066  53.913 -52.574  1.00  0.00     0.321 C 
HETATM   25  N   UNL     1     -40.701  52.675 -52.080  1.00  0.00    -0.338 N 
HETATM   26  O   UNL     1     -40.316  54.634 -53.215  1.00  0.00    -0.247 OA
HETATM   27  H   UNL     1     -41.220  52.370 -51.273  1.00  0.00     0.164 HD
HETATM   28  H   UNL     1     -42.821  53.560 -51.608  1.00  0.00     0.170 HD
BRANCH  25  29
HETATM   29  C   UNL     1     -39.361  52.099 -52.216  1.00  0.00     0.086 C 
HETATM   30  C   UNL     1     -39.151  51.054 -51.105  1.00  0.00     0.025 C 
HETATM   31  C   UNL     1     -40.014  49.807 -51.316  1.00  0.00     0.002 C 
HETATM   32  C   UNL     1     -39.790  49.186 -52.692  1.00  0.00     0.000 C 
HETATM   33  C   UNL     1     -39.957  50.207 -53.814  1.00  0.00     0.002 C 
HETATM   34  C   UNL     1     -39.090  51.442 -53.579  1.00  0.00     0.025 C 
ENDBRANCH  25  29
ENDBRANCH   5  23
TORSDOF 5
ENDMDL
MODEL 2
REMARK VINA RESULT:      -7.5      4.746      7.658
REMARK  5 active torsions:
REMARK  status: ('A' for Active; 'I' for Inactive)
REMARK    1  A    between atoms: C_2  and  C_3 
REMARK       I    between atoms: C_3  and  N_4 
REMARK    2  A    between atoms: N_4  and  N_5 
REMARK       I    between atoms: N_5  and  C_6 
REMARK       I    between atoms: C_6  and  N_7 
REMARK    3  A    between atoms: N_7  and  C_8 
REMARK    4  A    between atoms: C_18  and  N_19 
REMARK       I    between atoms: N_19  and  C_20 
REMARK       I    between atoms: C_20  and  N_21 
REMARK    5  A    between atoms: N_21  and  C_22 
ROOT
HETATM    1  C   UNL     1     -44.231  57.460 -53.414  1.00  0.00     0.019 A 
HETATM    2  C   UNL     1     -44.517  58.019 -52.164  1.00  0.00     0.033 A 
HETATM    3  C   UNL     1     -44.234  57.286 -51.007  1.00  0.00     0.019 A 
HETATM    4  C   UNL     1     -43.653  56.012 -51.106  1.00  0.00     0.030 A 
HETATM    5  C   UNL     1     -43.340  55.467 -52.354  1.00  0.00     0.036 A 
HETATM    6  C   UNL     1     -43.648  56.196 -53.507  1.00  0.00     0.030 A 
ENDROOT
BRANCH   2   7
HETATM    7  C   UNL     1     -45.049  59.409 -52.131  1.00  0.00     0.270 C 
HETATM    8  N   UNL     1     -44.918  60.114 -50.944  1.00  0.00    -0.262 N 
HETATM    9  H   UNL     1     -44.859  59.604 -50.067  1.00  0.00     0.190 HD
HETATM   10  O   UNL     1     -45.605  59.879 -53.121  1.00  0.00    -0.266 OA
BRANCH   8  11
HETATM   11  N   UNL     1     -45.617  61.333 -50.895  1.00  0.00    -0.249 N 
HETATM   12  C   UNL     1     -46.263  61.799 -49.780  1.00  0.00     0.335 C 
HETATM   13  N   UNL     1     -45.953  61.111 -48.639  1.00  0.00    -0.337 N 
HETATM   14  O   UNL     1     -47.042  62.737 -49.860  1.00  0.00    -0.246 OA
HETATM   15  H   UNL     1     -45.025  60.716 -48.691  1.00  0.00     0.164 HD
HETATM   16  H   UNL     1     -45.787  61.803 -51.783  1.00  0.00     0.192 HD
BRANCH  13  17
HETATM   17  C   UNL     1     -46.447  61.397 -47.292  1.00  0.00     0.086 C 
HETATM   18  C   UNL     1     -45.865  60.472 -46.215  1.00  0.00     0.025 C 
HETATM   19  C   UNL     1     -44.602  60.992 -45.539  1.00  0.00     0.002 C 
HETATM   20  C   UNL     1     -44.773  62.423 -45.047  1.00  0.00     0.000 C 
HETATM   21  C   UNL     1     -45.184  63.365 -46.170  1.00  0.00     0.002 C 
HETATM   22  C   UNL     1     -46.430  62.885 -46.910  1.00  0.00     0.025 C 
ENDBRANCH  13  17
ENDBRANCH   8  11
ENDBRANCH   2   7
BRANCH   5  23
HETATM   23  N   UNL     1     -42.651  54.253 -52.534  1.00  0.00    -0.309 N 
HETATM   24  C   UNL     1     -41.287  54.052 -52.579  1.00  0.00     0.321 C 
HETATM   25  N   UNL     1     -41.007  52.808 -53.113  1.00  0.00    -0.338 N 
HETATM   26  O   UNL     1     -40.429  54.858 -52.252  1.00  0.00    -0.247 OA
HETATM   27  H   UNL     1     -41.722  52.114 -52.971  1.00  0.00     0.164 HD
HETATM   28  H   UNL     1     -43.223  53.436 -52.675  1.00  0.00     0.170 HD
BRANCH  25  29
HETATM   29  C   UNL     1     -39.653  52.282 -53.302  1.00  0.00     0.086 C 
HETATM   30  C   UNL     1     -39.120  51.773 -51.950  1.00  0.00     0.025 C 
HETATM   31  C   UNL     1     -39.848  50.510 -51.482  1.00  0.00     0.002 C 
HETATM   32  C   UNL     1     -39.800  49.404 -52.533  1.00  0.00     0.000 C 
HETATM   33  C   UNL     1     -40.290  49.888 -53.895  1.00  0.00     0.002 C 
HETATM   34  C   UNL     1     -39.553  51.150 -54.338  1.00  0.00     0.025 C 
ENDBRANCH  25  29
ENDBRANCH   5  23
TORSDOF 5
ENDMDL
MODEL 3
REMARK VINA RESULT:      -7.4      4.389      7.513
REMARK  5 active torsions:
REMARK  status: ('A' for Active; 'I' for Inactive)
REMARK    1  A    between atoms: C_2  and  C_3 
REMARK       I    between atoms: C_3  and  N_4 
REMARK    2  A    between atoms: N_4  and  N_5 
REMARK       I    between atoms: N_5  and  C_6 
REMARK       I    between atoms: C_6  and  N_7 
REMARK    3  A    between atoms: N_7  and  C_8 
REMARK    4  A    between atoms: C_18  and  N_19 
REMARK       I    between atoms: N_19  and  C_20 
REMARK       I    between atoms: C_20  and  N_21 
REMARK    5  A    between atoms: N_21  and  C_22 
ROOT
HETATM    1  C   UNL     1     -44.588  57.608 -54.064  1.00  0.00     0.019 A 
HETATM    2  C   UNL     1     -43.830  56.451 -53.856  1.00  0.00     0.033 A 
HETATM    3  C   UNL     1     -43.404  56.137 -52.562  1.00  0.00     0.019 A 
HETATM    4  C   UNL     1     -43.752  56.968 -51.485  1.00  0.00     0.030 A 
HETATM    5  C   UNL     1     -44.534  58.107 -51.689  1.00  0.00     0.036 A 
HETATM    6  C   UNL     1     -44.937  58.428 -52.990  1.00  0.00     0.030 A 
ENDROOT
BRANCH   2   7
HETATM    7  C   UNL     1     -43.574  55.570 -55.028  1.00  0.00     0.270 C 
HETATM    8  N   UNL     1     -43.559  56.164 -56.281  1.00  0.00    -0.262 N 
HETATM    9  H   UNL     1     -44.085  57.020 -56.432  1.00  0.00     0.190 HD
HETATM   10  O   UNL     1     -43.418  54.361 -54.867  1.00  0.00    -0.266 OA
BRANCH   8  11
HETATM   11  N   UNL     1     -43.525  55.268 -57.364  1.00  0.00    -0.249 N 
HETATM   12  C   UNL     1     -43.575  55.656 -58.678  1.00  0.00     0.335 C 
HETATM   13  N   UNL     1     -43.394  56.999 -58.860  1.00  0.00    -0.337 N 
HETATM   14  O   UNL     1     -43.779  54.836 -59.561  1.00  0.00    -0.246 OA
HETATM   15  H   UNL     1     -42.827  57.395 -58.124  1.00  0.00     0.164 HD
HETATM   16  H   UNL     1     -43.639  54.279 -57.149  1.00  0.00     0.192 HD
BRANCH  13  17
HETATM   17  C   UNL     1     -43.353  57.703 -60.142  1.00  0.00     0.086 C 
HETATM   18  C   UNL     1     -44.600  58.553 -60.417  1.00  0.00     0.025 C 
HETATM   19  C   UNL     1     -44.501  60.003 -59.958  1.00  0.00     0.002 C 
HETATM   20  C   UNL     1     -43.223  60.667 -60.454  1.00  0.00     0.000 C 
HETATM   21  C   UNL     1     -41.980  59.901 -60.023  1.00  0.00     0.002 C 
HETATM   22  C   UNL     1     -42.029  58.429 -60.427  1.00  0.00     0.025 C 
ENDBRANCH  13  17
ENDBRANCH   8  11
ENDBRANCH   2   7
BRANCH   5  23
HETATM   23  N   UNL     1     -45.024  58.923 -50.652  1.00  0.00    -0.309 N 
HETATM   24  C   UNL     1     -44.443  60.057 -50.122  1.00  0.00     0.321 C 
HETATM   25  N   UNL     1     -45.032  60.371 -48.912  1.00  0.00    -0.338 N 
HETATM   26  O   UNL     1     -43.510  60.682 -50.604  1.00  0.00    -0.247 OA
HETATM   27  H   UNL     1     -45.988  60.072 -48.813  1.00  0.00     0.164 HD
HETATM   28  H   UNL     1     -45.887  58.629 -50.227  1.00  0.00     0.170 HD
BRANCH  25  29
HETATM   29  C   UNL     1     -44.647  61.518 -48.085  1.00  0.00     0.086 C 
HETATM   30  C   UNL     1     -45.442  62.754 -48.543  1.00  0.00     0.025 C 
HETATM   31  C   UNL     1     -46.930  62.645 -48.194  1.00  0.00     0.002 C 
HETATM   32  C   UNL     1     -47.147  62.382 -46.707  1.00  0.00     0.000 C 
HETATM   33  C   UNL     1     -46.344  61.182 -46.214  1.00  0.00     0.002 C 
HETATM   34  C   UNL     1     -44.866  61.312 -46.576  1.00  0.00     0.025 C 
ENDBRANCH  25  29
ENDBRANCH   5  23
TORSDOF 5
ENDMDL
MODEL 4
REMARK VINA RESULT:      -7.3     15.274     18.230
REMARK  5 active torsions:
REMARK  status: ('A' for Active; 'I' for Inactive)
REMARK    1  A    between atoms: C_2  and  C_3 
REMARK       I    between atoms: C_3  and  N_4 
REMARK    2  A    between atoms: N_4  and  N_5 
REMARK       I    between atoms: N_5  and  C_6 
REMARK       I    between atoms: C_6  and  N_7 
REMARK    3  A    between atoms: N_7  and  C_8 
REMARK    4  A    between atoms: C_18  and  N_19 
REMARK       I    between atoms: N_19  and  C_20 
REMARK       I    between atoms: C_20  and  N_21 
REMARK    5  A    between atoms: N_21  and  C_22 
ROOT
HETATM    1  C   UNL     1     -34.947  41.001 -51.723  1.00  0.00     0.019 A 
HETATM    2  C   UNL     1     -35.940  40.057 -51.440  1.00  0.00     0.033 A 
HETATM    3  C   UNL     1     -35.745  39.156 -50.388  1.00  0.00     0.019 A 
HETATM    4  C   UNL     1     -34.573  39.214 -49.618  1.00  0.00     0.030 A 
HETATM    5  C   UNL     1     -33.596  40.176 -49.883  1.00  0.00     0.036 A 
HETATM    6  C   UNL     1     -33.785  41.059 -50.951  1.00  0.00     0.030 A 
ENDROOT
BRANCH   2   7
HETATM    7  C   UNL     1     -37.195  40.111 -52.238  1.00  0.00     0.270 C 
HETATM    8  N   UNL     1     -37.930  41.285 -52.193  1.00  0.00    -0.262 N 
HETATM    9  H   UNL     1     -37.856  41.886 -51.376  1.00  0.00     0.190 HD
HETATM   10  O   UNL     1     -37.559  39.127 -52.880  1.00  0.00    -0.266 OA
BRANCH   8  11
HETATM   11  N   UNL     1     -39.202  41.215 -52.786  1.00  0.00    -0.249 N 
HETATM   12  C   UNL     1     -39.430  41.393 -54.127  1.00  0.00     0.335 C 
HETATM   13  N   UNL     1     -38.292  41.382 -54.883  1.00  0.00    -0.337 N 
HETATM   14  O   UNL     1     -40.567  41.553 -54.547  1.00  0.00    -0.246 OA
HETATM   15  H   UNL     1     -37.571  40.819 -54.452  1.00  0.00     0.164 HD
HETATM   16  H   UNL     1     -40.004  41.199 -52.158  1.00  0.00     0.192 HD
BRANCH  13  17
HETATM   17  C   UNL     1     -38.215  41.503 -56.339  1.00  0.00     0.086 C 
HETATM   18  C   UNL     1     -37.109  42.451 -56.819  1.00  0.00     0.025 C 
HETATM   19  C   UNL     1     -35.771  41.780 -57.105  1.00  0.00     0.002 C 
HETATM   20  C   UNL     1     -35.930  40.565 -58.009  1.00  0.00     0.000 C 
HETATM   21  C   UNL     1     -36.905  39.549 -57.431  1.00  0.00     0.002 C 
HETATM   22  C   UNL     1     -38.261  40.165 -57.093  1.00  0.00     0.025 C 
ENDBRANCH  13  17
ENDBRANCH   8  11
ENDBRANCH   2   7
BRANCH   5  23
HETATM   23  N   UNL     1     -32.451  40.377 -49.087  1.00  0.00    -0.309 N 
HETATM   24  C   UNL     1     -31.627  39.419 -48.532  1.00  0.00     0.321 C 
HETATM   25  N   UNL     1     -30.837  39.984 -47.549  1.00  0.00    -0.338 N 
HETATM   26  O   UNL     1     -31.614  38.230 -48.812  1.00  0.00    -0.247 OA
HETATM   27  H   UNL     1     -30.638  40.963 -47.674  1.00  0.00     0.164 HD
HETATM   28  H   UNL     1     -32.223  41.334 -48.874  1.00  0.00     0.170 HD
BRANCH  25  29
HETATM   29  C   UNL     1     -29.851  39.241 -46.760  1.00  0.00     0.086 C 
HETATM   30  C   UNL     1     -29.012  40.238 -45.941  1.00  0.00     0.025 C 
HETATM   31  C   UNL     1     -29.826  40.895 -44.823  1.00  0.00     0.002 C 
HETATM   32  C   UNL     1     -30.479  39.860 -43.911  1.00  0.00     0.000 C 
HETATM   33  C   UNL     1     -31.291  38.835 -44.698  1.00  0.00     0.002 C 
HETATM   34  C   UNL     1     -30.459  38.197 -45.808  1.00  0.00     0.025 C 
ENDBRANCH  25  29
ENDBRANCH   5  23
TORSDOF 5
ENDMDL
MODEL 5
REMARK VINA RESULT:      -7.2      3.158      4.779
REMARK  5 active torsions:
REMARK  status: ('A' for Active; 'I' for Inactive)
REMARK    1  A    between atoms: C_2  and  C_3 
REMARK       I    between atoms: C_3  and  N_4 
REMARK    2  A    between atoms: N_4  and  N_5 
REMARK       I    between atoms: N_5  and  C_6 
REMARK       I    between atoms: C_6  and  N_7 
REMARK    3  A    between atoms: N_7  and  C_8 
REMARK    4  A    between atoms: C_18  and  N_19 
REMARK       I    between atoms: N_19  and  C_20 
REMARK       I    between atoms: C_20  and  N_21 
REMARK    5  A    between atoms: N_21  and  C_22 
ROOT
HETATM    1  C   UNL     1     -43.092  58.164 -57.240  1.00  0.00     0.019 A 
HETATM    2  C   UNL     1     -43.615  57.435 -58.313  1.00  0.00     0.033 A 
HETATM    3  C   UNL     1     -43.510  56.041 -58.307  1.00  0.00     0.019 A 
HETATM    4  C   UNL     1     -42.901  55.385 -57.225  1.00  0.00     0.030 A 
HETATM    5  C   UNL     1     -42.406  56.113 -56.140  1.00  0.00     0.036 A 
HETATM    6  C   UNL     1     -42.493  57.509 -56.164  1.00  0.00     0.030 A 
ENDROOT
BRANCH   2   7
HETATM    7  C   UNL     1     -44.326  58.188 -59.382  1.00  0.00     0.270 C 
HETATM    8  N   UNL     1     -43.568  58.663 -60.441  1.00  0.00    -0.262 N 
HETATM    9  H   UNL     1     -42.580  58.853 -60.298  1.00  0.00     0.190 HD
HETATM   10  O   UNL     1     -45.535  58.394 -59.290  1.00  0.00    -0.266 OA
BRANCH   8  11
HETATM   11  N   UNL     1     -44.239  59.541 -61.309  1.00  0.00    -0.249 N 
HETATM   12  C   UNL     1     -43.987  60.887 -61.380  1.00  0.00     0.335 C 
HETATM   13  N   UNL     1     -42.846  61.266 -60.729  1.00  0.00    -0.337 N 
HETATM   14  O   UNL     1     -44.753  61.631 -61.974  1.00  0.00    -0.246 OA
HETATM   15  H   UNL     1     -42.171  60.514 -60.706  1.00  0.00     0.164 HD
HETATM   16  H   UNL     1     -45.066  59.179 -61.782  1.00  0.00     0.192 HD
BRANCH  13  17
HETATM   17  C   UNL     1     -42.293  62.618 -60.663  1.00  0.00     0.086 C 
HETATM   18  C   UNL     1     -41.608  62.938 -59.328  1.00  0.00     0.025 C 
HETATM   19  C   UNL     1     -40.113  62.647 -59.290  1.00  0.00     0.002 C 
HETATM   20  C   UNL     1     -39.387  63.263 -60.479  1.00  0.00     0.000 C 
HETATM   21  C   UNL     1     -39.971  62.798 -61.806  1.00  0.00     0.002 C 
HETATM   22  C   UNL     1     -41.477  63.033 -61.898  1.00  0.00     0.025 C 
ENDBRANCH  13  17
ENDBRANCH   8  11
ENDBRANCH   2   7
BRANCH   5  23
HETATM   23  N   UNL     1     -41.891  55.528 -54.968  1.00  0.00    -0.309 N 
HETATM   24  C   UNL     1     -42.591  54.919 -53.946  1.00  0.00     0.321 C 
HETATM   25  N   UNL     1     -41.787  54.788 -52.830  1.00  0.00    -0.338 N 
HETATM   26  O   UNL     1     -43.765  54.582 -53.980  1.00  0.00    -0.247 OA
HETATM   27  H   UNL     1     -40.801  54.716 -53.022  1.00  0.00     0.164 HD
HETATM   28  H   UNL     1     -40.893  55.586 -54.846  1.00  0.00     0.170 HD
BRANCH  25  29
HETATM   29  C   UNL     1     -42.225  54.184 -51.570  1.00  0.00     0.086 C 
HETATM   30  C   UNL     1     -41.244  53.060 -51.187  1.00  0.00     0.025 C 
HETATM   31  C   UNL     1     -39.874  53.606 -50.774  1.00  0.00     0.002 C 
HETATM   32  C   UNL     1     -39.986  54.632 -49.651  1.00  0.00     0.000 C 
HETATM   33  C   UNL     1     -40.978  55.742 -49.986  1.00  0.00     0.002 C 
HETATM   34  C   UNL     1     -42.334  55.174 -50.398  1.00  0.00     0.025 C 
ENDBRANCH  25  29
ENDBRANCH   5  23
TORSDOF 5
ENDMDL
MODEL 6
REMARK VINA RESULT:      -7.1      6.079      9.072
REMARK  5 active torsions:
REMARK  status: ('A' for Active; 'I' for Inactive)
REMARK    1  A    between atoms: C_2  and  C_3 
REMARK       I    between atoms: C_3  and  N_4 
REMARK    2  A    between atoms: N_4  and  N_5 
REMARK       I    between atoms: N_5  and  C_6 
REMARK       I    between atoms: C_6  and  N_7 
REMARK    3  A    between atoms: N_7  and  C_8 
REMARK    4  A    between atoms: C_18  and  N_19 
REMARK       I    between atoms: N_19  and  C_20 
REMARK       I    between atoms: C_20  and  N_21 
REMARK    5  A    between atoms: N_21  and  C_22 
ROOT
HETATM    1  C   UNL     1     -45.550  60.645 -51.396  1.00  0.00     0.019 A 
HETATM    2  C   UNL     1     -46.184  61.362 -52.416  1.00  0.00     0.033 A 
HETATM    3  C   UNL     1     -45.895  61.054 -53.749  1.00  0.00     0.019 A 
HETATM    4  C   UNL     1     -44.991  60.025 -54.054  1.00  0.00     0.030 A 
HETATM    5  C   UNL     1     -44.381  59.289 -53.035  1.00  0.00     0.036 A 
HETATM    6  C   UNL     1     -44.656  59.618 -51.703  1.00  0.00     0.030 A 
ENDROOT
BRANCH   2   7
HETATM    7  C   UNL     1     -47.198  62.379 -52.021  1.00  0.00     0.270 C 
HETATM    8  N   UNL     1     -46.839  63.289 -51.039  1.00  0.00    -0.262 N 
HETATM    9  H   UNL     1     -46.130  63.032 -50.358  1.00  0.00     0.190 HD
HETATM   10  O   UNL     1     -48.312  62.370 -52.540  1.00  0.00    -0.266 OA
BRANCH   8  11
HETATM   11  N   UNL     1     -47.890  64.086 -50.554  1.00  0.00    -0.249 N 
HETATM   12  C   UNL     1     -48.248  64.157 -49.232  1.00  0.00     0.335 C 
HETATM   13  N   UNL     1     -47.335  63.594 -48.386  1.00  0.00    -0.337 N 
HETATM   14  O   UNL     1     -49.304  64.676 -48.902  1.00  0.00    -0.246 OA
HETATM   15  H   UNL     1     -46.402  63.637 -48.773  1.00  0.00     0.164 HD
HETATM   16  H   UNL     1     -48.515  64.497 -51.246  1.00  0.00     0.192 HD
BRANCH  13  17
HETATM   17  C   UNL     1     -47.414  63.552 -46.926  1.00  0.00     0.086 C 
HETATM   18  C   UNL     1     -47.039  62.189 -46.329  1.00  0.00     0.025 C 
HETATM   19  C   UNL     1     -45.570  62.038 -45.953  1.00  0.00     0.002 C 
HETATM   20  C   UNL     1     -45.082  63.201 -45.101  1.00  0.00     0.000 C 
HETATM   21  C   UNL     1     -45.305  64.542 -45.787  1.00  0.00     0.002 C 
HETATM   22  C   UNL     1     -46.755  64.746 -46.217  1.00  0.00     0.025 C 
ENDBRANCH  13  17
ENDBRANCH   8  11
ENDBRANCH   2   7
BRANCH   5  23
HETATM   23  N   UNL     1     -43.558  58.168 -53.256  1.00  0.00    -0.309 N 
HETATM   24  C   UNL     1     -43.933  56.915 -53.695  1.00  0.00     0.321 C 
HETATM   25  N   UNL     1     -42.923  56.004 -53.454  1.00  0.00    -0.338 N 
HETATM   26  O   UNL     1     -45.014  56.617 -54.182  1.00  0.00    -0.247 OA
HETATM   27  H   UNL     1     -41.994  56.392 -53.438  1.00  0.00     0.164 HD
HETATM   28  H   UNL     1     -42.582  58.287 -53.040  1.00  0.00     0.170 HD
BRANCH  25  29
HETATM   29  C   UNL     1     -43.000  54.582 -53.798  1.00  0.00     0.086 C 
HETATM   30  C   UNL     1     -42.705  54.414 -55.300  1.00  0.00     0.025 C 
HETATM   31  C   UNL     1     -41.239  54.703 -55.634  1.00  0.00     0.002 C 
HETATM   32  C   UNL     1     -40.286  53.855 -54.797  1.00  0.00     0.000 C 
HETATM   33  C   UNL     1     -40.577  53.973 -53.304  1.00  0.00     0.002 C 
HETATM   34  C   UNL     1     -42.044  53.684 -52.996  1.00  0.00     0.025 C 
ENDBRANCH  25  29
ENDBRANCH   5  23
TORSDOF 5
ENDMDL
MODEL 7
REMARK VINA RESULT:      -7.0      5.212      7.255
REMARK  5 active torsions:
REMARK  status: ('A' for Active; 'I' for Inactive)
REMARK    1  A    between atoms: C_2  and  C_3 
REMARK       I    between atoms: C_3  and  N_4 
REMARK    2  A    between atoms: N_4  and  N_5 
REMARK       I    between atoms: N_5  and  C_6 
REMARK       I    between atoms: C_6  and  N_7 
REMARK    3  A    between atoms: N_7  and  C_8 
REMARK    4  A    between atoms: C_18  and  N_19 
REMARK       I    between atoms: N_19  and  C_20 
REMARK       I    between atoms: C_20  and  N_21 
REMARK    5  A    between atoms: N_21  and  C_22 
ROOT
HETATM    1  C   UNL     1     -45.291  60.773 -51.272  1.00  0.00     0.019 A 
HETATM    2  C   UNL     1     -45.465  61.166 -52.603  1.00  0.00     0.033 A 
HETATM    3  C   UNL     1     -44.688  60.568 -53.599  1.00  0.00     0.019 A 
HETATM    4  C   UNL     1     -43.758  59.571 -53.263  1.00  0.00     0.030 A 
HETATM    5  C   UNL     1     -43.607  59.157 -51.938  1.00  0.00     0.036 A 
HETATM    6  C   UNL     1     -44.370  59.777 -50.943  1.00  0.00     0.030 A 
ENDROOT
BRANCH   2   7
HETATM    7  C   UNL     1     -46.531  62.163 -52.897  1.00  0.00     0.270 C 
HETATM    8  N   UNL     1     -47.474  61.825 -53.855  1.00  0.00    -0.262 N 
HETATM    9  H   UNL     1     -47.227  61.161 -54.583  1.00  0.00     0.190 HD
HETATM   10  O   UNL     1     -46.533  63.250 -52.321  1.00  0.00    -0.266 OA
BRANCH   8  11
HETATM   11  N   UNL     1     -48.326  62.871 -54.247  1.00  0.00    -0.249 N 
HETATM   12  C   UNL     1     -49.695  62.797 -54.210  1.00  0.00     0.335 C 
HETATM   13  N   UNL     1     -50.166  61.720 -53.512  1.00  0.00    -0.337 N 
HETATM   14  O   UNL     1     -50.378  63.637 -54.777  1.00  0.00    -0.246 OA
HETATM   15  H   UNL     1     -49.516  61.437 -52.792  1.00  0.00     0.164 HD
HETATM   16  H   UNL     1     -47.899  63.655 -54.739  1.00  0.00     0.192 HD
BRANCH  13  17
HETATM   17  C   UNL     1     -51.571  61.396 -53.261  1.00  0.00     0.086 C 
HETATM   18  C   UNL     1     -52.287  62.416 -52.366  1.00  0.00     0.025 C 
HETATM   19  C   UNL     1     -52.991  63.540 -53.115  1.00  0.00     0.002 C 
HETATM   20  C   UNL     1     -53.889  63.006 -54.223  1.00  0.00     0.000 C 
HETATM   21  C   UNL     1     -53.122  62.131 -55.205  1.00  0.00     0.002 C 
HETATM   22  C   UNL     1     -52.366  60.999 -54.514  1.00  0.00     0.025 C 
ENDBRANCH  13  17
ENDBRANCH   8  11
ENDBRANCH   2   7
BRANCH   5  23
HETATM   23  N   UNL     1     -42.786  58.086 -51.535  1.00  0.00    -0.309 N 
HETATM   24  C   UNL     1     -43.178  56.850 -51.063  1.00  0.00     0.321 C 
HETATM   25  N   UNL     1     -42.113  56.216 -50.452  1.00  0.00    -0.338 N 
HETATM   26  O   UNL     1     -44.305  56.383 -51.118  1.00  0.00    -0.247 OA
HETATM   27  H   UNL     1     -41.205  56.476 -50.800  1.00  0.00     0.164 HD
HETATM   28  H   UNL     1     -41.794  58.253 -51.568  1.00  0.00     0.170 HD
BRANCH  25  29
HETATM   29  C   UNL     1     -42.191  54.886 -49.842  1.00  0.00     0.086 C 
HETATM   30  C   UNL     1     -42.233  53.825 -50.958  1.00  0.00     0.025 C 
HETATM   31  C   UNL     1     -40.898  53.715 -51.700  1.00  0.00     0.002 C 
HETATM   32  C   UNL     1     -39.737  53.450 -50.745  1.00  0.00     0.000 C 
HETATM   33  C   UNL     1     -39.689  54.466 -49.607  1.00  0.00     0.002 C 
HETATM   34  C   UNL     1     -41.032  54.560 -48.885  1.00  0.00     0.025 C 
ENDBRANCH  25  29
ENDBRANCH   5  23
TORSDOF 5
ENDMDL
MODEL 8
REMARK VINA RESULT:      -7.0     15.735     20.551
REMARK  5 active torsions:
REMARK  status: ('A' for Active; 'I' for Inactive)
REMARK    1  A    between atoms: C_2  and  C_3 
REMARK       I    between atoms: C_3  and  N_4 
REMARK    2  A    between atoms: N_4  and  N_5 
REMARK       I    between atoms: N_5  and  C_6 
REMARK       I    between atoms: C_6  and  N_7 
REMARK    3  A    between atoms: N_7  and  C_8 
REMARK    4  A    between atoms: C_18  and  N_19 
REMARK       I    between atoms: N_19  and  C_20 
REMARK       I    between atoms: C_20  and  N_21 
REMARK    5  A    between atoms: N_21  and  C_22 
ROOT
HETATM    1  C   UNL     1     -34.410  38.609 -49.345  1.00  0.00     0.019 A 
HETATM    2  C   UNL     1     -35.514  38.657 -48.487  1.00  0.00     0.033 A 
HETATM    3  C   UNL     1     -36.713  39.210 -48.948  1.00  0.00     0.019 A 
HETATM    4  C   UNL     1     -36.807  39.692 -50.263  1.00  0.00     0.030 A 
HETATM    5  C   UNL     1     -35.714  39.615 -51.128  1.00  0.00     0.036 A 
HETATM    6  C   UNL     1     -34.510  39.084 -50.654  1.00  0.00     0.030 A 
ENDROOT
BRANCH   2   7
HETATM    7  C   UNL     1     -35.370  38.047 -47.137  1.00  0.00     0.270 C 
HETATM    8  N   UNL     1     -36.525  37.870 -46.391  1.00  0.00    -0.262 N 
HETATM    9  H   UNL     1     -37.323  38.476 -46.559  1.00  0.00     0.190 HD
HETATM   10  O   UNL     1     -34.256  37.749 -46.712  1.00  0.00    -0.266 OA
BRANCH   8  11
HETATM   11  N   UNL     1     -36.317  37.490 -45.054  1.00  0.00    -0.249 N 
HETATM   12  C   UNL     1     -37.311  37.440 -44.110  1.00  0.00     0.335 C 
HETATM   13  N   UNL     1     -38.570  37.533 -44.635  1.00  0.00    -0.337 N 
HETATM   14  O   UNL     1     -37.037  37.333 -42.925  1.00  0.00    -0.246 OA
HETATM   15  H   UNL     1     -38.600  37.174 -45.580  1.00  0.00     0.164 HD
HETATM   16  H   UNL     1     -35.350  37.414 -44.740  1.00  0.00     0.192 HD
BRANCH  13  17
HETATM   17  C   UNL     1     -39.827  37.467 -43.891  1.00  0.00     0.086 C 
HETATM   18  C   UNL     1     -40.250  38.810 -43.279  1.00  0.00     0.025 C 
HETATM   19  C   UNL     1     -41.162  39.655 -44.159  1.00  0.00     0.002 C 
HETATM   20  C   UNL     1     -42.347  38.854 -44.680  1.00  0.00     0.000 C 
HETATM   21  C   UNL     1     -41.905  37.610 -45.438  1.00  0.00     0.002 C 
HETATM   22  C   UNL     1     -40.962  36.731 -44.621  1.00  0.00     0.025 C 
ENDBRANCH  13  17
ENDBRANCH   8  11
ENDBRANCH   2   7
BRANCH   5  23
HETATM   23  N   UNL     1     -35.760  39.966 -52.491  1.00  0.00    -0.309 N 
HETATM   24  C   UNL     1     -35.862  41.229 -53.037  1.00  0.00     0.321 C 
HETATM   25  N   UNL     1     -36.227  41.144 -54.367  1.00  0.00    -0.338 N 
HETATM   26  O   UNL     1     -35.708  42.286 -52.443  1.00  0.00    -0.247 OA
HETATM   27  H   UNL     1     -35.943  40.299 -54.834  1.00  0.00     0.164 HD
HETATM   28  H   UNL     1     -35.746  39.202 -53.146  1.00  0.00     0.170 HD
BRANCH  25  29
HETATM   29  C   UNL     1     -36.424  42.304 -55.241  1.00  0.00     0.086 C 
HETATM   30  C   UNL     1     -35.116  42.583 -56.003  1.00  0.00     0.025 C 
HETATM   31  C   UNL     1     -34.811  41.500 -57.042  1.00  0.00     0.002 C 
HETATM   32  C   UNL     1     -35.972  41.301 -58.013  1.00  0.00     0.000 C 
HETATM   33  C   UNL     1     -37.291  41.056 -57.285  1.00  0.00     0.002 C 
HETATM   34  C   UNL     1     -37.570  42.146 -56.254  1.00  0.00     0.025 C 
ENDBRANCH  25  29
ENDBRANCH   5  23
TORSDOF 5
ENDMDL
MODEL 9
REMARK VINA RESULT:      -7.0     15.865     18.634
REMARK  5 active torsions:
REMARK  status: ('A' for Active; 'I' for Inactive)
REMARK    1  A    between atoms: C_2  and  C_3 
REMARK       I    between atoms: C_3  and  N_4 
REMARK    2  A    between atoms: N_4  and  N_5 
REMARK       I    between atoms: N_5  and  C_6 
REMARK       I    between atoms: C_6  and  N_7 
REMARK    3  A    between atoms: N_7  and  C_8 
REMARK    4  A    between atoms: C_18  and  N_19 
REMARK       I    between atoms: N_19  and  C_20 
REMARK       I    between atoms: C_20  and  N_21 
REMARK    5  A    between atoms: N_21  and  C_22 
ROOT
HETATM    1  C   UNL     1     -33.832  41.247 -51.599  1.00  0.00     0.019 A 
HETATM    2  C   UNL     1     -35.149  40.780 -51.537  1.00  0.00     0.033 A 
HETATM    3  C   UNL     1     -35.478  39.786 -50.609  1.00  0.00     0.019 A 
HETATM    4  C   UNL     1     -34.498  39.280 -49.741  1.00  0.00     0.030 A 
HETATM    5  C   UNL     1     -33.190  39.769 -49.784  1.00  0.00     0.036 A 
HETATM    6  C   UNL     1     -32.861  40.745 -50.730  1.00  0.00     0.030 A 
ENDROOT
BRANCH   2   7
HETATM    7  C   UNL     1     -36.155  41.425 -52.424  1.00  0.00     0.270 C 
HETATM    8  N   UNL     1     -37.193  40.633 -52.892  1.00  0.00    -0.262 N 
HETATM    9  H   UNL     1     -37.054  39.630 -52.976  1.00  0.00     0.190 HD
HETATM   10  O   UNL     1     -36.031  42.606 -52.740  1.00  0.00    -0.266 OA
BRANCH   8  11
HETATM   11  N   UNL     1     -37.991  41.224 -53.886  1.00  0.00    -0.249 N 
HETATM   12  C   UNL     1     -37.756  41.098 -55.231  1.00  0.00     0.335 C 
HETATM   13  N   UNL     1     -36.836  40.134 -55.538  1.00  0.00    -0.337 N 
HETATM   14  O   UNL     1     -38.334  41.816 -56.033  1.00  0.00    -0.246 OA
HETATM   15  H   UNL     1     -36.827  39.402 -54.841  1.00  0.00     0.164 HD
HETATM   16  H   UNL     1     -38.675  41.915 -53.579  1.00  0.00     0.192 HD
BRANCH  13  17
HETATM   17  C   UNL     1     -36.409  39.738 -56.880  1.00  0.00     0.086 C 
HETATM   18  C   UNL     1     -37.488  38.986 -57.671  1.00  0.00     0.025 C 
HETATM   19  C   UNL     1     -38.375  39.869 -58.540  1.00  0.00     0.002 C 
HETATM   20  C   UNL     1     -37.555  40.806 -59.417  1.00  0.00     0.000 C 
HETATM   21  C   UNL     1     -36.609  41.671 -58.597  1.00  0.00     0.002 C 
HETATM   22  C   UNL     1     -35.709  40.848 -57.679  1.00  0.00     0.025 C 
ENDBRANCH  13  17
ENDBRANCH   8  11
ENDBRANCH   2   7
BRANCH   5  23
HETATM   23  N   UNL     1     -32.181  39.401 -48.873  1.00  0.00    -0.309 N 
HETATM   24  C   UNL     1     -32.318  38.685 -47.702  1.00  0.00     0.321 C 
HETATM   25  N   UNL     1     -31.186  38.827 -46.923  1.00  0.00    -0.338 N 
HETATM   26  O   UNL     1     -33.304  38.051 -47.356  1.00  0.00    -0.247 OA
HETATM   27  H   UNL     1     -30.337  39.005 -47.434  1.00  0.00     0.164 HD
HETATM   28  H   UNL     1     -31.252  39.724 -49.088  1.00  0.00     0.170 HD
BRANCH  25  29
HETATM   29  C   UNL     1     -31.006  38.196 -45.613  1.00  0.00     0.086 C 
HETATM   30  C   UNL     1     -29.580  37.623 -45.525  1.00  0.00     0.025 C 
HETATM   31  C   UNL     1     -28.519  38.725 -45.452  1.00  0.00     0.002 C 
HETATM   32  C   UNL     1     -28.784  39.694 -44.304  1.00  0.00     0.000 C 
HETATM   33  C   UNL     1     -30.203  40.254 -44.343  1.00  0.00     0.002 C 
HETATM   34  C   UNL     1     -31.242  39.137 -44.419  1.00  0.00     0.025 C 
ENDBRANCH  25  29
ENDBRANCH   5  23
TORSDOF 5
ENDMDL
MODEL 10
REMARK VINA RESULT:      -7.0     16.556     18.686
REMARK  5 active torsions:
REMARK  status: ('A' for Active; 'I' for Inactive)
REMARK    1  A    between atoms: C_2  and  C_3 
REMARK       I    between atoms: C_3  and  N_4 
REMARK    2  A    between atoms: N_4  and  N_5 
REMARK       I    between atoms: N_5  and  C_6 
REMARK       I    between atoms: C_6  and  N_7 
REMARK    3  A    between atoms: N_7  and  C_8 
REMARK    4  A    between atoms: C_18  and  N_19 
REMARK       I    between atoms: N_19  and  C_20 
REMARK       I    between atoms: C_20  and  N_21 
REMARK    5  A    between atoms: N_21  and  C_22 
ROOT
HETATM    1  C   UNL     1     -35.405  40.426 -50.663  1.00  0.00     0.019 A 
HETATM    2  C   UNL     1     -34.110  39.896 -50.669  1.00  0.00     0.033 A 
HETATM    3  C   UNL     1     -33.764  38.928 -49.720  1.00  0.00     0.019 A 
HETATM    4  C   UNL     1     -34.714  38.485 -48.787  1.00  0.00     0.030 A 
HETATM    5  C   UNL     1     -36.016  38.993 -48.801  1.00  0.00     0.036 A 
HETATM    6  C   UNL     1     -36.348  39.979 -49.737  1.00  0.00     0.030 A 
ENDROOT
BRANCH   2   7
HETATM    7  C   UNL     1     -33.183  40.345 -51.743  1.00  0.00     0.270 C 
HETATM    8  N   UNL     1     -33.722  40.567 -53.000  1.00  0.00    -0.262 N 
HETATM    9  H   UNL     1     -34.565  40.070 -53.274  1.00  0.00     0.190 HD
HETATM   10  O   UNL     1     -31.984  40.477 -51.504  1.00  0.00    -0.266 OA
BRANCH   8  11
HETATM   11  N   UNL     1     -32.781  40.782 -54.022  1.00  0.00    -0.249 N 
HETATM   12  C   UNL     1     -33.077  40.718 -55.359  1.00  0.00     0.335 C 
HETATM   13  N   UNL     1     -34.418  40.688 -55.623  1.00  0.00    -0.337 N 
HETATM   14  O   UNL     1     -32.184  40.681 -56.192  1.00  0.00    -0.246 OA
HETATM   15  H   UNL     1     -34.944  41.158 -54.899  1.00  0.00     0.164 HD
HETATM   16  H   UNL     1     -31.801  40.821 -53.747  1.00  0.00     0.192 HD
BRANCH  13  17
HETATM   17  C   UNL     1     -35.043  40.663 -56.945  1.00  0.00     0.086 C 
HETATM   18  C   UNL     1     -35.871  39.398 -57.209  1.00  0.00     0.025 C 
HETATM   19  C   UNL     1     -37.346  39.512 -56.845  1.00  0.00     0.002 C 
HETATM   20  C   UNL     1     -37.982  40.760 -57.444  1.00  0.00     0.000 C 
HETATM   21  C   UNL     1     -37.247  42.028 -57.029  1.00  0.00     0.002 C 
HETATM   22  C   UNL     1     -35.753  41.967 -57.340  1.00  0.00     0.025 C 
ENDBRANCH  13  17
ENDBRANCH   8  11
ENDBRANCH   2   7
BRANCH   5  23
HETATM   23  N   UNL     1     -37.056  38.519 -47.980  1.00  0.00    -0.309 N 
HETATM   24  C   UNL     1     -38.366  38.266 -48.334  1.00  0.00     0.321 C 
HETATM   25  N   UNL     1     -39.151  38.153 -47.203  1.00  0.00    -0.338 N 
HETATM   26  O   UNL     1     -38.803  38.198 -49.473  1.00  0.00    -0.247 OA
HETATM   27  H   UNL     1     -38.668  37.832 -46.380  1.00  0.00     0.164 HD
HETATM   28  H   UNL     1     -36.825  38.374 -47.011  1.00  0.00     0.170 HD
BRANCH  25  29
HETATM   29  C   UNL     1     -40.592  37.887 -47.226  1.00  0.00     0.086 C 
HETATM   30  C   UNL     1     -40.978  37.109 -45.955  1.00  0.00     0.025 C 
HETATM   31  C   UNL     1     -40.874  37.976 -44.696  1.00  0.00     0.002 C 
HETATM   32  C   UNL     1     -41.695  39.256 -44.817  1.00  0.00     0.000 C 
HETATM   33  C   UNL     1     -41.360  40.033 -46.088  1.00  0.00     0.002 C 
HETATM   34  C   UNL     1     -41.467  39.148 -47.327  1.00  0.00     0.025 C 
ENDBRANCH  25  29
ENDBRANCH   5  23
TORSDOF 5
ENDMDL
