MODEL 1
REMARK VINA RESULT:      -9.7      0.000      0.000
REMARK  4 active torsions:
REMARK  status: ('A' for Active; 'I' for Inactive)
REMARK       I    between atoms: N_10  and  C_11 
REMARK    1  A    between atoms: C_11  and  C_12 
REMARK    2  A    between atoms: C_14  and  O_15 
REMARK    3  A    between atoms: O_15  and  C_16 
REMARK    4  A    between atoms: C_16  and  C_17 
ROOT
HETATM    1  C   UNL     1     -42.798  57.215 -53.021  1.00  0.00     0.034 A 
HETATM    2  C   UNL     1     -42.102  58.067 -53.888  1.00  0.00     0.053 A 
HETATM    3  C   UNL     1     -42.618  58.329 -55.157  1.00  0.00     0.070 A 
HETATM    4  C   UNL     1     -43.818  57.723 -55.548  1.00  0.00     0.037 A 
HETATM    5  C   UNL     1     -44.494  56.850 -54.695  1.00  0.00     0.004 A 
HETATM    6  C   UNL     1     -43.978  56.585 -53.429  1.00  0.00     0.017 A 
ENDROOT
BRANCH   1   7
HETATM    7  C   UNL     1     -42.215  56.929 -51.691  1.00  0.00     0.254 C 
HETATM    8  N   UNL     1     -41.324  55.869 -51.554  1.00  0.00    -0.343 N 
HETATM    9  C   UNL     1     -41.008  54.907 -52.633  1.00  0.00     0.167 C 
HETATM   10  C   UNL     1     -40.566  55.754 -50.292  1.00  0.00     0.132 C 
HETATM   11  C   UNL     1     -40.616  53.581 -52.064  1.00  0.00    -0.005 A 
HETATM   12  C   UNL     1     -40.302  52.363 -52.736  1.00  0.00     0.000 A 
HETATM   13  C   UNL     1     -40.469  53.343 -50.714  1.00  0.00     0.020 A 
HETATM   14  C   UNL     1     -40.259  51.969 -54.088  1.00  0.00     0.014 A 
HETATM   15  C   UNL     1     -39.977  51.423 -51.753  1.00  0.00     0.043 A 
HETATM   16  C   UNL     1     -39.890  50.658 -54.410  1.00  0.00     0.001 A 
HETATM   17  C   UNL     1     -39.567  49.743 -53.410  1.00  0.00     0.002 A 
HETATM   18  C   UNL     1     -39.606  50.108 -52.061  1.00  0.00     0.030 A 
HETATM   19  N   UNL     1     -40.098  52.045 -50.528  1.00  0.00    -0.358 N 
HETATM   20  H   UNL     1     -39.927  51.597 -49.638  1.00  0.00     0.166 HD
HETATM   21  C   UNL     1     -40.690  54.357 -49.651  1.00  0.00     0.077 C 
HETATM   22  O   UNL     1     -42.557  57.659 -50.764  1.00  0.00    -0.267 OA
ENDBRANCH   1   7
BRANCH   3  23
HETATM   23  O   UNL     1     -42.062  59.143 -56.104  1.00  0.00    -0.345 OA
BRANCH  23  24
HETATM   24  C   UNL     1     -42.659  59.141 -57.407  1.00  0.00     0.236 C 
BRANCH  24  25
HETATM   25  C   UNL     1     -41.980  60.122 -58.308  1.00  0.00     0.077 A 
HETATM   26  N   UNL     1     -41.019  60.984 -57.814  1.00  0.00    -0.232 NA
HETATM   27  C   UNL     1     -40.643  61.720 -58.839  1.00  0.00     0.134 A 
HETATM   28  N   UNL     1     -41.320  61.360 -59.999  1.00  0.00    -0.316 N 
HETATM   29  C   UNL     1     -39.702  62.785 -58.942  1.00  0.00     0.051 A 
HETATM   30  C   UNL     1     -42.161  60.333 -59.663  1.00  0.00     0.127 A 
HETATM   31  C   UNL     1     -41.126  61.983 -61.229  1.00  0.00     0.098 A 
HETATM   32  C   UNL     1     -40.240  62.989 -61.320  1.00  0.00     0.018 A 
HETATM   33  C   UNL     1     -39.509  63.394 -60.128  1.00  0.00     0.005 A 
ENDBRANCH  24  25
ENDBRANCH  23  24
ENDBRANCH   3  23
TORSDOF 4
ENDMDL
MODEL 2
REMARK VINA RESULT:      -9.4      2.568      3.828
REMARK  4 active torsions:
REMARK  status: ('A' for Active; 'I' for Inactive)
REMARK       I    between atoms: N_10  and  C_11 
REMARK    1  A    between atoms: C_11  and  C_12 
REMARK    2  A    between atoms: C_14  and  O_15 
REMARK    3  A    between atoms: O_15  and  C_16 
REMARK    4  A    between atoms: C_16  and  C_17 
ROOT
HETATM    1  C   UNL     1     -43.496  58.119 -53.212  1.00  0.00     0.034 A 
HETATM    2  C   UNL     1     -42.915  58.893 -54.225  1.00  0.00     0.053 A 
HETATM    3  C   UNL     1     -43.560  59.010 -55.456  1.00  0.00     0.070 A 
HETATM    4  C   UNL     1     -44.771  58.340 -55.664  1.00  0.00     0.037 A 
HETATM    5  C   UNL     1     -45.332  57.544 -54.664  1.00  0.00     0.004 A 
HETATM    6  C   UNL     1     -44.689  57.423 -53.436  1.00  0.00     0.017 A 
ENDROOT
BRANCH   1   7
HETATM    7  C   UNL     1     -42.779  57.985 -51.925  1.00  0.00     0.254 C 
HETATM    8  N   UNL     1     -41.797  57.009 -51.793  1.00  0.00    -0.343 N 
HETATM    9  C   UNL     1     -41.499  55.987 -52.822  1.00  0.00     0.167 C 
HETATM   10  C   UNL     1     -40.926  57.052 -50.601  1.00  0.00     0.132 C 
HETATM   11  C   UNL     1     -40.954  54.745 -52.195  1.00  0.00    -0.005 A 
HETATM   12  C   UNL     1     -40.603  53.503 -52.801  1.00  0.00     0.000 A 
HETATM   13  C   UNL     1     -40.672  54.628 -50.850  1.00  0.00     0.020 A 
HETATM   14  C   UNL     1     -40.645  53.005 -54.119  1.00  0.00     0.014 A 
HETATM   15  C   UNL     1     -40.119  52.672 -51.786  1.00  0.00     0.043 A 
HETATM   16  C   UNL     1     -40.202  51.702 -54.376  1.00  0.00     0.001 A 
HETATM   17  C   UNL     1     -39.721  50.898 -53.345  1.00  0.00     0.002 A 
HETATM   18  C   UNL     1     -39.671  51.367 -52.029  1.00  0.00     0.030 A 
HETATM   19  N   UNL     1     -40.183  53.380 -50.604  1.00  0.00    -0.358 N 
HETATM   20  H   UNL     1     -39.900  53.020 -49.703  1.00  0.00     0.166 HD
HETATM   21  C   UNL     1     -40.881  55.706 -49.850  1.00  0.00     0.077 C 
HETATM   22  O   UNL     1     -43.097  58.761 -51.026  1.00  0.00    -0.267 OA
ENDBRANCH   1   7
BRANCH   3  23
HETATM   23  O   UNL     1     -43.125  59.734 -56.531  1.00  0.00    -0.345 OA
BRANCH  23  24
HETATM   24  C   UNL     1     -42.269  59.071 -57.469  1.00  0.00     0.236 C 
BRANCH  24  25
HETATM   25  C   UNL     1     -43.022  58.036 -58.243  1.00  0.00     0.077 A 
HETATM   26  N   UNL     1     -44.118  58.388 -59.008  1.00  0.00    -0.232 NA
HETATM   27  C   UNL     1     -44.561  57.264 -59.530  1.00  0.00     0.134 A 
HETATM   28  N   UNL     1     -43.781  56.180 -59.141  1.00  0.00    -0.316 N 
HETATM   29  C   UNL     1     -45.668  56.991 -60.384  1.00  0.00     0.051 A 
HETATM   30  C   UNL     1     -42.792  56.675 -58.332  1.00  0.00     0.127 A 
HETATM   31  C   UNL     1     -44.030  54.869 -59.539  1.00  0.00     0.098 A 
HETATM   32  C   UNL     1     -45.078  54.617 -60.342  1.00  0.00     0.018 A 
HETATM   33  C   UNL     1     -45.918  55.725 -60.773  1.00  0.00     0.005 A 
ENDBRANCH  24  25
ENDBRANCH  23  24
ENDBRANCH   3  23
TORSDOF 4
ENDMDL
MODEL 3
REMARK VINA RESULT:      -9.3      2.515      9.020
REMARK  4 active torsions:
REMARK  status: ('A' for Active; 'I' for Inactive)
REMARK       I    between atoms: N_10  and  C_11 
REMARK    1  A    between atoms: C_11  and  C_12 
REMARK    2  A    between atoms: C_14  and  O_15 
REMARK    3  A    between atoms: O_15  and  C_16 
REMARK    4  A    between atoms: C_16  and  C_17 
ROOT
HETATM    1  C   UNL     1     -42.728  57.994 -51.969  1.00  0.00     0.034 A 
HETATM    2  C   UNL     1     -41.539  57.376 -51.561  1.00  0.00     0.053 A 
HETATM    3  C   UNL     1     -41.595  56.180 -50.846  1.00  0.00     0.070 A 
HETATM    4  C   UNL     1     -42.841  55.624 -50.535  1.00  0.00     0.037 A 
HETATM    5  C   UNL     1     -44.025  56.258 -50.914  1.00  0.00     0.004 A 
HETATM    6  C   UNL     1     -43.971  57.453 -51.625  1.00  0.00     0.017 A 
ENDROOT
BRANCH   1   7
HETATM    7  C   UNL     1     -42.643  59.278 -52.700  1.00  0.00     0.254 C 
HETATM    8  N   UNL     1     -42.917  59.301 -54.064  1.00  0.00    -0.343 N 
HETATM    9  C   UNL     1     -43.166  58.092 -54.881  1.00  0.00     0.167 C 
HETATM   10  C   UNL     1     -43.073  60.614 -54.722  1.00  0.00     0.132 C 
HETATM   11  C   UNL     1     -42.760  58.319 -56.302  1.00  0.00    -0.005 A 
HETATM   12  C   UNL     1     -42.761  57.411 -57.400  1.00  0.00     0.000 A 
HETATM   13  C   UNL     1     -42.319  59.533 -56.786  1.00  0.00     0.020 A 
HETATM   14  C   UNL     1     -43.106  56.053 -57.553  1.00  0.00     0.014 A 
HETATM   15  C   UNL     1     -42.313  58.119 -58.520  1.00  0.00     0.043 A 
HETATM   16  C   UNL     1     -42.995  55.453 -58.813  1.00  0.00     0.001 A 
HETATM   17  C   UNL     1     -42.548  56.184 -59.912  1.00  0.00     0.002 A 
HETATM   18  C   UNL     1     -42.197  57.531 -59.787  1.00  0.00     0.030 A 
HETATM   19  N   UNL     1     -42.039  59.408 -58.114  1.00  0.00    -0.358 N 
HETATM   20  H   UNL     1     -41.693  60.139 -58.719  1.00  0.00     0.166 HD
HETATM   21  C   UNL     1     -42.178  60.764 -55.967  1.00  0.00     0.077 C 
HETATM   22  O   UNL     1     -42.331  60.272 -52.048  1.00  0.00    -0.267 OA
ENDBRANCH   1   7
BRANCH   3  23
HETATM   23  O   UNL     1     -40.527  55.458 -50.393  1.00  0.00    -0.345 OA
BRANCH  23  24
HETATM   24  C   UNL     1     -40.798  54.184 -49.795  1.00  0.00     0.236 C 
BRANCH  24  25
HETATM   25  C   UNL     1     -40.458  53.069 -50.731  1.00  0.00     0.077 A 
HETATM   26  N   UNL     1     -40.423  53.282 -52.097  1.00  0.00    -0.232 NA
HETATM   27  C   UNL     1     -40.123  52.116 -52.629  1.00  0.00     0.134 A 
HETATM   28  N   UNL     1     -39.947  51.141 -51.653  1.00  0.00    -0.316 N 
HETATM   29  C   UNL     1     -39.965  51.710 -53.985  1.00  0.00     0.051 A 
HETATM   30  C   UNL     1     -40.147  51.753 -50.444  1.00  0.00     0.127 A 
HETATM   31  C   UNL     1     -39.633  49.814 -51.936  1.00  0.00     0.098 A 
HETATM   32  C   UNL     1     -39.490  49.436 -53.218  1.00  0.00     0.018 A 
HETATM   33  C   UNL     1     -39.664  50.427 -54.269  1.00  0.00     0.005 A 
ENDBRANCH  24  25
ENDBRANCH  23  24
ENDBRANCH   3  23
TORSDOF 4
ENDMDL
MODEL 4
REMARK VINA RESULT:      -9.3      1.281      1.402
REMARK  4 active torsions:
REMARK  status: ('A' for Active; 'I' for Inactive)
REMARK       I    between atoms: N_10  and  C_11 
REMARK    1  A    between atoms: C_11  and  C_12 
REMARK    2  A    between atoms: C_14  and  O_15 
REMARK    3  A    between atoms: O_15  and  C_16 
REMARK    4  A    between atoms: C_16  and  C_17 
ROOT
HETATM    1  C   UNL     1     -42.505  56.479 -54.922  1.00  0.00     0.034 A 
HETATM    2  C   UNL     1     -42.186  57.552 -55.764  1.00  0.00     0.053 A 
HETATM    3  C   UNL     1     -42.423  57.447 -57.134  1.00  0.00     0.070 A 
HETATM    4  C   UNL     1     -42.964  56.263 -57.648  1.00  0.00     0.037 A 
HETATM    5  C   UNL     1     -43.252  55.182 -56.812  1.00  0.00     0.004 A 
HETATM    6  C   UNL     1     -43.013  55.285 -55.445  1.00  0.00     0.017 A 
ENDROOT
BRANCH   1   7
HETATM    7  C   UNL     1     -42.217  56.603 -53.476  1.00  0.00     0.254 C 
HETATM    8  N   UNL     1     -41.373  55.677 -52.870  1.00  0.00    -0.343 N 
HETATM    9  C   UNL     1     -40.834  54.477 -53.549  1.00  0.00     0.167 C 
HETATM   10  C   UNL     1     -40.900  55.957 -51.500  1.00  0.00     0.132 C 
HETATM   11  C   UNL     1     -40.569  53.384 -52.564  1.00  0.00    -0.005 A 
HETATM   12  C   UNL     1     -40.119  52.051 -52.790  1.00  0.00     0.000 A 
HETATM   13  C   UNL     1     -40.712  53.534 -51.201  1.00  0.00     0.020 A 
HETATM   14  C   UNL     1     -39.790  51.305 -53.940  1.00  0.00     0.014 A 
HETATM   15  C   UNL     1     -40.008  51.436 -51.539  1.00  0.00     0.043 A 
HETATM   16  C   UNL     1     -39.359  49.981 -53.800  1.00  0.00     0.001 A 
HETATM   17  C   UNL     1     -39.254  49.395 -52.540  1.00  0.00     0.002 A 
HETATM   18  C   UNL     1     -39.578  50.112 -51.384  1.00  0.00     0.030 A 
HETATM   19  N   UNL     1     -40.387  52.361 -50.588  1.00  0.00    -0.358 N 
HETATM   20  H   UNL     1     -40.407  52.185 -49.593  1.00  0.00     0.166 HD
HETATM   21  C   UNL     1     -41.154  54.784 -50.533  1.00  0.00     0.077 C 
HETATM   22  O   UNL     1     -42.748  57.537 -52.880  1.00  0.00    -0.267 OA
ENDBRANCH   1   7
BRANCH   3  23
HETATM   23  O   UNL     1     -42.176  58.408 -58.073  1.00  0.00    -0.345 OA
BRANCH  23  24
HETATM   24  C   UNL     1     -42.370  59.774 -57.686  1.00  0.00     0.236 C 
BRANCH  24  25
HETATM   25  C   UNL     1     -41.650  60.701 -58.613  1.00  0.00     0.077 A 
HETATM   26  N   UNL     1     -40.652  61.533 -58.142  1.00  0.00    -0.232 NA
HETATM   27  C   UNL     1     -40.246  62.225 -59.186  1.00  0.00     0.134 A 
HETATM   28  N   UNL     1     -40.940  61.865 -60.336  1.00  0.00    -0.316 N 
HETATM   29  C   UNL     1     -39.260  63.245 -59.317  1.00  0.00     0.051 A 
HETATM   30  C   UNL     1     -41.824  60.884 -59.972  1.00  0.00     0.127 A 
HETATM   31  C   UNL     1     -40.721  62.446 -61.582  1.00  0.00     0.098 A 
HETATM   32  C   UNL     1     -39.792  63.411 -61.699  1.00  0.00     0.018 A 
HETATM   33  C   UNL     1     -39.043  63.815 -60.519  1.00  0.00     0.005 A 
ENDBRANCH  24  25
ENDBRANCH  23  24
ENDBRANCH   3  23
TORSDOF 4
ENDMDL
MODEL 5
REMARK VINA RESULT:      -9.1      4.943      7.958
REMARK  4 active torsions:
REMARK  status: ('A' for Active; 'I' for Inactive)
REMARK       I    between atoms: N_10  and  C_11 
REMARK    1  A    between atoms: C_11  and  C_12 
REMARK    2  A    between atoms: C_14  and  O_15 
REMARK    3  A    between atoms: O_15  and  C_16 
REMARK    4  A    between atoms: C_16  and  C_17 
ROOT
HETATM    1  C   UNL     1     -41.206  58.803 -52.668  1.00  0.00     0.034 A 
HETATM    2  C   UNL     1     -42.230  59.397 -51.918  1.00  0.00     0.053 A 
HETATM    3  C   UNL     1     -41.932  59.979 -50.687  1.00  0.00     0.070 A 
HETATM    4  C   UNL     1     -40.616  59.947 -50.213  1.00  0.00     0.037 A 
HETATM    5  C   UNL     1     -39.603  59.327 -50.946  1.00  0.00     0.004 A 
HETATM    6  C   UNL     1     -39.898  58.743 -52.174  1.00  0.00     0.017 A 
ENDROOT
BRANCH   1   7
HETATM    7  C   UNL     1     -41.552  58.166 -53.958  1.00  0.00     0.254 C 
HETATM    8  N   UNL     1     -41.679  56.782 -54.019  1.00  0.00    -0.343 N 
HETATM    9  C   UNL     1     -41.361  55.869 -52.898  1.00  0.00     0.167 C 
HETATM   10  C   UNL     1     -42.264  56.188 -55.238  1.00  0.00     0.132 C 
HETATM   11  C   UNL     1     -40.937  54.530 -53.407  1.00  0.00    -0.005 A 
HETATM   12  C   UNL     1     -40.481  53.388 -52.685  1.00  0.00     0.000 A 
HETATM   13  C   UNL     1     -40.953  54.180 -54.741  1.00  0.00     0.020 A 
HETATM   14  C   UNL     1     -40.259  53.112 -51.321  1.00  0.00     0.014 A 
HETATM   15  C   UNL     1     -40.233  52.380 -53.622  1.00  0.00     0.043 A 
HETATM   16  C   UNL     1     -39.803  51.844 -50.942  1.00  0.00     0.001 A 
HETATM   17  C   UNL     1     -39.567  50.857 -51.897  1.00  0.00     0.002 A 
HETATM   18  C   UNL     1     -39.777  51.107 -53.257  1.00  0.00     0.030 A 
HETATM   19  N   UNL     1     -40.518  52.894 -54.870  1.00  0.00    -0.358 N 
HETATM   20  H   UNL     1     -40.424  52.383 -55.736  1.00  0.00     0.166 HD
HETATM   21  C   UNL     1     -41.378  55.081 -55.842  1.00  0.00     0.077 C 
HETATM   22  O   UNL     1     -41.712  58.911 -54.922  1.00  0.00    -0.267 OA
ENDBRANCH   1   7
BRANCH   3  23
HETATM   23  O   UNL     1     -42.817  60.603 -49.852  1.00  0.00    -0.345 OA
BRANCH  23  24
HETATM   24  C   UNL     1     -44.199  60.589 -50.229  1.00  0.00     0.236 C 
BRANCH  24  25
HETATM   25  C   UNL     1     -45.024  61.387 -49.269  1.00  0.00     0.077 A 
HETATM   26  N   UNL     1     -44.714  61.408 -47.922  1.00  0.00    -0.232 NA
HETATM   27  C   UNL     1     -45.629  62.168 -47.360  1.00  0.00     0.134 A 
HETATM   28  N   UNL     1     -46.528  62.660 -48.299  1.00  0.00    -0.316 N 
HETATM   29  C   UNL     1     -45.841  62.543 -46.002  1.00  0.00     0.051 A 
HETATM   30  C   UNL     1     -46.133  62.174 -49.517  1.00  0.00     0.127 A 
HETATM   31  C   UNL     1     -47.605  63.484 -47.978  1.00  0.00     0.098 A 
HETATM   32  C   UNL     1     -47.803  63.830 -46.695  1.00  0.00     0.018 A 
HETATM   33  C   UNL     1     -46.882  63.337 -45.682  1.00  0.00     0.005 A 
ENDBRANCH  24  25
ENDBRANCH  23  24
ENDBRANCH   3  23
TORSDOF 4
ENDMDL
MODEL 6
REMARK VINA RESULT:      -8.8      5.063     10.635
REMARK  4 active torsions:
REMARK  status: ('A' for Active; 'I' for Inactive)
REMARK       I    between atoms: N_10  and  C_11 
REMARK    1  A    between atoms: C_11  and  C_12 
REMARK    2  A    between atoms: C_14  and  O_15 
REMARK    3  A    between atoms: O_15  and  C_16 
REMARK    4  A    between atoms: C_16  and  C_17 
ROOT
HETATM    1  C   UNL     1     -42.717  59.263 -51.624  1.00  0.00     0.034 A 
HETATM    2  C   UNL     1     -42.907  57.875 -51.587  1.00  0.00     0.053 A 
HETATM    3  C   UNL     1     -41.937  57.062 -51.000  1.00  0.00     0.070 A 
HETATM    4  C   UNL     1     -40.782  57.647 -50.470  1.00  0.00     0.037 A 
HETATM    5  C   UNL     1     -40.579  59.026 -50.536  1.00  0.00     0.004 A 
HETATM    6  C   UNL     1     -41.544  59.838 -51.123  1.00  0.00     0.017 A 
ENDROOT
BRANCH   1   7
HETATM    7  C   UNL     1     -43.746  60.101 -52.278  1.00  0.00     0.254 C 
HETATM    8  N   UNL     1     -44.361  61.113 -51.548  1.00  0.00    -0.343 N 
HETATM    9  C   UNL     1     -44.153  61.336 -50.099  1.00  0.00     0.167 C 
HETATM   10  C   UNL     1     -45.193  62.092 -52.277  1.00  0.00     0.132 C 
HETATM   11  C   UNL     1     -45.359  61.966 -49.481  1.00  0.00    -0.005 A 
HETATM   12  C   UNL     1     -45.614  62.286 -48.115  1.00  0.00     0.000 A 
HETATM   13  C   UNL     1     -46.461  62.376 -50.200  1.00  0.00     0.020 A 
HETATM   14  C   UNL     1     -44.888  62.131 -46.916  1.00  0.00     0.014 A 
HETATM   15  C   UNL     1     -46.877  62.883 -48.061  1.00  0.00     0.043 A 
HETATM   16  C   UNL     1     -45.446  62.578 -45.713  1.00  0.00     0.001 A 
HETATM   17  C   UNL     1     -46.706  63.172 -45.689  1.00  0.00     0.002 A 
HETATM   18  C   UNL     1     -47.447  63.335 -46.863  1.00  0.00     0.030 A 
HETATM   19  N   UNL     1     -47.376  62.914 -49.346  1.00  0.00    -0.358 N 
HETATM   20  H   UNL     1     -48.279  63.289 -49.602  1.00  0.00     0.166 HD
HETATM   21  C   UNL     1     -46.603  62.238 -51.672  1.00  0.00     0.077 C 
HETATM   22  O   UNL     1     -44.003  59.852 -53.453  1.00  0.00    -0.267 OA
ENDBRANCH   1   7
BRANCH   3  23
HETATM   23  O   UNL     1     -41.987  55.702 -50.880  1.00  0.00    -0.345 OA
BRANCH  23  24
HETATM   24  C   UNL     1     -40.819  55.042 -50.378  1.00  0.00     0.236 C 
BRANCH  24  25
HETATM   25  C   UNL     1     -40.515  53.812 -51.174  1.00  0.00     0.077 A 
HETATM   26  N   UNL     1     -40.658  53.810 -52.549  1.00  0.00    -0.232 NA
HETATM   27  C   UNL     1     -40.341  52.592 -52.935  1.00  0.00     0.134 A 
HETATM   28  N   UNL     1     -39.982  51.793 -51.856  1.00  0.00    -0.316 N 
HETATM   29  C   UNL     1     -40.319  51.987 -54.225  1.00  0.00     0.051 A 
HETATM   30  C   UNL     1     -40.079  52.575 -50.736  1.00  0.00     0.127 A 
HETATM   31  C   UNL     1     -39.611  50.456 -51.976  1.00  0.00     0.098 A 
HETATM   32  C   UNL     1     -39.595  49.889 -53.195  1.00  0.00     0.018 A 
HETATM   33  C   UNL     1     -39.964  50.693 -54.351  1.00  0.00     0.005 A 
ENDBRANCH  24  25
ENDBRANCH  23  24
ENDBRANCH   3  23
TORSDOF 4
ENDMDL
MODEL 7
REMARK VINA RESULT:      -8.8      4.842     10.135
REMARK  4 active torsions:
REMARK  status: ('A' for Active; 'I' for Inactive)
REMARK       I    between atoms: N_10  and  C_11 
REMARK    1  A    between atoms: C_11  and  C_12 
REMARK    2  A    between atoms: C_14  and  O_15 
REMARK    3  A    between atoms: O_15  and  C_16 
REMARK    4  A    between atoms: C_16  and  C_17 
ROOT
HETATM    1  C   UNL     1     -44.167  58.134 -52.298  1.00  0.00     0.034 A 
HETATM    2  C   UNL     1     -42.912  57.843 -52.848  1.00  0.00     0.053 A 
HETATM    3  C   UNL     1     -42.190  56.748 -52.374  1.00  0.00     0.070 A 
HETATM    4  C   UNL     1     -42.726  55.966 -51.345  1.00  0.00     0.037 A 
HETATM    5  C   UNL     1     -43.963  56.275 -50.777  1.00  0.00     0.004 A 
HETATM    6  C   UNL     1     -44.684  57.369 -51.247  1.00  0.00     0.017 A 
ENDROOT
BRANCH   1   7
HETATM    7  C   UNL     1     -44.901  59.317 -52.797  1.00  0.00     0.254 C 
HETATM    8  N   UNL     1     -45.071  60.415 -51.958  1.00  0.00    -0.343 N 
HETATM    9  C   UNL     1     -44.677  60.437 -50.532  1.00  0.00     0.167 C 
HETATM   10  C   UNL     1     -45.579  61.670 -52.546  1.00  0.00     0.132 C 
HETATM   11  C   UNL     1     -45.540  61.381 -49.758  1.00  0.00    -0.005 A 
HETATM   12  C   UNL     1     -45.553  61.656 -48.359  1.00  0.00     0.000 A 
HETATM   13  C   UNL     1     -46.493  62.192 -50.335  1.00  0.00     0.020 A 
HETATM   14  C   UNL     1     -44.825  61.171 -47.254  1.00  0.00     0.014 A 
HETATM   15  C   UNL     1     -46.529  62.634 -48.141  1.00  0.00     0.043 A 
HETATM   16  C   UNL     1     -45.092  61.679 -45.978  1.00  0.00     0.001 A 
HETATM   17  C   UNL     1     -46.068  62.656 -45.791  1.00  0.00     0.002 A 
HETATM   18  C   UNL     1     -46.806  63.152 -46.869  1.00  0.00     0.030 A 
HETATM   19  N   UNL     1     -47.095  62.935 -49.362  1.00  0.00    -0.358 N 
HETATM   20  H   UNL     1     -47.834  63.609 -49.502  1.00  0.00     0.166 HD
HETATM   21  C   UNL     1     -46.799  62.230 -51.788  1.00  0.00     0.077 C 
HETATM   22  O   UNL     1     -45.327  59.265 -53.949  1.00  0.00    -0.267 OA
ENDBRANCH   1   7
BRANCH   3  23
HETATM   23  O   UNL     1     -40.965  56.335 -52.816  1.00  0.00    -0.345 OA
BRANCH  23  24
HETATM   24  C   UNL     1     -40.925  55.570 -54.028  1.00  0.00     0.236 C 
BRANCH  24  25
HETATM   25  C   UNL     1     -40.622  54.133 -53.744  1.00  0.00     0.077 A 
HETATM   26  N   UNL     1     -40.332  53.715 -52.459  1.00  0.00    -0.232 NA
HETATM   27  C   UNL     1     -40.092  52.424 -52.552  1.00  0.00     0.134 A 
HETATM   28  N   UNL     1     -40.226  51.975 -53.861  1.00  0.00    -0.316 N 
HETATM   29  C   UNL     1     -39.724  51.459 -51.571  1.00  0.00     0.051 A 
HETATM   30  C   UNL     1     -40.577  53.062 -54.617  1.00  0.00     0.127 A 
HETATM   31  C   UNL     1     -40.018  50.654 -54.248  1.00  0.00     0.098 A 
HETATM   32  C   UNL     1     -39.667  49.748 -53.319  1.00  0.00     0.018 A 
HETATM   33  C   UNL     1     -39.518  50.178 -51.937  1.00  0.00     0.005 A 
ENDBRANCH  24  25
ENDBRANCH  23  24
ENDBRANCH   3  23
TORSDOF 4
ENDMDL
MODEL 8
REMARK VINA RESULT:      -8.6      3.572      4.523
REMARK  4 active torsions:
REMARK  status: ('A' for Active; 'I' for Inactive)
REMARK       I    between atoms: N_10  and  C_11 
REMARK    1  A    between atoms: C_11  and  C_12 
REMARK    2  A    between atoms: C_14  and  O_15 
REMARK    3  A    between atoms: O_15  and  C_16 
REMARK    4  A    between atoms: C_16  and  C_17 
ROOT
HETATM    1  C   UNL     1     -42.645  56.506 -55.468  1.00  0.00     0.034 A 
HETATM    2  C   UNL     1     -42.806  57.608 -56.319  1.00  0.00     0.053 A 
HETATM    3  C   UNL     1     -43.120  57.401 -57.661  1.00  0.00     0.070 A 
HETATM    4  C   UNL     1     -43.254  56.093 -58.141  1.00  0.00     0.037 A 
HETATM    5  C   UNL     1     -43.062  54.996 -57.300  1.00  0.00     0.004 A 
HETATM    6  C   UNL     1     -42.746  55.201 -55.960  1.00  0.00     0.017 A 
ENDROOT
BRANCH   1   7
HETATM    7  C   UNL     1     -42.283  56.751 -54.054  1.00  0.00     0.254 C 
HETATM    8  N   UNL     1     -41.425  55.865 -53.410  1.00  0.00    -0.343 N 
HETATM    9  C   UNL     1     -40.939  54.600 -54.005  1.00  0.00     0.167 C 
HETATM   10  C   UNL     1     -40.880  56.255 -52.094  1.00  0.00     0.132 C 
HETATM   11  C   UNL     1     -40.643  53.593 -52.941  1.00  0.00    -0.005 A 
HETATM   12  C   UNL     1     -40.225  52.235 -53.070  1.00  0.00     0.000 A 
HETATM   13  C   UNL     1     -40.715  53.863 -51.592  1.00  0.00     0.020 A 
HETATM   14  C   UNL     1     -39.965  51.386 -54.164  1.00  0.00     0.014 A 
HETATM   15  C   UNL     1     -40.062  51.731 -51.776  1.00  0.00     0.043 A 
HETATM   16  C   UNL     1     -39.548  50.071 -53.929  1.00  0.00     0.001 A 
HETATM   17  C   UNL     1     -39.390  49.596 -52.629  1.00  0.00     0.002 A 
HETATM   18  C   UNL     1     -39.645  50.417 -51.527  1.00  0.00     0.030 A 
HETATM   19  N   UNL     1     -40.378  52.742 -50.893  1.00  0.00    -0.358 N 
HETATM   20  H   UNL     1     -40.352  52.654 -49.887  1.00  0.00     0.166 HD
HETATM   21  C   UNL     1     -41.105  55.176 -51.016  1.00  0.00     0.077 C 
HETATM   22  O   UNL     1     -42.770  57.744 -53.518  1.00  0.00    -0.267 OA
ENDBRANCH   1   7
BRANCH   3  23
HETATM   23  O   UNL     1     -43.318  58.370 -58.604  1.00  0.00    -0.345 OA
BRANCH  23  24
HETATM   24  C   UNL     1     -44.452  59.230 -58.437  1.00  0.00     0.236 C 
BRANCH  24  25
HETATM   25  C   UNL     1     -45.542  58.872 -59.396  1.00  0.00     0.077 A 
HETATM   26  N   UNL     1     -45.827  57.548 -59.676  1.00  0.00    -0.232 NA
HETATM   27  C   UNL     1     -46.803  57.575 -60.559  1.00  0.00     0.134 A 
HETATM   28  N   UNL     1     -47.179  58.879 -60.862  1.00  0.00    -0.316 N 
HETATM   29  C   UNL     1     -47.497  56.528 -61.231  1.00  0.00     0.051 A 
HETATM   30  C   UNL     1     -46.385  59.704 -60.110  1.00  0.00     0.127 A 
HETATM   31  C   UNL     1     -48.181  59.200 -61.775  1.00  0.00     0.098 A 
HETATM   32  C   UNL     1     -48.830  58.209 -62.408  1.00  0.00     0.018 A 
HETATM   33  C   UNL     1     -48.466  56.830 -62.117  1.00  0.00     0.005 A 
ENDBRANCH  24  25
ENDBRANCH  23  24
ENDBRANCH   3  23
TORSDOF 4
ENDMDL
MODEL 9
REMARK VINA RESULT:      -8.6      1.742      2.281
REMARK  4 active torsions:
REMARK  status: ('A' for Active; 'I' for Inactive)
REMARK       I    between atoms: N_10  and  C_11 
REMARK    1  A    between atoms: C_11  and  C_12 
REMARK    2  A    between atoms: C_14  and  O_15 
REMARK    3  A    between atoms: O_15  and  C_16 
REMARK    4  A    between atoms: C_16  and  C_17 
ROOT
HETATM    1  C   UNL     1     -43.338  57.891 -53.351  1.00  0.00     0.034 A 
HETATM    2  C   UNL     1     -42.682  58.630 -54.344  1.00  0.00     0.053 A 
HETATM    3  C   UNL     1     -43.263  58.755 -55.606  1.00  0.00     0.070 A 
HETATM    4  C   UNL     1     -44.486  58.126 -55.863  1.00  0.00     0.037 A 
HETATM    5  C   UNL     1     -45.123  57.364 -54.882  1.00  0.00     0.004 A 
HETATM    6  C   UNL     1     -44.544  57.236 -53.623  1.00  0.00     0.017 A 
ENDROOT
BRANCH   1   7
HETATM    7  C   UNL     1     -42.688  57.749 -52.030  1.00  0.00     0.254 C 
HETATM    8  N   UNL     1     -41.724  56.761 -51.850  1.00  0.00    -0.343 N 
HETATM    9  C   UNL     1     -41.386  55.737 -52.864  1.00  0.00     0.167 C 
HETATM   10  C   UNL     1     -40.913  56.794 -50.616  1.00  0.00     0.132 C 
HETATM   11  C   UNL     1     -40.887  54.489 -52.212  1.00  0.00    -0.005 A 
HETATM   12  C   UNL     1     -40.520  53.243 -52.801  1.00  0.00     0.000 A 
HETATM   13  C   UNL     1     -40.674  54.368 -50.855  1.00  0.00     0.020 A 
HETATM   14  C   UNL     1     -40.502  52.746 -54.120  1.00  0.00     0.014 A 
HETATM   15  C   UNL     1     -40.097  52.406 -51.764  1.00  0.00     0.043 A 
HETATM   16  C   UNL     1     -40.060  51.439 -54.356  1.00  0.00     0.001 A 
HETATM   17  C   UNL     1     -39.640  50.629 -53.303  1.00  0.00     0.002 A 
HETATM   18  C   UNL     1     -39.652  51.096 -51.986  1.00  0.00     0.030 A 
HETATM   19  N   UNL     1     -40.212  53.114 -50.586  1.00  0.00    -0.358 N 
HETATM   20  H   UNL     1     -39.978  52.751 -49.672  1.00  0.00     0.166 HD
HETATM   21  C   UNL     1     -40.921  55.448 -49.865  1.00  0.00     0.077 C 
HETATM   22  O   UNL     1     -43.041  58.528 -51.147  1.00  0.00    -0.267 OA
ENDBRANCH   1   7
BRANCH   3  23
HETATM   23  O   UNL     1     -42.751  59.448 -56.666  1.00  0.00    -0.345 OA
BRANCH  23  24
HETATM   24  C   UNL     1     -42.302  58.688 -57.796  1.00  0.00     0.236 C 
BRANCH  24  25
HETATM   25  C   UNL     1     -42.742  59.322 -59.077  1.00  0.00     0.077 A 
HETATM   26  N   UNL     1     -44.085  59.511 -59.344  1.00  0.00    -0.232 NA
HETATM   27  C   UNL     1     -44.134  60.059 -60.540  1.00  0.00     0.134 A 
HETATM   28  N   UNL     1     -42.861  60.248 -61.066  1.00  0.00    -0.316 N 
HETATM   29  C   UNL     1     -45.236  60.462 -61.349  1.00  0.00     0.051 A 
HETATM   30  C   UNL     1     -41.975  59.792 -60.127  1.00  0.00     0.127 A 
HETATM   31  C   UNL     1     -42.620  60.800 -62.321  1.00  0.00     0.098 A 
HETATM   32  C   UNL     1     -43.663  61.175 -63.082  1.00  0.00     0.018 A 
HETATM   33  C   UNL     1     -45.012  60.994 -62.567  1.00  0.00     0.005 A 
ENDBRANCH  24  25
ENDBRANCH  23  24
ENDBRANCH   3  23
TORSDOF 4
ENDMDL
MODEL 10
REMARK VINA RESULT:      -8.5      3.907      5.537
REMARK  4 active torsions:
REMARK  status: ('A' for Active; 'I' for Inactive)
REMARK       I    between atoms: N_10  and  C_11 
REMARK    1  A    between atoms: C_11  and  C_12 
REMARK    2  A    between atoms: C_14  and  O_15 
REMARK    3  A    between atoms: O_15  and  C_16 
REMARK    4  A    between atoms: C_16  and  C_17 
ROOT
HETATM    1  C   UNL     1     -41.915  56.973 -52.126  1.00  0.00     0.034 A 
HETATM    2  C   UNL     1     -43.282  57.231 -52.297  1.00  0.00     0.053 A 
HETATM    3  C   UNL     1     -43.728  57.823 -53.478  1.00  0.00     0.070 A 
HETATM    4  C   UNL     1     -42.800  58.163 -54.468  1.00  0.00     0.037 A 
HETATM    5  C   UNL     1     -41.436  57.934 -54.284  1.00  0.00     0.004 A 
HETATM    6  C   UNL     1     -40.988  57.346 -53.105  1.00  0.00     0.017 A 
ENDROOT
BRANCH   1   7
HETATM    7  C   UNL     1     -41.463  56.371 -50.853  1.00  0.00     0.254 C 
HETATM    8  N   UNL     1     -40.709  55.202 -50.885  1.00  0.00    -0.343 N 
HETATM    9  C   UNL     1     -40.431  54.427 -52.115  1.00  0.00     0.167 C 
HETATM   10  C   UNL     1     -40.059  54.756 -49.635  1.00  0.00     0.132 C 
HETATM   11  C   UNL     1     -40.232  52.980 -51.798  1.00  0.00    -0.005 A 
HETATM   12  C   UNL     1     -40.014  51.881 -52.680  1.00  0.00     0.000 A 
HETATM   13  C   UNL     1     -40.208  52.475 -50.516  1.00  0.00     0.020 A 
HETATM   14  C   UNL     1     -39.922  51.747 -54.080  1.00  0.00     0.014 A 
HETATM   15  C   UNL     1     -39.867  50.740 -51.886  1.00  0.00     0.043 A 
HETATM   16  C   UNL     1     -39.683  50.484 -54.635  1.00  0.00     0.001 A 
HETATM   17  C   UNL     1     -39.537  49.364 -53.819  1.00  0.00     0.002 A 
HETATM   18  C   UNL     1     -39.627  49.470 -52.428  1.00  0.00     0.030 A 
HETATM   19  N   UNL     1     -40.001  51.129 -50.570  1.00  0.00    -0.358 N 
HETATM   20  H   UNL     1     -39.944  50.505 -49.777  1.00  0.00     0.166 HD
HETATM   21  C   UNL     1     -40.385  53.291 -49.287  1.00  0.00     0.077 C 
HETATM   22  O   UNL     1     -41.783  56.950 -49.817  1.00  0.00    -0.267 OA
ENDBRANCH   1   7
BRANCH   3  23
HETATM   23  O   UNL     1     -45.024  58.125 -53.791  1.00  0.00    -0.345 OA
BRANCH  23  24
HETATM   24  C   UNL     1     -45.349  59.507 -53.990  1.00  0.00     0.236 C 
BRANCH  24  25
HETATM   25  C   UNL     1     -45.216  60.276 -52.714  1.00  0.00     0.077 A 
HETATM   26  N   UNL     1     -44.249  61.254 -52.579  1.00  0.00    -0.232 NA
HETATM   27  C   UNL     1     -44.380  61.714 -51.353  1.00  0.00     0.134 A 
HETATM   28  N   UNL     1     -45.414  61.076 -50.677  1.00  0.00    -0.316 N 
HETATM   29  C   UNL     1     -43.656  62.711 -50.636  1.00  0.00     0.051 A 
HETATM   30  C   UNL     1     -45.955  60.170 -51.550  1.00  0.00     0.127 A 
HETATM   31  C   UNL     1     -45.764  61.359 -49.359  1.00  0.00     0.098 A 
HETATM   32  C   UNL     1     -45.076  62.298 -48.687  1.00  0.00     0.018 A 
HETATM   33  C   UNL     1     -43.987  62.990 -49.360  1.00  0.00     0.005 A 
ENDBRANCH  24  25
ENDBRANCH  23  24
ENDBRANCH   3  23
TORSDOF 4
ENDMDL
