MODEL 1
REMARK VINA RESULT:      -7.2      0.000      0.000
REMARK  9 active torsions:
REMARK  status: ('A' for Active; 'I' for Inactive)
REMARK    1  A    between atoms: O_2  and  C_3 
REMARK    2  A    between atoms: C_3  and  C_4 
REMARK    3  A    between atoms: C_4  and  S_5 
REMARK    4  A    between atoms: S_5  and  C_6 
REMARK    5  A    between atoms: C_7  and  C_8 
REMARK       I    between atoms: C_8  and  N_9 
REMARK    6  A    between atoms: N_9  and  C_10 
REMARK    7  A    between atoms: C_11  and  C_12 
REMARK       I    between atoms: C_12  and  N_13 
REMARK    8  A    between atoms: N_13  and  C_14 
REMARK    9  A    between atoms: C_14  and  C_15 
ROOT
HETATM    1  C   UNL     1     -43.251  56.739 -53.607  1.00  0.00     0.050 A 
HETATM    2  C   UNL     1     -43.708  56.990 -54.912  1.00  0.00     0.058 A 
HETATM    3  C   UNL     1     -44.672  57.980 -55.153  1.00  0.00     0.019 A 
HETATM    4  C   UNL     1     -45.172  58.739 -54.096  1.00  0.00     0.001 A 
HETATM    5  C   UNL     1     -44.692  58.528 -52.805  1.00  0.00     0.002 A 
HETATM    6  C   UNL     1     -43.730  57.543 -52.563  1.00  0.00     0.030 A 
ENDROOT
BRANCH   1   7
HETATM    7  N   UNL     1     -42.308  55.747 -53.269  1.00  0.00    -0.322 N 
HETATM    8  C   UNL     1     -42.639  54.492 -52.797  1.00  0.00     0.257 C 
HETATM    9  O   UNL     1     -43.730  54.146 -52.365  1.00  0.00    -0.267 OA
HETATM   10  H   UNL     1     -41.339  56.029 -53.168  1.00  0.00     0.169 HD
BRANCH   8  11
HETATM   11  C   UNL     1     -41.524  53.524 -52.839  1.00  0.00     0.049 A 
HETATM   12  C   UNL     1     -40.880  53.052 -51.686  1.00  0.00     0.016 A 
HETATM   13  C   UNL     1     -39.830  52.135 -51.843  1.00  0.00     0.019 A 
HETATM   14  C   UNL     1     -39.449  51.686 -53.113  1.00  0.00     0.001 A 
HETATM   15  C   UNL     1     -40.107  52.153 -54.248  1.00  0.00     0.001 A 
HETATM   16  C   UNL     1     -41.145  53.071 -54.113  1.00  0.00     0.018 A 
BRANCH  12  17
HETATM   17  S   UNL     1     -41.220  53.612 -50.024  1.00  0.00    -0.127 SA
BRANCH  17  18
HETATM   18  C   UNL     1     -40.249  55.167 -49.986  1.00  0.00     0.106 C 
BRANCH  18  19
HETATM   19  C   UNL     1     -41.146  56.409 -50.016  1.00  0.00     0.177 C 
BRANCH  19  20
HETATM   20  O   UNL     1     -40.777  57.405 -50.971  1.00  0.00    -0.395 OA
HETATM   21  C   UNL     1     -40.861  58.735 -50.478  1.00  0.00     0.201 C 
ENDBRANCH  19  20
ENDBRANCH  18  19
ENDBRANCH  17  18
ENDBRANCH  12  17
ENDBRANCH   8  11
ENDBRANCH   1   7
BRANCH   2  22
HETATM   22  C   UNL     1     -43.046  56.422 -56.108  1.00  0.00     0.254 C 
HETATM   23  N   UNL     1     -43.826  56.382 -57.245  1.00  0.00    -0.354 N 
HETATM   24  H   UNL     1     -44.818  56.258 -57.056  1.00  0.00     0.162 HD
HETATM   25  O   UNL     1     -41.881  56.045 -56.042  1.00  0.00    -0.268 OA
BRANCH  23  26
HETATM   26  C   UNL     1     -43.339  55.659 -58.405  1.00  0.00     0.155 C 
BRANCH  26  27
HETATM   27  C   UNL     1     -43.582  56.443 -59.703  1.00  0.00     0.139 C 
HETATM   28  O   UNL     1     -42.351  56.511 -60.454  1.00  0.00    -0.384 OA
HETATM   29  C   UNL     1     -41.792  57.825 -60.312  1.00  0.00     0.168 C 
HETATM   30  C   UNL     1     -42.648  58.579 -59.315  1.00  0.00     0.029 C 
HETATM   31  C   UNL     1     -43.981  57.888 -59.447  1.00  0.00     0.035 C 
ENDBRANCH  26  27
ENDBRANCH  23  26
ENDBRANCH   2  22
TORSDOF 9
ENDMDL
MODEL 2
REMARK VINA RESULT:      -7.2      2.394      5.677
REMARK  9 active torsions:
REMARK  status: ('A' for Active; 'I' for Inactive)
REMARK    1  A    between atoms: O_2  and  C_3 
REMARK    2  A    between atoms: C_3  and  C_4 
REMARK    3  A    between atoms: C_4  and  S_5 
REMARK    4  A    between atoms: S_5  and  C_6 
REMARK    5  A    between atoms: C_7  and  C_8 
REMARK       I    between atoms: C_8  and  N_9 
REMARK    6  A    between atoms: N_9  and  C_10 
REMARK    7  A    between atoms: C_11  and  C_12 
REMARK       I    between atoms: C_12  and  N_13 
REMARK    8  A    between atoms: N_13  and  C_14 
REMARK    9  A    between atoms: C_14  and  C_15 
ROOT
HETATM    1  C   UNL     1     -42.145  56.458 -55.527  1.00  0.00     0.050 A 
HETATM    2  C   UNL     1     -42.400  57.790 -55.891  1.00  0.00     0.058 A 
HETATM    3  C   UNL     1     -42.948  58.095 -57.147  1.00  0.00     0.019 A 
HETATM    4  C   UNL     1     -43.261  57.070 -58.038  1.00  0.00     0.001 A 
HETATM    5  C   UNL     1     -43.053  55.743 -57.668  1.00  0.00     0.002 A 
HETATM    6  C   UNL     1     -42.509  55.437 -56.416  1.00  0.00     0.030 A 
ENDROOT
BRANCH   1   7
HETATM    7  N   UNL     1     -41.572  56.062 -54.300  1.00  0.00    -0.322 N 
HETATM    8  C   UNL     1     -42.276  55.457 -53.277  1.00  0.00     0.257 C 
HETATM    9  O   UNL     1     -43.493  55.412 -53.163  1.00  0.00    -0.267 OA
HETATM   10  H   UNL     1     -40.652  56.417 -54.070  1.00  0.00     0.169 HD
BRANCH   8  11
HETATM   11  C   UNL     1     -41.418  54.831 -52.250  1.00  0.00     0.049 A 
HETATM   12  C   UNL     1     -40.697  53.649 -52.476  1.00  0.00     0.016 A 
HETATM   13  C   UNL     1     -39.915  53.141 -51.428  1.00  0.00     0.019 A 
HETATM   14  C   UNL     1     -39.839  53.805 -50.198  1.00  0.00     0.001 A 
HETATM   15  C   UNL     1     -40.549  54.984 -49.993  1.00  0.00     0.001 A 
HETATM   16  C   UNL     1     -41.339  55.500 -51.018  1.00  0.00     0.018 A 
BRANCH  12  17
HETATM   17  S   UNL     1     -40.780  52.671 -53.969  1.00  0.00    -0.127 SA
BRANCH  17  18
HETATM   18  C   UNL     1     -39.433  51.465 -53.658  1.00  0.00     0.106 C 
BRANCH  18  19
HETATM   19  C   UNL     1     -39.860  50.028 -53.978  1.00  0.00     0.177 C 
BRANCH  19  20
HETATM   20  O   UNL     1     -39.465  49.047 -53.017  1.00  0.00    -0.395 OA
HETATM   21  C   UNL     1     -39.624  49.466 -51.669  1.00  0.00     0.201 C 
ENDBRANCH  19  20
ENDBRANCH  18  19
ENDBRANCH  17  18
ENDBRANCH  12  17
ENDBRANCH   8  11
ENDBRANCH   1   7
BRANCH   2  22
HETATM   22  C   UNL     1     -42.347  58.904 -54.918  1.00  0.00     0.254 C 
HETATM   23  N   UNL     1     -43.485  59.069 -54.156  1.00  0.00    -0.354 N 
HETATM   24  H   UNL     1     -44.341  58.799 -54.635  1.00  0.00     0.162 HD
HETATM   25  O   UNL     1     -41.335  59.589 -54.825  1.00  0.00    -0.268 OA
BRANCH  23  26
HETATM   26  C   UNL     1     -43.608  60.253 -53.325  1.00  0.00     0.155 C 
BRANCH  26  27
HETATM   27  C   UNL     1     -43.858  59.888 -51.855  1.00  0.00     0.139 C 
HETATM   28  O   UNL     1     -43.370  60.954 -51.011  1.00  0.00    -0.384 OA
HETATM   29  C   UNL     1     -42.129  60.544 -50.418  1.00  0.00     0.168 C 
HETATM   30  C   UNL     1     -41.754  59.206 -51.023  1.00  0.00     0.029 C 
HETATM   31  C   UNL     1     -43.096  58.646 -51.423  1.00  0.00     0.035 C 
ENDBRANCH  26  27
ENDBRANCH  23  26
ENDBRANCH   2  22
TORSDOF 9
ENDMDL
MODEL 3
REMARK VINA RESULT:      -7.2      1.995      5.071
REMARK  9 active torsions:
REMARK  status: ('A' for Active; 'I' for Inactive)
REMARK    1  A    between atoms: O_2  and  C_3 
REMARK    2  A    between atoms: C_3  and  C_4 
REMARK    3  A    between atoms: C_4  and  S_5 
REMARK    4  A    between atoms: S_5  and  C_6 
REMARK    5  A    between atoms: C_7  and  C_8 
REMARK       I    between atoms: C_8  and  N_9 
REMARK    6  A    between atoms: N_9  and  C_10 
REMARK    7  A    between atoms: C_11  and  C_12 
REMARK       I    between atoms: C_12  and  N_13 
REMARK    8  A    between atoms: N_13  and  C_14 
REMARK    9  A    between atoms: C_14  and  C_15 
ROOT
HETATM    1  C   UNL     1     -41.207  54.750 -53.196  1.00  0.00     0.050 A 
HETATM    2  C   UNL     1     -41.628  54.202 -54.419  1.00  0.00     0.058 A 
HETATM    3  C   UNL     1     -41.263  52.896 -54.780  1.00  0.00     0.019 A 
HETATM    4  C   UNL     1     -40.492  52.123 -53.913  1.00  0.00     0.001 A 
HETATM    5  C   UNL     1     -40.107  52.643 -52.678  1.00  0.00     0.002 A 
HETATM    6  C   UNL     1     -40.472  53.943 -52.316  1.00  0.00     0.030 A 
ENDROOT
BRANCH   1   7
HETATM    7  N   UNL     1     -41.503  56.060 -52.764  1.00  0.00    -0.322 N 
HETATM    8  C   UNL     1     -42.293  56.355 -51.670  1.00  0.00     0.257 C 
HETATM    9  O   UNL     1     -43.042  55.582 -51.089  1.00  0.00    -0.267 OA
HETATM   10  H   UNL     1     -41.301  56.824 -53.398  1.00  0.00     0.169 HD
BRANCH   8  11
HETATM   11  C   UNL     1     -42.181  57.755 -51.213  1.00  0.00     0.049 A 
HETATM   12  C   UNL     1     -43.208  58.696 -51.376  1.00  0.00     0.016 A 
HETATM   13  C   UNL     1     -42.994  59.999 -50.905  1.00  0.00     0.019 A 
HETATM   14  C   UNL     1     -41.796  60.348 -50.270  1.00  0.00     0.001 A 
HETATM   15  C   UNL     1     -40.790  59.400 -50.102  1.00  0.00     0.001 A 
HETATM   16  C   UNL     1     -40.980  58.102 -50.572  1.00  0.00     0.018 A 
BRANCH  12  17
HETATM   17  S   UNL     1     -44.742  58.393 -52.242  1.00  0.00    -0.127 SA
BRANCH  17  18
HETATM   18  C   UNL     1     -44.459  59.355 -53.778  1.00  0.00     0.106 C 
BRANCH  18  19
HETATM   19  C   UNL     1     -43.785  58.516 -54.869  1.00  0.00     0.177 C 
BRANCH  19  20
HETATM   20  O   UNL     1     -42.374  58.344 -54.722  1.00  0.00    -0.395 OA
HETATM   21  C   UNL     1     -41.668  59.553 -54.488  1.00  0.00     0.201 C 
ENDBRANCH  19  20
ENDBRANCH  18  19
ENDBRANCH  17  18
ENDBRANCH  12  17
ENDBRANCH   8  11
ENDBRANCH   1   7
BRANCH   2  22
HETATM   22  C   UNL     1     -42.655  54.847 -55.267  1.00  0.00     0.254 C 
HETATM   23  N   UNL     1     -42.255  55.131 -56.556  1.00  0.00    -0.354 N 
HETATM   24  H   UNL     1     -41.264  55.341 -56.639  1.00  0.00     0.162 HD
HETATM   25  O   UNL     1     -43.771  55.075 -54.812  1.00  0.00    -0.268 OA
BRANCH  23  26
HETATM   26  C   UNL     1     -43.116  55.944 -57.395  1.00  0.00     0.155 C 
BRANCH  26  27
HETATM   27  C   UNL     1     -42.918  55.627 -58.884  1.00  0.00     0.139 C 
HETATM   28  O   UNL     1     -42.809  56.863 -59.623  1.00  0.00    -0.384 OA
HETATM   29  C   UNL     1     -44.043  57.101 -60.315  1.00  0.00     0.168 C 
HETATM   30  C   UNL     1     -45.022  56.027 -59.884  1.00  0.00     0.029 C 
HETATM   31  C   UNL     1     -44.106  54.896 -59.489  1.00  0.00     0.035 C 
ENDBRANCH  26  27
ENDBRANCH  23  26
ENDBRANCH   2  22
TORSDOF 9
ENDMDL
MODEL 4
REMARK VINA RESULT:      -7.1      1.922      3.761
REMARK  9 active torsions:
REMARK  status: ('A' for Active; 'I' for Inactive)
REMARK    1  A    between atoms: O_2  and  C_3 
REMARK    2  A    between atoms: C_3  and  C_4 
REMARK    3  A    between atoms: C_4  and  S_5 
REMARK    4  A    between atoms: S_5  and  C_6 
REMARK    5  A    between atoms: C_7  and  C_8 
REMARK       I    between atoms: C_8  and  N_9 
REMARK    6  A    between atoms: N_9  and  C_10 
REMARK    7  A    between atoms: C_11  and  C_12 
REMARK       I    between atoms: C_12  and  N_13 
REMARK    8  A    between atoms: N_13  and  C_14 
REMARK    9  A    between atoms: C_14  and  C_15 
ROOT
HETATM    1  C   UNL     1     -43.860  57.136 -53.104  1.00  0.00     0.050 A 
HETATM    2  C   UNL     1     -44.238  57.125 -54.457  1.00  0.00     0.058 A 
HETATM    3  C   UNL     1     -44.963  58.196 -55.003  1.00  0.00     0.019 A 
HETATM    4  C   UNL     1     -45.298  59.290 -54.207  1.00  0.00     0.001 A 
HETATM    5  C   UNL     1     -44.888  59.329 -52.876  1.00  0.00     0.002 A 
HETATM    6  C   UNL     1     -44.163  58.264 -52.330  1.00  0.00     0.030 A 
ENDROOT
BRANCH   1   7
HETATM    7  N   UNL     1     -43.156  56.094 -52.464  1.00  0.00    -0.322 N 
HETATM    8  C   UNL     1     -41.782  56.061 -52.322  1.00  0.00     0.257 C 
HETATM    9  O   UNL     1     -40.975  56.753 -52.928  1.00  0.00    -0.267 OA
HETATM   10  H   UNL     1     -43.652  55.230 -52.280  1.00  0.00     0.169 HD
BRANCH   8  11
HETATM   11  C   UNL     1     -41.307  55.069 -51.337  1.00  0.00     0.049 A 
HETATM   12  C   UNL     1     -40.872  53.784 -51.695  1.00  0.00     0.016 A 
HETATM   13  C   UNL     1     -40.443  52.922 -50.676  1.00  0.00     0.019 A 
HETATM   14  C   UNL     1     -40.428  53.337 -49.339  1.00  0.00     0.001 A 
HETATM   15  C   UNL     1     -40.849  54.621 -48.999  1.00  0.00     0.001 A 
HETATM   16  C   UNL     1     -41.288  55.488 -49.996  1.00  0.00     0.018 A 
BRANCH  12  17
HETATM   17  S   UNL     1     -40.924  53.114 -53.351  1.00  0.00    -0.127 SA
BRANCH  17  18
HETATM   18  C   UNL     1     -39.591  51.858 -53.249  1.00  0.00     0.106 C 
BRANCH  18  19
HETATM   19  C   UNL     1     -39.864  50.651 -54.152  1.00  0.00     0.177 C 
BRANCH  19  20
HETATM   20  O   UNL     1     -39.790  49.378 -53.507  1.00  0.00    -0.395 OA
HETATM   21  C   UNL     1     -39.620  49.455 -52.099  1.00  0.00     0.201 C 
ENDBRANCH  19  20
ENDBRANCH  18  19
ENDBRANCH  17  18
ENDBRANCH  12  17
ENDBRANCH   8  11
ENDBRANCH   1   7
BRANCH   2  22
HETATM   22  C   UNL     1     -43.703  56.142 -55.424  1.00  0.00     0.254 C 
HETATM   23  N   UNL     1     -43.500  56.627 -56.699  1.00  0.00    -0.354 N 
HETATM   24  H   UNL     1     -44.152  57.360 -56.966  1.00  0.00     0.162 HD
HETATM   25  O   UNL     1     -43.458  54.997 -55.062  1.00  0.00    -0.268 OA
BRANCH  23  26
HETATM   26  C   UNL     1     -43.175  55.694 -57.762  1.00  0.00     0.155 C 
BRANCH  26  27
HETATM   27  C   UNL     1     -43.421  56.306 -59.148  1.00  0.00     0.139 C 
HETATM   28  O   UNL     1     -44.519  57.242 -59.066  1.00  0.00    -0.384 OA
HETATM   29  C   UNL     1     -45.687  56.636 -59.639  1.00  0.00     0.168 C 
HETATM   30  C   UNL     1     -45.338  55.202 -59.979  1.00  0.00     0.029 C 
HETATM   31  C   UNL     1     -43.845  55.272 -60.178  1.00  0.00     0.035 C 
ENDBRANCH  26  27
ENDBRANCH  23  26
ENDBRANCH   2  22
TORSDOF 9
ENDMDL
MODEL 5
REMARK VINA RESULT:      -7.1      2.034      4.652
REMARK  9 active torsions:
REMARK  status: ('A' for Active; 'I' for Inactive)
REMARK    1  A    between atoms: O_2  and  C_3 
REMARK    2  A    between atoms: C_3  and  C_4 
REMARK    3  A    between atoms: C_4  and  S_5 
REMARK    4  A    between atoms: S_5  and  C_6 
REMARK    5  A    between atoms: C_7  and  C_8 
REMARK       I    between atoms: C_8  and  N_9 
REMARK    6  A    between atoms: N_9  and  C_10 
REMARK    7  A    between atoms: C_11  and  C_12 
REMARK       I    between atoms: C_12  and  N_13 
REMARK    8  A    between atoms: N_13  and  C_14 
REMARK    9  A    between atoms: C_14  and  C_15 
ROOT
HETATM    1  C   UNL     1     -42.912  56.225 -56.292  1.00  0.00     0.050 A 
HETATM    2  C   UNL     1     -43.631  57.411 -56.067  1.00  0.00     0.058 A 
HETATM    3  C   UNL     1     -44.257  58.080 -57.131  1.00  0.00     0.019 A 
HETATM    4  C   UNL     1     -44.184  57.558 -58.421  1.00  0.00     0.001 A 
HETATM    5  C   UNL     1     -43.511  56.358 -58.646  1.00  0.00     0.002 A 
HETATM    6  C   UNL     1     -42.889  55.690 -57.587  1.00  0.00     0.030 A 
ENDROOT
BRANCH   1   7
HETATM    7  N   UNL     1     -42.230  55.503 -55.290  1.00  0.00    -0.322 N 
HETATM    8  C   UNL     1     -42.740  54.386 -54.659  1.00  0.00     0.257 C 
HETATM    9  O   UNL     1     -43.907  54.017 -54.670  1.00  0.00    -0.267 OA
HETATM   10  H   UNL     1     -41.419  55.935 -54.863  1.00  0.00     0.169 HD
BRANCH   8  11
HETATM   11  C   UNL     1     -41.731  53.609 -53.910  1.00  0.00     0.049 A 
HETATM   12  C   UNL     1     -41.623  53.645 -52.512  1.00  0.00     0.016 A 
HETATM   13  C   UNL     1     -40.625  52.868 -51.905  1.00  0.00     0.019 A 
HETATM   14  C   UNL     1     -39.774  52.063 -52.671  1.00  0.00     0.001 A 
HETATM   15  C   UNL     1     -39.901  52.026 -54.057  1.00  0.00     0.001 A 
HETATM   16  C   UNL     1     -40.880  52.798 -54.679  1.00  0.00     0.018 A 
BRANCH  12  17
HETATM   17  S   UNL     1     -42.593  54.694 -51.439  1.00  0.00    -0.127 SA
BRANCH  17  18
HETATM   18  C   UNL     1     -41.276  55.733 -50.701  1.00  0.00     0.106 C 
BRANCH  18  19
HETATM   19  C   UNL     1     -41.248  55.632 -49.172  1.00  0.00     0.177 C 
BRANCH  19  20
HETATM   20  O   UNL     1     -41.488  54.327 -48.643  1.00  0.00    -0.395 OA
HETATM   21  C   UNL     1     -40.321  53.683 -48.151  1.00  0.00     0.201 C 
ENDBRANCH  19  20
ENDBRANCH  18  19
ENDBRANCH  17  18
ENDBRANCH  12  17
ENDBRANCH   8  11
ENDBRANCH   1   7
BRANCH   2  22
HETATM   22  C   UNL     1     -43.978  57.884 -54.708  1.00  0.00     0.254 C 
HETATM   23  N   UNL     1     -43.442  59.107 -54.360  1.00  0.00    -0.354 N 
HETATM   24  H   UNL     1     -42.543  59.297 -54.795  1.00  0.00     0.162 HD
HETATM   25  O   UNL     1     -44.706  57.207 -53.991  1.00  0.00    -0.268 OA
BRANCH  23  26
HETATM   26  C   UNL     1     -43.554  59.557 -52.985  1.00  0.00     0.155 C 
BRANCH  26  27
HETATM   27  C   UNL     1     -42.362  60.435 -52.578  1.00  0.00     0.139 C 
HETATM   28  O   UNL     1     -41.134  59.766 -52.939  1.00  0.00    -0.384 OA
HETATM   29  C   UNL     1     -40.539  59.219 -51.753  1.00  0.00     0.168 C 
HETATM   30  C   UNL     1     -41.509  59.443 -50.610  1.00  0.00     0.029 C 
HETATM   31  C   UNL     1     -42.281  60.652 -51.076  1.00  0.00     0.035 C 
ENDBRANCH  26  27
ENDBRANCH  23  26
ENDBRANCH   2  22
TORSDOF 9
ENDMDL
MODEL 6
REMARK VINA RESULT:      -7.0      2.705      7.927
REMARK  9 active torsions:
REMARK  status: ('A' for Active; 'I' for Inactive)
REMARK    1  A    between atoms: O_2  and  C_3 
REMARK    2  A    between atoms: C_3  and  C_4 
REMARK    3  A    between atoms: C_4  and  S_5 
REMARK    4  A    between atoms: S_5  and  C_6 
REMARK    5  A    between atoms: C_7  and  C_8 
REMARK       I    between atoms: C_8  and  N_9 
REMARK    6  A    between atoms: N_9  and  C_10 
REMARK    7  A    between atoms: C_11  and  C_12 
REMARK       I    between atoms: C_12  and  N_13 
REMARK    8  A    between atoms: N_13  and  C_14 
REMARK    9  A    between atoms: C_14  and  C_15 
ROOT
HETATM    1  C   UNL     1     -40.940  54.571 -54.550  1.00  0.00     0.050 A 
HETATM    2  C   UNL     1     -41.344  54.550 -53.205  1.00  0.00     0.058 A 
HETATM    3  C   UNL     1     -41.056  53.443 -52.391  1.00  0.00     0.019 A 
HETATM    4  C   UNL     1     -40.348  52.361 -52.910  1.00  0.00     0.001 A 
HETATM    5  C   UNL     1     -39.905  52.393 -54.231  1.00  0.00     0.002 A 
HETATM    6  C   UNL     1     -40.189  53.495 -55.043  1.00  0.00     0.030 A 
ENDROOT
BRANCH   1   7
HETATM    7  N   UNL     1     -41.209  55.626 -55.447  1.00  0.00    -0.322 N 
HETATM    8  C   UNL     1     -42.368  55.734 -56.191  1.00  0.00     0.257 C 
HETATM    9  O   UNL     1     -43.187  54.846 -56.386  1.00  0.00    -0.267 OA
HETATM   10  H   UNL     1     -40.438  56.226 -55.719  1.00  0.00     0.169 HD
BRANCH   8  11
HETATM   11  C   UNL     1     -42.575  57.070 -56.785  1.00  0.00     0.049 A 
HETATM   12  C   UNL     1     -42.818  57.268 -58.152  1.00  0.00     0.016 A 
HETATM   13  C   UNL     1     -42.998  58.582 -58.609  1.00  0.00     0.019 A 
HETATM   14  C   UNL     1     -42.958  59.665 -57.723  1.00  0.00     0.001 A 
HETATM   15  C   UNL     1     -42.730  59.452 -56.366  1.00  0.00     0.001 A 
HETATM   16  C   UNL     1     -42.539  58.156 -55.894  1.00  0.00     0.018 A 
BRANCH  12  17
HETATM   17  S   UNL     1     -42.808  55.978 -59.388  1.00  0.00    -0.127 SA
BRANCH  17  18
HETATM   18  C   UNL     1     -44.607  55.669 -59.569  1.00  0.00     0.106 C 
BRANCH  18  19
HETATM   19  C   UNL     1     -44.976  55.212 -60.984  1.00  0.00     0.177 C 
BRANCH  19  20
HETATM   20  O   UNL     1     -46.271  55.610 -61.436  1.00  0.00    -0.395 OA
HETATM   21  C   UNL     1     -47.041  56.285 -60.451  1.00  0.00     0.201 C 
ENDBRANCH  19  20
ENDBRANCH  18  19
ENDBRANCH  17  18
ENDBRANCH  12  17
ENDBRANCH   8  11
ENDBRANCH   1   7
BRANCH   2  22
HETATM   22  C   UNL     1     -41.858  55.751 -52.511  1.00  0.00     0.254 C 
HETATM   23  N   UNL     1     -41.036  56.253 -51.523  1.00  0.00    -0.354 N 
HETATM   24  H   UNL     1     -40.482  55.542 -51.052  1.00  0.00     0.162 HD
HETATM   25  O   UNL     1     -42.935  56.235 -52.840  1.00  0.00    -0.268 OA
BRANCH  23  26
HETATM   26  C   UNL     1     -41.542  57.298 -50.652  1.00  0.00     0.155 C 
BRANCH  26  27
HETATM   27  C   UNL     1     -40.754  58.604 -50.819  1.00  0.00     0.139 C 
HETATM   28  O   UNL     1     -41.474  59.679 -50.175  1.00  0.00    -0.384 OA
HETATM   29  C   UNL     1     -42.112  60.478 -51.181  1.00  0.00     0.168 C 
HETATM   30  C   UNL     1     -41.890  59.795 -52.515  1.00  0.00     0.029 C 
HETATM   31  C   UNL     1     -40.618  59.022 -52.274  1.00  0.00     0.035 C 
ENDBRANCH  26  27
ENDBRANCH  23  26
ENDBRANCH   2  22
TORSDOF 9
ENDMDL
MODEL 7
REMARK VINA RESULT:      -6.9      2.415      6.940
REMARK  9 active torsions:
REMARK  status: ('A' for Active; 'I' for Inactive)
REMARK    1  A    between atoms: O_2  and  C_3 
REMARK    2  A    between atoms: C_3  and  C_4 
REMARK    3  A    between atoms: C_4  and  S_5 
REMARK    4  A    between atoms: S_5  and  C_6 
REMARK    5  A    between atoms: C_7  and  C_8 
REMARK       I    between atoms: C_8  and  N_9 
REMARK    6  A    between atoms: N_9  and  C_10 
REMARK    7  A    between atoms: C_11  and  C_12 
REMARK       I    between atoms: C_12  and  N_13 
REMARK    8  A    between atoms: N_13  and  C_14 
REMARK    9  A    between atoms: C_14  and  C_15 
ROOT
HETATM    1  C   UNL     1     -41.722  53.887 -54.018  1.00  0.00     0.050 A 
HETATM    2  C   UNL     1     -41.732  53.980 -52.616  1.00  0.00     0.058 A 
HETATM    3  C   UNL     1     -40.891  53.167 -51.841  1.00  0.00     0.019 A 
HETATM    4  C   UNL     1     -40.022  52.270 -52.462  1.00  0.00     0.001 A 
HETATM    5  C   UNL     1     -39.974  52.204 -53.853  1.00  0.00     0.002 A 
HETATM    6  C   UNL     1     -40.810  53.015 -54.627  1.00  0.00     0.030 A 
ENDROOT
BRANCH   1   7
HETATM    7  N   UNL     1     -42.551  54.643 -54.873  1.00  0.00    -0.322 N 
HETATM    8  C   UNL     1     -42.235  55.903 -55.343  1.00  0.00     0.257 C 
HETATM    9  O   UNL     1     -41.361  56.640 -54.906  1.00  0.00    -0.267 OA
HETATM   10  H   UNL     1     -43.512  54.344 -54.988  1.00  0.00     0.169 HD
BRANCH   8  11
HETATM   11  C   UNL     1     -43.073  56.347 -56.475  1.00  0.00     0.049 A 
HETATM   12  C   UNL     1     -43.980  57.413 -56.383  1.00  0.00     0.016 A 
HETATM   13  C   UNL     1     -44.727  57.748 -57.521  1.00  0.00     0.019 A 
HETATM   14  C   UNL     1     -44.557  57.052 -58.724  1.00  0.00     0.001 A 
HETATM   15  C   UNL     1     -43.643  56.006 -58.806  1.00  0.00     0.001 A 
HETATM   16  C   UNL     1     -42.899  55.651 -57.683  1.00  0.00     0.018 A 
BRANCH  12  17
HETATM   17  S   UNL     1     -44.342  58.317 -54.885  1.00  0.00    -0.127 SA
BRANCH  17  18
HETATM   18  C   UNL     1     -43.699  59.977 -55.327  1.00  0.00     0.106 C 
BRANCH  18  19
HETATM   19  C   UNL     1     -42.176  60.062 -55.190  1.00  0.00     0.177 C 
BRANCH  19  20
HETATM   20  O   UNL     1     -41.463  60.260 -56.411  1.00  0.00    -0.395 OA
HETATM   21  C   UNL     1     -42.292  60.603 -57.512  1.00  0.00     0.201 C 
ENDBRANCH  19  20
ENDBRANCH  18  19
ENDBRANCH  17  18
ENDBRANCH  12  17
ENDBRANCH   8  11
ENDBRANCH   1   7
BRANCH   2  22
HETATM   22  C   UNL     1     -42.419  55.075 -51.898  1.00  0.00     0.254 C 
HETATM   23  N   UNL     1     -41.748  56.281 -51.889  1.00  0.00    -0.354 N 
HETATM   24  H   UNL     1     -40.736  56.185 -51.905  1.00  0.00     0.162 HD
HETATM   25  O   UNL     1     -43.512  54.877 -51.379  1.00  0.00    -0.268 OA
BRANCH  23  26
HETATM   26  C   UNL     1     -42.239  57.352 -51.041  1.00  0.00     0.155 C 
BRANCH  26  27
HETATM   27  C   UNL     1     -41.874  58.732 -51.605  1.00  0.00     0.139 C 
HETATM   28  O   UNL     1     -40.619  58.639 -52.314  1.00  0.00    -0.384 OA
HETATM   29  C   UNL     1     -39.584  59.211 -51.502  1.00  0.00     0.168 C 
HETATM   30  C   UNL     1     -40.197  59.563 -50.162  1.00  0.00     0.029 C 
HETATM   31  C   UNL     1     -41.648  59.768 -50.515  1.00  0.00     0.035 C 
ENDBRANCH  26  27
ENDBRANCH  23  26
ENDBRANCH   2  22
TORSDOF 9
ENDMDL
MODEL 8
REMARK VINA RESULT:      -6.9      2.300      6.804
REMARK  9 active torsions:
REMARK  status: ('A' for Active; 'I' for Inactive)
REMARK    1  A    between atoms: O_2  and  C_3 
REMARK    2  A    between atoms: C_3  and  C_4 
REMARK    3  A    between atoms: C_4  and  S_5 
REMARK    4  A    between atoms: S_5  and  C_6 
REMARK    5  A    between atoms: C_7  and  C_8 
REMARK       I    between atoms: C_8  and  N_9 
REMARK    6  A    between atoms: N_9  and  C_10 
REMARK    7  A    between atoms: C_11  and  C_12 
REMARK       I    between atoms: C_12  and  N_13 
REMARK    8  A    between atoms: N_13  and  C_14 
REMARK    9  A    between atoms: C_14  and  C_15 
ROOT
HETATM    1  C   UNL     1     -41.443  53.629 -53.828  1.00  0.00     0.050 A 
HETATM    2  C   UNL     1     -41.376  53.709 -52.427  1.00  0.00     0.058 A 
HETATM    3  C   UNL     1     -40.555  52.834 -51.700  1.00  0.00     0.019 A 
HETATM    4  C   UNL     1     -39.781  51.886 -52.369  1.00  0.00     0.001 A 
HETATM    5  C   UNL     1     -39.808  51.829 -53.761  1.00  0.00     0.002 A 
HETATM    6  C   UNL     1     -40.624  52.702 -54.488  1.00  0.00     0.030 A 
ENDROOT
BRANCH   1   7
HETATM    7  N   UNL     1     -42.260  54.447 -54.637  1.00  0.00    -0.322 N 
HETATM    8  C   UNL     1     -41.879  55.682 -55.122  1.00  0.00     0.257 C 
HETATM    9  O   UNL     1     -40.932  56.352 -54.733  1.00  0.00    -0.267 OA
HETATM   10  H   UNL     1     -43.246  54.219 -54.699  1.00  0.00     0.169 HD
BRANCH   8  11
HETATM   11  C   UNL     1     -42.743  56.191 -56.206  1.00  0.00     0.049 A 
HETATM   12  C   UNL     1     -43.512  57.358 -56.087  1.00  0.00     0.016 A 
HETATM   13  C   UNL     1     -44.299  57.747 -57.180  1.00  0.00     0.019 A 
HETATM   14  C   UNL     1     -44.302  57.005 -58.367  1.00  0.00     0.001 A 
HETATM   15  C   UNL     1     -43.523  55.856 -58.477  1.00  0.00     0.001 A 
HETATM   16  C   UNL     1     -42.742  55.447 -57.398  1.00  0.00     0.018 A 
BRANCH  12  17
HETATM   17  S   UNL     1     -43.655  58.338 -54.600  1.00  0.00    -0.127 SA
BRANCH  17  18
HETATM   18  C   UNL     1     -44.585  57.183 -53.521  1.00  0.00     0.106 C 
BRANCH  18  19
HETATM   19  C   UNL     1     -44.776  57.740 -52.106  1.00  0.00     0.177 C 
BRANCH  19  20
HETATM   20  O   UNL     1     -45.210  59.100 -52.039  1.00  0.00    -0.395 OA
HETATM   21  C   UNL     1     -45.782  59.460 -50.790  1.00  0.00     0.201 C 
ENDBRANCH  19  20
ENDBRANCH  18  19
ENDBRANCH  17  18
ENDBRANCH  12  17
ENDBRANCH   8  11
ENDBRANCH   1   7
BRANCH   2  22
HETATM   22  C   UNL     1     -41.951  54.842 -51.669  1.00  0.00     0.254 C 
HETATM   23  N   UNL     1     -41.147  55.960 -51.589  1.00  0.00    -0.354 N 
HETATM   24  H   UNL     1     -40.152  55.749 -51.591  1.00  0.00     0.162 HD
HETATM   25  O   UNL     1     -43.071  54.748 -51.180  1.00  0.00    -0.268 OA
BRANCH  23  26
HETATM   26  C   UNL     1     -41.532  57.040 -50.699  1.00  0.00     0.155 C 
BRANCH  26  27
HETATM   27  C   UNL     1     -40.567  58.230 -50.803  1.00  0.00     0.139 C 
HETATM   28  O   UNL     1     -40.885  59.191 -49.772  1.00  0.00    -0.384 OA
HETATM   29  C   UNL     1     -41.577  60.298 -50.369  1.00  0.00     0.168 C 
HETATM   30  C   UNL     1     -41.821  59.953 -51.824  1.00  0.00     0.029 C 
HETATM   31  C   UNL     1     -40.705  58.982 -52.116  1.00  0.00     0.035 C 
ENDBRANCH  26  27
ENDBRANCH  23  26
ENDBRANCH   2  22
TORSDOF 9
ENDMDL
MODEL 9
REMARK VINA RESULT:      -6.9      2.701      7.645
REMARK  9 active torsions:
REMARK  status: ('A' for Active; 'I' for Inactive)
REMARK    1  A    between atoms: O_2  and  C_3 
REMARK    2  A    between atoms: C_3  and  C_4 
REMARK    3  A    between atoms: C_4  and  S_5 
REMARK    4  A    between atoms: S_5  and  C_6 
REMARK    5  A    between atoms: C_7  and  C_8 
REMARK       I    between atoms: C_8  and  N_9 
REMARK    6  A    between atoms: N_9  and  C_10 
REMARK    7  A    between atoms: C_11  and  C_12 
REMARK       I    between atoms: C_12  and  N_13 
REMARK    8  A    between atoms: N_13  and  C_14 
REMARK    9  A    between atoms: C_14  and  C_15 
ROOT
HETATM    1  C   UNL     1     -40.970  55.070 -54.797  1.00  0.00     0.050 A 
HETATM    2  C   UNL     1     -41.158  55.338 -53.431  1.00  0.00     0.058 A 
HETATM    3  C   UNL     1     -40.920  54.345 -52.469  1.00  0.00     0.019 A 
HETATM    4  C   UNL     1     -40.474  53.084 -52.864  1.00  0.00     0.001 A 
HETATM    5  C   UNL     1     -40.242  52.823 -54.213  1.00  0.00     0.002 A 
HETATM    6  C   UNL     1     -40.477  53.813 -55.173  1.00  0.00     0.030 A 
ENDROOT
BRANCH   1   7
HETATM    7  N   UNL     1     -41.210  55.996 -55.833  1.00  0.00    -0.322 N 
HETATM    8  C   UNL     1     -42.468  56.418 -56.217  1.00  0.00     0.257 C 
HETATM    9  O   UNL     1     -43.531  55.888 -55.923  1.00  0.00    -0.267 OA
HETATM   10  H   UNL     1     -40.447  56.211 -56.464  1.00  0.00     0.169 HD
BRANCH   8  11
HETATM   11  C   UNL     1     -42.460  57.625 -57.069  1.00  0.00     0.049 A 
HETATM   12  C   UNL     1     -42.642  57.580 -58.459  1.00  0.00     0.016 A 
HETATM   13  C   UNL     1     -42.613  58.788 -59.171  1.00  0.00     0.019 A 
HETATM   14  C   UNL     1     -42.429  60.008 -58.511  1.00  0.00     0.001 A 
HETATM   15  C   UNL     1     -42.264  60.040 -57.128  1.00  0.00     0.001 A 
HETATM   16  C   UNL     1     -42.279  58.850 -56.405  1.00  0.00     0.018 A 
BRANCH  12  17
HETATM   17  S   UNL     1     -42.801  56.081 -59.420  1.00  0.00    -0.127 SA
BRANCH  17  18
HETATM   18  C   UNL     1     -44.626  55.959 -59.556  1.00  0.00     0.106 C 
BRANCH  18  19
HETATM   19  C   UNL     1     -45.060  55.078 -60.732  1.00  0.00     0.177 C 
BRANCH  19  20
HETATM   20  O   UNL     1     -46.164  55.574 -61.491  1.00  0.00    -0.395 OA
HETATM   21  C   UNL     1     -47.089  56.336 -60.730  1.00  0.00     0.201 C 
ENDBRANCH  19  20
ENDBRANCH  18  19
ENDBRANCH  17  18
ENDBRANCH  12  17
ENDBRANCH   8  11
ENDBRANCH   1   7
BRANCH   2  22
HETATM   22  C   UNL     1     -41.370  56.708 -52.913  1.00  0.00     0.254 C 
HETATM   23  N   UNL     1     -42.317  56.816 -51.916  1.00  0.00    -0.354 N 
HETATM   24  H   UNL     1     -43.069  56.136 -51.992  1.00  0.00     0.162 HD
HETATM   25  O   UNL     1     -40.712  57.641 -53.360  1.00  0.00    -0.268 OA
BRANCH  23  26
HETATM   26  C   UNL     1     -42.741  58.138 -51.491  1.00  0.00     0.155 C 
BRANCH  26  27
HETATM   27  C   UNL     1     -44.256  58.326 -51.654  1.00  0.00     0.139 C 
HETATM   28  O   UNL     1     -44.717  57.525 -52.764  1.00  0.00    -0.384 OA
HETATM   29  C   UNL     1     -44.957  58.385 -53.888  1.00  0.00     0.168 C 
HETATM   30  C   UNL     1     -44.499  59.777 -53.504  1.00  0.00     0.029 C 
HETATM   31  C   UNL     1     -44.633  59.757 -52.002  1.00  0.00     0.035 C 
ENDBRANCH  26  27
ENDBRANCH  23  26
ENDBRANCH   2  22
TORSDOF 9
ENDMDL
MODEL 10
REMARK VINA RESULT:      -6.9      2.360      5.351
REMARK  9 active torsions:
REMARK  status: ('A' for Active; 'I' for Inactive)
REMARK    1  A    between atoms: O_2  and  C_3 
REMARK    2  A    between atoms: C_3  and  C_4 
REMARK    3  A    between atoms: C_4  and  S_5 
REMARK    4  A    between atoms: S_5  and  C_6 
REMARK    5  A    between atoms: C_7  and  C_8 
REMARK       I    between atoms: C_8  and  N_9 
REMARK    6  A    between atoms: N_9  and  C_10 
REMARK    7  A    between atoms: C_11  and  C_12 
REMARK       I    between atoms: C_12  and  N_13 
REMARK    8  A    between atoms: N_13  and  C_14 
REMARK    9  A    between atoms: C_14  and  C_15 
ROOT
HETATM    1  C   UNL     1     -40.976  54.441 -52.917  1.00  0.00     0.050 A 
HETATM    2  C   UNL     1     -41.395  53.809 -54.100  1.00  0.00     0.058 A 
HETATM    3  C   UNL     1     -41.052  52.472 -54.354  1.00  0.00     0.019 A 
HETATM    4  C   UNL     1     -40.306  51.753 -53.421  1.00  0.00     0.001 A 
HETATM    5  C   UNL     1     -39.925  52.359 -52.225  1.00  0.00     0.002 A 
HETATM    6  C   UNL     1     -40.267  53.690 -51.969  1.00  0.00     0.030 A 
ENDROOT
BRANCH   1   7
HETATM    7  N   UNL     1     -41.250  55.786 -52.591  1.00  0.00    -0.322 N 
HETATM    8  C   UNL     1     -42.082  56.179 -51.561  1.00  0.00     0.257 C 
HETATM    9  O   UNL     1     -42.883  55.470 -50.967  1.00  0.00    -0.267 OA
HETATM   10  H   UNL     1     -40.993  56.498 -53.265  1.00  0.00     0.169 HD
BRANCH   8  11
HETATM   11  C   UNL     1     -41.947  57.603 -51.195  1.00  0.00     0.049 A 
HETATM   12  C   UNL     1     -42.952  58.552 -51.435  1.00  0.00     0.016 A 
HETATM   13  C   UNL     1     -42.717  59.879 -51.048  1.00  0.00     0.019 A 
HETATM   14  C   UNL     1     -41.521  60.245 -50.419  1.00  0.00     0.001 A 
HETATM   15  C   UNL     1     -40.538  59.290 -50.173  1.00  0.00     0.001 A 
HETATM   16  C   UNL     1     -40.748  57.969 -50.560  1.00  0.00     0.018 A 
BRANCH  12  17
HETATM   17  S   UNL     1     -44.479  58.223 -52.303  1.00  0.00    -0.127 SA
BRANCH  17  18
HETATM   18  C   UNL     1     -45.146  59.924 -52.471  1.00  0.00     0.106 C 
BRANCH  18  19
HETATM   19  C   UNL     1     -46.315  60.183 -51.515  1.00  0.00     0.177 C 
BRANCH  19  20
HETATM   20  O   UNL     1     -46.121  59.726 -50.176  1.00  0.00    -0.395 OA
HETATM   21  C   UNL     1     -45.681  60.737 -49.281  1.00  0.00     0.201 C 
ENDBRANCH  19  20
ENDBRANCH  18  19
ENDBRANCH  17  18
ENDBRANCH  12  17
ENDBRANCH   8  11
ENDBRANCH   1   7
BRANCH   2  22
HETATM   22  C   UNL     1     -42.399  54.406 -55.007  1.00  0.00     0.254 C 
HETATM   23  N   UNL     1     -41.895  54.901 -56.192  1.00  0.00    -0.354 N 
HETATM   24  H   UNL     1     -40.945  55.254 -56.117  1.00  0.00     0.162 HD
HETATM   25  O   UNL     1     -43.583  54.420 -54.688  1.00  0.00    -0.268 OA
BRANCH  23  26
HETATM   26  C   UNL     1     -42.763  55.686 -57.051  1.00  0.00     0.155 C 
BRANCH  26  27
HETATM   27  C   UNL     1     -42.676  57.184 -56.727  1.00  0.00     0.139 C 
HETATM   28  O   UNL     1     -43.955  57.638 -56.233  1.00  0.00    -0.384 OA
HETATM   29  C   UNL     1     -44.617  58.376 -57.270  1.00  0.00     0.168 C 
HETATM   30  C   UNL     1     -43.768  58.267 -58.520  1.00  0.00     0.029 C 
HETATM   31  C   UNL     1     -42.390  58.032 -57.955  1.00  0.00     0.035 C 
ENDBRANCH  26  27
ENDBRANCH  23  26
ENDBRANCH   2  22
TORSDOF 9
ENDMDL
