MODEL 1
REMARK VINA RESULT:      -7.1      0.000      0.000
REMARK  6 active torsions:
REMARK  status: ('A' for Active; 'I' for Inactive)
REMARK    1  A    between atoms: C_8  and  N_9 
REMARK       I    between atoms: N_9  and  C_10 
REMARK    2  A    between atoms: C_10  and  C_11 
REMARK    3  A    between atoms: C_11  and  N_12 
REMARK    4  A    between atoms: N_12  and  C_13 
REMARK    5  A    between atoms: C_13  and  C_14 
REMARK    6  A    between atoms: C_13  and  C_17 
ROOT
HETATM    1  C   UNL     1     -42.922  54.880 -50.758  1.00  0.00     0.372 C 
ENDROOT
BRANCH   1   2
HETATM    2  C   UNL     1     -43.534  56.281 -50.866  1.00  0.00     0.250 C 
HETATM    3  N   UNL     1     -42.611  57.209 -51.301  1.00  0.00    -0.322 N 
HETATM    4  H   UNL     1     -41.655  56.872 -51.349  1.00  0.00     0.169 HD
HETATM    5  O   UNL     1     -44.721  56.468 -50.621  1.00  0.00    -0.271 OA
BRANCH   3   6
HETATM    6  C   UNL     1     -42.829  58.535 -51.630  1.00  0.00     0.085 A 
HETATM    7  C   UNL     1     -42.093  59.553 -51.050  1.00  0.00     0.052 A 
HETATM    8  C   UNL     1     -41.002  59.556 -50.049  1.00  0.00     0.072 C 
HETATM    9  N   UNL     1     -42.559  60.711 -51.602  1.00  0.00    -0.280 N 
HETATM   10  H   UNL     1     -42.253  61.662 -51.417  1.00  0.00     0.189 HD
HETATM   11  N   UNL     1     -43.531  60.532 -52.498  1.00  0.00    -0.177 NA
HETATM   12  C   UNL     1     -43.709  59.202 -52.534  1.00  0.00     0.079 A 
HETATM   13  C   UNL     1     -44.734  58.663 -53.462  1.00  0.00     0.075 C 
ENDBRANCH   3   6
ENDBRANCH   1   2
BRANCH   1  14
HETATM   14  N   UNL     1     -42.992  54.197 -52.065  1.00  0.00     0.101 N 
HETATM   15  H   UNL     1     -43.798  54.565 -52.572  1.00  0.00     0.317 HD
BRANCH  14  16
HETATM   16  C   UNL     1     -41.764  54.412 -52.865  1.00  0.00     0.259 C 
BRANCH  16  17
HETATM   17  C   UNL     1     -42.006  55.085 -54.256  1.00  0.00     0.015 C 
HETATM   18  C   UNL     1     -43.480  55.318 -54.612  1.00  0.00     0.012 C 
HETATM   19  C   UNL     1     -41.242  56.407 -54.393  1.00  0.00     0.012 C 
ENDBRANCH  16  17
BRANCH  16  20
HETATM   20  C   UNL     1     -40.976  53.107 -53.015  1.00  0.00    -0.003 A 
HETATM   21  C   UNL     1     -40.051  52.676 -52.043  1.00  0.00     0.042 A 
HETATM   22 CL   UNL     1     -39.756  53.563 -50.586  1.00  0.00    -0.084 Cl
HETATM   23  C   UNL     1     -39.315  51.498 -52.223  1.00  0.00     0.024 A 
HETATM   24  C   UNL     1     -39.479  50.733 -53.375  1.00  0.00     0.002 A 
HETATM   25  C   UNL     1     -40.380  51.141 -54.350  1.00  0.00     0.001 A 
HETATM   26  C   UNL     1     -41.121  52.313 -54.173  1.00  0.00     0.011 A 
ENDBRANCH  16  20
ENDBRANCH  14  16
ENDBRANCH   1  14
TORSDOF 6
ENDMDL
MODEL 2
REMARK VINA RESULT:      -7.1      1.924      2.086
REMARK  6 active torsions:
REMARK  status: ('A' for Active; 'I' for Inactive)
REMARK    1  A    between atoms: C_8  and  N_9 
REMARK       I    between atoms: N_9  and  C_10 
REMARK    2  A    between atoms: C_10  and  C_11 
REMARK    3  A    between atoms: C_11  and  N_12 
REMARK    4  A    between atoms: N_12  and  C_13 
REMARK    5  A    between atoms: C_13  and  C_14 
REMARK    6  A    between atoms: C_13  and  C_17 
ROOT
HETATM    1  C   UNL     1     -42.690  54.744 -51.612  1.00  0.00     0.372 C 
ENDROOT
BRANCH   1   2
HETATM    2  C   UNL     1     -42.801  56.180 -52.137  1.00  0.00     0.250 C 
HETATM    3  N   UNL     1     -44.027  56.413 -52.726  1.00  0.00    -0.322 N 
HETATM    4  H   UNL     1     -44.606  55.589 -52.853  1.00  0.00     0.169 HD
HETATM    5  O   UNL     1     -41.887  56.980 -51.974  1.00  0.00    -0.271 OA
BRANCH   3   6
HETATM    6  C   UNL     1     -44.527  57.614 -53.197  1.00  0.00     0.085 A 
HETATM    7  C   UNL     1     -45.044  58.567 -52.338  1.00  0.00     0.052 A 
HETATM    8  C   UNL     1     -45.203  58.609 -50.866  1.00  0.00     0.072 C 
HETATM    9  N   UNL     1     -45.432  59.611 -53.128  1.00  0.00    -0.280 N 
HETATM   10  H   UNL     1     -45.854  60.489 -52.844  1.00  0.00     0.189 HD
HETATM   11  N   UNL     1     -45.204  59.420 -54.428  1.00  0.00    -0.177 NA
HETATM   12  C   UNL     1     -44.643  58.201 -54.492  1.00  0.00     0.079 A 
HETATM   13  C   UNL     1     -44.251  57.687 -55.828  1.00  0.00     0.075 C 
ENDBRANCH   3   6
ENDBRANCH   1   2
BRANCH   1  14
HETATM   14  N   UNL     1     -42.588  53.800 -52.743  1.00  0.00     0.101 N 
HETATM   15  H   UNL     1     -43.239  54.103 -53.468  1.00  0.00     0.317 HD
BRANCH  14  16
HETATM   16  C   UNL     1     -41.215  53.754 -53.299  1.00  0.00     0.259 C 
BRANCH  16  17
HETATM   17  C   UNL     1     -41.091  54.295 -54.761  1.00  0.00     0.015 C 
HETATM   18  C   UNL     1     -42.425  54.481 -55.497  1.00  0.00     0.012 C 
HETATM   19  C   UNL     1     -40.297  55.605 -54.822  1.00  0.00     0.012 C 
ENDBRANCH  16  17
BRANCH  16  20
HETATM   20  C   UNL     1     -40.627  52.345 -53.182  1.00  0.00    -0.003 A 
HETATM   21  C   UNL     1     -40.013  51.888 -51.999  1.00  0.00     0.042 A 
HETATM   22 CL   UNL     1     -39.905  52.863 -50.574  1.00  0.00    -0.084 Cl
HETATM   23  C   UNL     1     -39.448  50.608 -51.930  1.00  0.00     0.024 A 
HETATM   24  C   UNL     1     -39.476  49.764 -53.038  1.00  0.00     0.002 A 
HETATM   25  C   UNL     1     -40.071  50.195 -54.217  1.00  0.00     0.001 A 
HETATM   26  C   UNL     1     -40.640  51.469 -54.288  1.00  0.00     0.011 A 
ENDBRANCH  16  20
ENDBRANCH  14  16
ENDBRANCH   1  14
TORSDOF 6
ENDMDL
MODEL 3
REMARK VINA RESULT:      -7.0      3.909      5.242
REMARK  6 active torsions:
REMARK  status: ('A' for Active; 'I' for Inactive)
REMARK    1  A    between atoms: C_8  and  N_9 
REMARK       I    between atoms: N_9  and  C_10 
REMARK    2  A    between atoms: C_10  and  C_11 
REMARK    3  A    between atoms: C_11  and  N_12 
REMARK    4  A    between atoms: N_12  and  C_13 
REMARK    5  A    between atoms: C_13  and  C_14 
REMARK    6  A    between atoms: C_13  and  C_17 
ROOT
HETATM    1  C   UNL     1     -43.909  55.938 -54.636  1.00  0.00     0.372 C 
ENDROOT
BRANCH   1   2
HETATM    2  C   UNL     1     -43.217  55.704 -55.984  1.00  0.00     0.250 C 
HETATM    3  N   UNL     1     -43.849  56.382 -57.006  1.00  0.00    -0.322 N 
HETATM    4  H   UNL     1     -44.735  56.809 -56.754  1.00  0.00     0.169 HD
HETATM    5  O   UNL     1     -42.203  55.020 -56.057  1.00  0.00    -0.271 OA
BRANCH   3   6
HETATM    6  C   UNL     1     -43.442  56.505 -58.322  1.00  0.00     0.085 A 
HETATM    7  C   UNL     1     -42.622  57.542 -58.730  1.00  0.00     0.052 A 
HETATM    8  C   UNL     1     -42.007  58.678 -58.006  1.00  0.00     0.072 C 
HETATM    9  N   UNL     1     -42.416  57.352 -60.066  1.00  0.00    -0.280 N 
HETATM   10  H   UNL     1     -41.863  57.917 -60.702  1.00  0.00     0.189 HD
HETATM   11  N   UNL     1     -43.027  56.274 -60.560  1.00  0.00    -0.177 NA
HETATM   12  C   UNL     1     -43.658  55.736 -59.504  1.00  0.00     0.079 A 
HETATM   13  C   UNL     1     -44.437  54.491 -59.721  1.00  0.00     0.075 C 
ENDBRANCH   3   6
ENDBRANCH   1   2
BRANCH   1  14
HETATM   14  N   UNL     1     -43.723  54.763 -53.762  1.00  0.00     0.101 N 
HETATM   15  H   UNL     1     -43.258  54.035 -54.306  1.00  0.00     0.317 HD
BRANCH  14  16
HETATM   16  C   UNL     1     -42.905  55.088 -52.570  1.00  0.00     0.259 C 
BRANCH  16  17
HETATM   17  C   UNL     1     -42.285  56.524 -52.582  1.00  0.00     0.015 C 
HETATM   18  C   UNL     1     -42.400  57.288 -51.256  1.00  0.00     0.012 C 
HETATM   19  C   UNL     1     -40.819  56.512 -53.029  1.00  0.00     0.012 C 
ENDBRANCH  16  17
BRANCH  16  20
HETATM   20  C   UNL     1     -41.827  54.025 -52.342  1.00  0.00    -0.003 A 
HETATM   21  C   UNL     1     -41.353  53.706 -51.054  1.00  0.00     0.042 A 
HETATM   22 CL   UNL     1     -41.972  54.459 -49.625  1.00  0.00    -0.084 Cl
HETATM   23  C   UNL     1     -40.338  52.757 -50.876  1.00  0.00     0.024 A 
HETATM   24  C   UNL     1     -39.772  52.115 -51.976  1.00  0.00     0.002 A 
HETATM   25  C   UNL     1     -40.219  52.418 -53.256  1.00  0.00     0.001 A 
HETATM   26  C   UNL     1     -41.234  53.361 -53.437  1.00  0.00     0.011 A 
ENDBRANCH  16  20
ENDBRANCH  14  16
ENDBRANCH   1  14
TORSDOF 6
ENDMDL
MODEL 4
REMARK VINA RESULT:      -7.0      3.234      5.484
REMARK  6 active torsions:
REMARK  status: ('A' for Active; 'I' for Inactive)
REMARK    1  A    between atoms: C_8  and  N_9 
REMARK       I    between atoms: N_9  and  C_10 
REMARK    2  A    between atoms: C_10  and  C_11 
REMARK    3  A    between atoms: C_11  and  N_12 
REMARK    4  A    between atoms: N_12  and  C_13 
REMARK    5  A    between atoms: C_13  and  C_14 
REMARK    6  A    between atoms: C_13  and  C_17 
ROOT
HETATM    1  C   UNL     1     -41.051  54.019 -55.036  1.00  0.00     0.372 C 
ENDROOT
BRANCH   1   2
HETATM    2  C   UNL     1     -42.371  54.543 -55.613  1.00  0.00     0.250 C 
HETATM    3  N   UNL     1     -42.192  55.724 -56.303  1.00  0.00    -0.322 N 
HETATM    4  H   UNL     1     -41.270  56.138 -56.213  1.00  0.00     0.169 HD
HETATM    5  O   UNL     1     -43.411  53.910 -55.473  1.00  0.00    -0.271 OA
BRANCH   3   6
HETATM    6  C   UNL     1     -43.125  56.418 -57.054  1.00  0.00     0.085 A 
HETATM    7  C   UNL     1     -44.067  57.237 -56.456  1.00  0.00     0.052 A 
HETATM    8  C   UNL     1     -44.340  57.585 -55.043  1.00  0.00     0.072 C 
HETATM    9  N   UNL     1     -44.806  57.762 -57.477  1.00  0.00    -0.280 N 
HETATM   10  H   UNL     1     -45.586  58.408 -57.418  1.00  0.00     0.189 HD
HETATM   11  N   UNL     1     -44.419  57.359 -58.688  1.00  0.00    -0.177 NA
HETATM   12  C   UNL     1     -43.384  56.537 -58.452  1.00  0.00     0.079 A 
HETATM   13  C   UNL     1     -42.707  55.919 -59.619  1.00  0.00     0.075 C 
ENDBRANCH   3   6
ENDBRANCH   1   2
BRANCH   1  14
HETATM   14  N   UNL     1     -41.316  53.173 -53.856  1.00  0.00     0.101 N 
HETATM   15  H   UNL     1     -40.800  52.299 -53.971  1.00  0.00     0.317 HD
BRANCH  14  16
HETATM   16  C   UNL     1     -40.894  53.834 -52.599  1.00  0.00     0.259 C 
BRANCH  16  17
HETATM   17  C   UNL     1     -40.284  52.866 -51.532  1.00  0.00     0.015 C 
HETATM   18  C   UNL     1     -39.362  51.779 -52.098  1.00  0.00     0.012 C 
HETATM   19  C   UNL     1     -39.543  53.627 -50.425  1.00  0.00     0.012 C 
ENDBRANCH  16  17
BRANCH  16  20
HETATM   20  C   UNL     1     -42.041  54.656 -52.004  1.00  0.00    -0.003 A 
HETATM   21  C   UNL     1     -42.117  56.055 -52.161  1.00  0.00     0.042 A 
HETATM   22 CL   UNL     1     -40.945  56.951 -53.065  1.00  0.00    -0.084 Cl
HETATM   23  C   UNL     1     -43.156  56.788 -51.574  1.00  0.00     0.024 A 
HETATM   24  C   UNL     1     -44.132  56.146 -50.816  1.00  0.00     0.002 A 
HETATM   25  C   UNL     1     -44.075  54.769 -50.643  1.00  0.00     0.001 A 
HETATM   26  C   UNL     1     -43.043  54.033 -51.230  1.00  0.00     0.011 A 
ENDBRANCH  16  20
ENDBRANCH  14  16
ENDBRANCH   1  14
TORSDOF 6
ENDMDL
MODEL 5
REMARK VINA RESULT:      -6.8      2.085      2.954
REMARK  6 active torsions:
REMARK  status: ('A' for Active; 'I' for Inactive)
REMARK    1  A    between atoms: C_8  and  N_9 
REMARK       I    between atoms: N_9  and  C_10 
REMARK    2  A    between atoms: C_10  and  C_11 
REMARK    3  A    between atoms: C_11  and  N_12 
REMARK    4  A    between atoms: N_12  and  C_13 
REMARK    5  A    between atoms: C_13  and  C_14 
REMARK    6  A    between atoms: C_13  and  C_17 
ROOT
HETATM    1  C   UNL     1     -41.487  56.763 -53.779  1.00  0.00     0.372 C 
ENDROOT
BRANCH   1   2
HETATM    2  C   UNL     1     -41.611  58.254 -53.445  1.00  0.00     0.250 C 
HETATM    3  N   UNL     1     -42.523  58.476 -52.434  1.00  0.00    -0.322 N 
HETATM    4  H   UNL     1     -43.069  57.664 -52.164  1.00  0.00     0.169 HD
HETATM    5  O   UNL     1     -40.916  59.085 -54.019  1.00  0.00    -0.271 OA
BRANCH   3   6
HETATM    6  C   UNL     1     -42.806  59.668 -51.792  1.00  0.00     0.085 A 
HETATM    7  C   UNL     1     -42.009  60.141 -50.764  1.00  0.00     0.052 A 
HETATM    8  C   UNL     1     -40.786  59.610 -50.119  1.00  0.00     0.072 C 
HETATM    9  N   UNL     1     -42.566  61.325 -50.375  1.00  0.00    -0.280 N 
HETATM   10  H   UNL     1     -42.250  61.956 -49.645  1.00  0.00     0.189 HD
HETATM   11  N   UNL     1     -43.653  61.666 -51.068  1.00  0.00    -0.177 NA
HETATM   12  C   UNL     1     -43.815  60.665 -51.948  1.00  0.00     0.079 A 
HETATM   13  C   UNL     1     -44.955  60.750 -52.895  1.00  0.00     0.075 C 
ENDBRANCH   3   6
ENDBRANCH   1   2
BRANCH   1  14
HETATM   14  N   UNL     1     -40.897  56.037 -52.637  1.00  0.00     0.101 N 
HETATM   15  H   UNL     1     -40.859  56.676 -51.842  1.00  0.00     0.317 HD
BRANCH  14  16
HETATM   16  C   UNL     1     -41.695  54.843 -52.273  1.00  0.00     0.259 C 
BRANCH  16  17
HETATM   17  C   UNL     1     -42.116  54.779 -50.768  1.00  0.00     0.015 C 
HETATM   18  C   UNL     1     -41.540  55.897 -49.888  1.00  0.00     0.012 C 
HETATM   19  C   UNL     1     -43.639  54.742 -50.600  1.00  0.00     0.012 C 
ENDBRANCH  16  17
BRANCH  16  20
HETATM   20  C   UNL     1     -40.978  53.558 -52.699  1.00  0.00    -0.003 A 
HETATM   21  C   UNL     1     -41.221  52.945 -53.944  1.00  0.00     0.042 A 
HETATM   22 CL   UNL     1     -42.319  53.608 -55.106  1.00  0.00    -0.084 Cl
HETATM   23  C   UNL     1     -40.581  51.749 -54.294  1.00  0.00     0.024 A 
HETATM   24  C   UNL     1     -39.695  51.139 -53.409  1.00  0.00     0.002 A 
HETATM   25  C   UNL     1     -39.444  51.722 -52.174  1.00  0.00     0.001 A 
HETATM   26  C   UNL     1     -40.077  52.917 -51.823  1.00  0.00     0.011 A 
ENDBRANCH  16  20
ENDBRANCH  14  16
ENDBRANCH   1  14
TORSDOF 6
ENDMDL
MODEL 6
REMARK VINA RESULT:      -6.7      4.068      6.296
REMARK  6 active torsions:
REMARK  status: ('A' for Active; 'I' for Inactive)
REMARK    1  A    between atoms: C_8  and  N_9 
REMARK       I    between atoms: N_9  and  C_10 
REMARK    2  A    between atoms: C_10  and  C_11 
REMARK    3  A    between atoms: C_11  and  N_12 
REMARK    4  A    between atoms: N_12  and  C_13 
REMARK    5  A    between atoms: C_13  and  C_14 
REMARK    6  A    between atoms: C_13  and  C_17 
ROOT
HETATM    1  C   UNL     1     -42.479  54.513 -55.363  1.00  0.00     0.372 C 
ENDROOT
BRANCH   1   2
HETATM    2  C   UNL     1     -42.904  55.683 -56.256  1.00  0.00     0.250 C 
HETATM    3  N   UNL     1     -42.682  55.413 -57.591  1.00  0.00    -0.322 N 
HETATM    4  H   UNL     1     -42.154  54.566 -57.774  1.00  0.00     0.169 HD
HETATM    5  O   UNL     1     -43.414  56.688 -55.773  1.00  0.00    -0.271 OA
BRANCH   3   6
HETATM    6  C   UNL     1     -43.050  56.177 -58.684  1.00  0.00     0.085 A 
HETATM    7  C   UNL     1     -43.910  55.686 -59.651  1.00  0.00     0.052 A 
HETATM    8  C   UNL     1     -44.608  54.389 -59.805  1.00  0.00     0.072 C 
HETATM    9  N   UNL     1     -44.059  56.691 -60.562  1.00  0.00    -0.280 N 
HETATM   10  H   UNL     1     -44.620  56.692 -61.408  1.00  0.00     0.189 HD
HETATM   11  N   UNL     1     -43.375  57.797 -60.266  1.00  0.00    -0.177 NA
HETATM   12  C   UNL     1     -42.752  57.505 -59.113  1.00  0.00     0.079 A 
HETATM   13  C   UNL     1     -41.901  58.554 -58.498  1.00  0.00     0.075 C 
ENDBRANCH   3   6
ENDBRANCH   1   2
BRANCH   1  14
HETATM   14  N   UNL     1     -41.047  54.631 -55.023  1.00  0.00     0.101 N 
HETATM   15  H   UNL     1     -40.747  55.581 -55.242  1.00  0.00     0.317 HD
BRANCH  14  16
HETATM   16  C   UNL     1     -40.796  54.351 -53.590  1.00  0.00     0.259 C 
BRANCH  16  17
HETATM   17  C   UNL     1     -40.719  52.831 -53.230  1.00  0.00     0.015 C 
HETATM   18  C   UNL     1     -40.228  51.923 -54.366  1.00  0.00     0.012 C 
HETATM   19  C   UNL     1     -39.866  52.579 -51.981  1.00  0.00     0.012 C 
ENDBRANCH  16  17
BRANCH  16  20
HETATM   20  C   UNL     1     -41.817  55.075 -52.706  1.00  0.00    -0.003 A 
HETATM   21  C   UNL     1     -41.827  56.477 -52.572  1.00  0.00     0.042 A 
HETATM   22 CL   UNL     1     -40.714  57.498 -53.418  1.00  0.00    -0.084 Cl
HETATM   23  C   UNL     1     -42.746  57.112 -51.727  1.00  0.00     0.024 A 
HETATM   24  C   UNL     1     -43.666  56.363 -50.997  1.00  0.00     0.002 A 
HETATM   25  C   UNL     1     -43.671  54.979 -51.109  1.00  0.00     0.001 A 
HETATM   26  C   UNL     1     -42.758  54.342 -51.954  1.00  0.00     0.011 A 
ENDBRANCH  16  20
ENDBRANCH  14  16
ENDBRANCH   1  14
TORSDOF 6
ENDMDL
MODEL 7
REMARK VINA RESULT:      -6.7      3.117      6.592
REMARK  6 active torsions:
REMARK  status: ('A' for Active; 'I' for Inactive)
REMARK    1  A    between atoms: C_8  and  N_9 
REMARK       I    between atoms: N_9  and  C_10 
REMARK    2  A    between atoms: C_10  and  C_11 
REMARK    3  A    between atoms: C_11  and  N_12 
REMARK    4  A    between atoms: N_12  and  C_13 
REMARK    5  A    between atoms: C_13  and  C_14 
REMARK    6  A    between atoms: C_13  and  C_17 
ROOT
HETATM    1  C   UNL     1     -42.057  54.700 -55.797  1.00  0.00     0.372 C 
ENDROOT
BRANCH   1   2
HETATM    2  C   UNL     1     -40.909  54.159 -54.937  1.00  0.00     0.250 C 
HETATM    3  N   UNL     1     -41.316  53.102 -54.150  1.00  0.00    -0.322 N 
HETATM    4  H   UNL     1     -42.317  52.932 -54.145  1.00  0.00     0.169 HD
HETATM    5  O   UNL     1     -39.781  54.632 -55.027  1.00  0.00    -0.271 OA
BRANCH   3   6
HETATM    6  C   UNL     1     -40.535  52.293 -53.345  1.00  0.00     0.085 A 
HETATM    7  C   UNL     1     -40.178  52.677 -52.064  1.00  0.00     0.052 A 
HETATM    8  C   UNL     1     -40.472  53.887 -51.262  1.00  0.00     0.072 C 
HETATM    9  N   UNL     1     -39.427  51.653 -51.563  1.00  0.00    -0.280 N 
HETATM   10  H   UNL     1     -38.994  51.582 -50.648  1.00  0.00     0.189 HD
HETATM   11  N   UNL     1     -39.271  50.632 -52.407  1.00  0.00    -0.177 NA
HETATM   12  C   UNL     1     -39.949  51.002 -53.506  1.00  0.00     0.079 A 
HETATM   13  C   UNL     1     -39.982  50.059 -54.652  1.00  0.00     0.075 C 
ENDBRANCH   3   6
ENDBRANCH   1   2
BRANCH   1  14
HETATM   14  N   UNL     1     -41.905  56.157 -55.984  1.00  0.00     0.101 N 
HETATM   15  H   UNL     1     -42.106  56.373 -56.961  1.00  0.00     0.317 HD
BRANCH  14  16
HETATM   16  C   UNL     1     -42.822  56.923 -55.108  1.00  0.00     0.259 C 
BRANCH  16  17
HETATM   17  C   UNL     1     -43.572  58.095 -55.824  1.00  0.00     0.015 C 
HETATM   18  C   UNL     1     -43.869  57.859 -57.310  1.00  0.00     0.012 C 
HETATM   19  C   UNL     1     -44.874  58.467 -55.104  1.00  0.00     0.012 C 
ENDBRANCH  16  17
BRANCH  16  20
HETATM   20  C   UNL     1     -42.094  57.419 -53.856  1.00  0.00    -0.003 A 
HETATM   21  C   UNL     1     -42.342  56.871 -52.581  1.00  0.00     0.042 A 
HETATM   22 CL   UNL     1     -43.460  55.574 -52.331  1.00  0.00    -0.084 Cl
HETATM   23  C   UNL     1     -41.691  57.369 -51.446  1.00  0.00     0.024 A 
HETATM   24  C   UNL     1     -40.788  58.424 -51.556  1.00  0.00     0.002 A 
HETATM   25  C   UNL     1     -40.531  58.984 -52.801  1.00  0.00     0.001 A 
HETATM   26  C   UNL     1     -41.176  58.487 -53.938  1.00  0.00     0.011 A 
ENDBRANCH  16  20
ENDBRANCH  14  16
ENDBRANCH   1  14
TORSDOF 6
ENDMDL
MODEL 8
REMARK VINA RESULT:      -6.6      4.057      5.749
REMARK  6 active torsions:
REMARK  status: ('A' for Active; 'I' for Inactive)
REMARK    1  A    between atoms: C_8  and  N_9 
REMARK       I    between atoms: N_9  and  C_10 
REMARK    2  A    between atoms: C_10  and  C_11 
REMARK    3  A    between atoms: C_11  and  N_12 
REMARK    4  A    between atoms: N_12  and  C_13 
REMARK    5  A    between atoms: C_13  and  C_14 
REMARK    6  A    between atoms: C_13  and  C_17 
ROOT
HETATM    1  C   UNL     1     -43.448  56.001 -54.615  1.00  0.00     0.372 C 
ENDROOT
BRANCH   1   2
HETATM    2  C   UNL     1     -42.900  55.743 -56.023  1.00  0.00     0.250 C 
HETATM    3  N   UNL     1     -43.656  56.378 -56.988  1.00  0.00    -0.322 N 
HETATM    4  H   UNL     1     -44.519  56.792 -56.652  1.00  0.00     0.169 HD
HETATM    5  O   UNL     1     -41.883  55.080 -56.190  1.00  0.00    -0.271 OA
BRANCH   3   6
HETATM    6  C   UNL     1     -43.397  56.472 -58.344  1.00  0.00     0.085 A 
HETATM    7  C   UNL     1     -42.651  57.515 -58.866  1.00  0.00     0.052 A 
HETATM    8  C   UNL     1     -41.990  58.684 -58.242  1.00  0.00     0.072 C 
HETATM    9  N   UNL     1     -42.587  57.291 -60.210  1.00  0.00    -0.280 N 
HETATM   10  H   UNL     1     -42.120  57.849 -60.918  1.00  0.00     0.189 HD
HETATM   11  N   UNL     1     -43.221  56.186 -60.607  1.00  0.00    -0.177 NA
HETATM   12  C   UNL     1     -43.721  55.665 -59.475  1.00  0.00     0.079 A 
HETATM   13  C   UNL     1     -44.488  54.398 -59.573  1.00  0.00     0.075 C 
ENDBRANCH   3   6
ENDBRANCH   1   2
BRANCH   1  14
HETATM   14  N   UNL     1     -42.333  56.218 -53.672  1.00  0.00     0.101 N 
HETATM   15  H   UNL     1     -42.049  57.196 -53.738  1.00  0.00     0.317 HD
BRANCH  14  16
HETATM   16  C   UNL     1     -42.725  55.911 -52.276  1.00  0.00     0.259 C 
BRANCH  16  17
HETATM   17  C   UNL     1     -43.153  57.157 -51.434  1.00  0.00     0.015 C 
HETATM   18  C   UNL     1     -42.689  58.507 -51.997  1.00  0.00     0.012 C 
HETATM   19  C   UNL     1     -44.669  57.202 -51.207  1.00  0.00     0.012 C 
ENDBRANCH  16  17
BRANCH  16  20
HETATM   20  C   UNL     1     -41.627  55.116 -51.564  1.00  0.00    -0.003 A 
HETATM   21  C   UNL     1     -41.168  53.875 -52.049  1.00  0.00     0.042 A 
HETATM   22 CL   UNL     1     -41.779  53.165 -53.504  1.00  0.00    -0.084 Cl
HETATM   23  C   UNL     1     -40.189  53.150 -51.358  1.00  0.00     0.024 A 
HETATM   24  C   UNL     1     -39.656  53.642 -50.169  1.00  0.00     0.002 A 
HETATM   25  C   UNL     1     -40.097  54.860 -49.668  1.00  0.00     0.001 A 
HETATM   26  C   UNL     1     -41.070  55.589 -50.357  1.00  0.00     0.011 A 
ENDBRANCH  16  20
ENDBRANCH  14  16
ENDBRANCH   1  14
TORSDOF 6
ENDMDL
MODEL 9
REMARK VINA RESULT:      -6.5      2.835      4.375
REMARK  6 active torsions:
REMARK  status: ('A' for Active; 'I' for Inactive)
REMARK    1  A    between atoms: C_8  and  N_9 
REMARK       I    between atoms: N_9  and  C_10 
REMARK    2  A    between atoms: C_10  and  C_11 
REMARK    3  A    between atoms: C_11  and  N_12 
REMARK    4  A    between atoms: N_12  and  C_13 
REMARK    5  A    between atoms: C_13  and  C_14 
REMARK    6  A    between atoms: C_13  and  C_17 
ROOT
HETATM    1  C   UNL     1     -40.746  56.894 -53.654  1.00  0.00     0.372 C 
ENDROOT
BRANCH   1   2
HETATM    2  C   UNL     1     -41.732  57.764 -54.441  1.00  0.00     0.250 C 
HETATM    3  N   UNL     1     -42.593  56.998 -55.202  1.00  0.00    -0.322 N 
HETATM    4  H   UNL     1     -42.365  56.010 -55.242  1.00  0.00     0.169 HD
HETATM    5  O   UNL     1     -41.726  58.984 -54.323  1.00  0.00    -0.271 OA
BRANCH   3   6
HETATM    6  C   UNL     1     -43.682  57.425 -55.939  1.00  0.00     0.085 A 
HETATM    7  C   UNL     1     -43.868  57.026 -57.251  1.00  0.00     0.052 A 
HETATM    8  C   UNL     1     -43.085  56.149 -58.151  1.00  0.00     0.072 C 
HETATM    9  N   UNL     1     -45.027  57.618 -57.661  1.00  0.00    -0.280 N 
HETATM   10  H   UNL     1     -45.479  57.551 -58.567  1.00  0.00     0.189 HD
HETATM   11  N   UNL     1     -45.617  58.362 -56.724  1.00  0.00    -0.177 NA
HETATM   12  C   UNL     1     -44.810  58.253 -55.656  1.00  0.00     0.079 A 
HETATM   13  C   UNL     1     -45.199  58.969 -54.416  1.00  0.00     0.075 C 
ENDBRANCH   3   6
ENDBRANCH   1   2
BRANCH   1  14
HETATM   14  N   UNL     1     -41.296  56.587 -52.320  1.00  0.00     0.101 N 
HETATM   15  H   UNL     1     -41.861  57.383 -52.020  1.00  0.00     0.317 HD
BRANCH  14  16
HETATM   16  C   UNL     1     -42.134  55.365 -52.337  1.00  0.00     0.259 C 
BRANCH  16  17
HETATM   17  C   UNL     1     -43.098  55.223 -51.114  1.00  0.00     0.015 C 
HETATM   18  C   UNL     1     -44.049  56.408 -50.899  1.00  0.00     0.012 C 
HETATM   19  C   UNL     1     -43.916  53.928 -51.175  1.00  0.00     0.012 C 
ENDBRANCH  16  17
BRANCH  16  20
HETATM   20  C   UNL     1     -41.269  54.113 -52.505  1.00  0.00    -0.003 A 
HETATM   21  C   UNL     1     -41.340  53.304 -53.656  1.00  0.00     0.042 A 
HETATM   22 CL   UNL     1     -42.382  53.676 -54.988  1.00  0.00    -0.084 Cl
HETATM   23  C   UNL     1     -40.566  52.143 -53.768  1.00  0.00     0.024 A 
HETATM   24  C   UNL     1     -39.713  51.761 -52.735  1.00  0.00     0.002 A 
HETATM   25  C   UNL     1     -39.630  52.540 -51.587  1.00  0.00     0.001 A 
HETATM   26  C   UNL     1     -40.398  53.702 -51.474  1.00  0.00     0.011 A 
ENDBRANCH  16  20
ENDBRANCH  14  16
ENDBRANCH   1  14
TORSDOF 6
ENDMDL
MODEL 10
REMARK VINA RESULT:      -6.4      2.736      7.259
REMARK  6 active torsions:
REMARK  status: ('A' for Active; 'I' for Inactive)
REMARK    1  A    between atoms: C_8  and  N_9 
REMARK       I    between atoms: N_9  and  C_10 
REMARK    2  A    between atoms: C_10  and  C_11 
REMARK    3  A    between atoms: C_11  and  N_12 
REMARK    4  A    between atoms: N_12  and  C_13 
REMARK    5  A    between atoms: C_13  and  C_14 
REMARK    6  A    between atoms: C_13  and  C_17 
ROOT
HETATM    1  C   UNL     1     -40.901  54.938 -54.096  1.00  0.00     0.372 C 
ENDROOT
BRANCH   1   2
HETATM    2  C   UNL     1     -41.028  53.422 -53.909  1.00  0.00     0.250 C 
HETATM    3  N   UNL     1     -40.011  52.918 -53.125  1.00  0.00    -0.322 N 
HETATM    4  H   UNL     1     -39.269  53.577 -52.909  1.00  0.00     0.169 HD
HETATM    5  O   UNL     1     -41.973  52.808 -54.392  1.00  0.00    -0.271 OA
BRANCH   3   6
HETATM    6  C   UNL     1     -39.868  51.628 -52.646  1.00  0.00     0.085 A 
HETATM    7  C   UNL     1     -39.931  51.349 -51.292  1.00  0.00     0.052 A 
HETATM    8  C   UNL     1     -40.142  52.205 -50.102  1.00  0.00     0.072 C 
HETATM    9  N   UNL     1     -39.761  50.000 -51.181  1.00  0.00    -0.280 N 
HETATM   10  H   UNL     1     -39.750  49.436 -50.337  1.00  0.00     0.189 HD
HETATM   11  N   UNL     1     -39.600  49.376 -52.349  1.00  0.00    -0.177 NA
HETATM   12  C   UNL     1     -39.668  50.357 -53.263  1.00  0.00     0.079 A 
HETATM   13  C   UNL     1     -39.535  49.984 -54.694  1.00  0.00     0.075 C 
ENDBRANCH   3   6
ENDBRANCH   1   2
BRANCH   1  14
HETATM   14  N   UNL     1     -42.022  55.626 -53.425  1.00  0.00     0.101 N 
HETATM   15  H   UNL     1     -42.777  54.951 -53.299  1.00  0.00     0.317 HD
BRANCH  14  16
HETATM   16  C   UNL     1     -41.622  56.171 -52.106  1.00  0.00     0.259 C 
BRANCH  16  17
HETATM   17  C   UNL     1     -41.697  55.143 -50.930  1.00  0.00     0.015 C 
HETATM   18  C   UNL     1     -41.422  55.731 -49.540  1.00  0.00     0.012 C 
HETATM   19  C   UNL     1     -43.037  54.398 -50.904  1.00  0.00     0.012 C 
ENDBRANCH  16  17
BRANCH  16  20
HETATM   20  C   UNL     1     -42.414  57.441 -51.779  1.00  0.00    -0.003 A 
HETATM   21  C   UNL     1     -41.785  58.617 -51.325  1.00  0.00     0.042 A 
HETATM   22 CL   UNL     1     -40.070  58.738 -51.135  1.00  0.00    -0.084 Cl
HETATM   23  C   UNL     1     -42.536  59.753 -50.996  1.00  0.00     0.024 A 
HETATM   24  C   UNL     1     -43.925  59.736 -51.104  1.00  0.00     0.002 A 
HETATM   25  C   UNL     1     -44.568  58.585 -51.544  1.00  0.00     0.001 A 
HETATM   26  C   UNL     1     -43.822  57.452 -51.878  1.00  0.00     0.011 A 
ENDBRANCH  16  20
ENDBRANCH  14  16
ENDBRANCH   1  14
TORSDOF 6
ENDMDL
