MODEL 1
REMARK VINA RESULT:      -8.3      0.000      0.000
REMARK  9 active torsions:
REMARK  status: ('A' for Active; 'I' for Inactive)
REMARK    1  A    between atoms: C_4  and  C_5 
REMARK    2  A    between atoms: C_7  and  O_8 
REMARK    3  A    between atoms: C_10  and  O_11 
REMARK    4  A    between atoms: C_16  and  C_17 
REMARK    5  A    between atoms: C_20  and  C_21 
REMARK    6  A    between atoms: C_21  and  N_22 
REMARK    7  A    between atoms: N_22  and  C_23 
REMARK    8  A    between atoms: C_23  and  N_24 
REMARK    9  A    between atoms: N_24  and  C_25 
ROOT
HETATM    1  C   UNL     1     -42.162  59.973 -53.377  1.00  0.00     0.034 A 
HETATM    2  C   UNL     1     -42.899  59.951 -52.189  1.00  0.00     0.031 A 
HETATM    3  C   UNL     1     -42.649  58.979 -51.214  1.00  0.00     0.025 A 
HETATM    4  C   UNL     1     -41.650  58.022 -51.413  1.00  0.00     0.044 A 
HETATM    5  C   UNL     1     -41.402  57.025 -50.414  1.00  0.00     0.099 C 
HETATM    6  N   UNL     1     -41.226  56.220 -49.598  1.00  0.00    -0.191 NA
HETATM    7  C   UNL     1     -40.892  58.055 -52.585  1.00  0.00     0.025 A 
HETATM    8  C   UNL     1     -41.140  59.034 -53.555  1.00  0.00     0.031 A 
ENDROOT
BRANCH   1   9
HETATM    9  N   UNL     1     -42.335  60.942 -54.385  1.00  0.00    -0.333 N 
HETATM   10  H   UNL     1     -41.695  61.734 -54.345  1.00  0.00     0.168 HD
BRANCH   9  11
HETATM   11  C   UNL     1     -43.301  61.083 -55.340  1.00  0.00     0.172 C 
HETATM   12  S   UNL     1     -44.350  62.375 -55.222  1.00  0.00    -0.041 SA
BRANCH  11  13
HETATM   13  N   UNL     1     -43.289  60.166 -56.360  1.00  0.00    -0.365 N 
HETATM   14  H   UNL     1     -42.535  59.495 -56.242  1.00  0.00     0.161 HD
BRANCH  13  15
HETATM   15  C   UNL     1     -43.756  60.423 -57.720  1.00  0.00     0.155 C 
BRANCH  15  16
HETATM   16  C   UNL     1     -43.265  59.367 -58.735  1.00  0.00     0.206 C 
HETATM   17  C   UNL     1     -41.954  58.676 -58.324  1.00  0.00     0.040 C 
HETATM   18  C   UNL     1     -42.024  57.145 -58.517  1.00  0.00     0.001 C 
HETATM   19  C   UNL     1     -43.129  56.490 -57.662  1.00  0.00     0.067 C 
HETATM   20  C   UNL     1     -42.457  56.941 -59.996  1.00  0.00     0.033 C 
HETATM   21  C   UNL     1     -44.421  57.326 -57.768  1.00  0.00     0.246 C 
HETATM   22  N   UNL     1     -44.292  58.265 -58.973  1.00  0.00    -0.065 N 
HETATM   23  C   UNL     1     -43.888  57.465 -60.210  1.00  0.00     0.236 C 
HETATM   24  H   UNL     1     -45.215  58.688 -59.150  1.00  0.00     0.280 HD
BRANCH  19  25
HETATM   25  C   UNL     1     -42.863  56.022 -56.258  1.00  0.00     0.038 C 
HETATM   26  N   UNL     1     -43.489  56.311 -55.067  1.00  0.00    -0.277 N 
HETATM   27  C   UNL     1     -44.499  57.285 -54.735  1.00  0.00     0.179 C 
HETATM   28  N   UNL     1     -43.091  55.523 -54.058  1.00  0.00    -0.172 NA
HETATM   29  C   UNL     1     -42.064  54.812 -54.529  1.00  0.00     0.089 C 
HETATM   30  C   UNL     1     -41.880  55.105 -55.900  1.00  0.00     0.061 C 
BRANCH  29  31
HETATM   31  C   UNL     1     -41.337  53.857 -53.695  1.00  0.00    -0.003 A 
HETATM   32  C   UNL     1     -40.654  52.783 -54.289  1.00  0.00     0.053 A 
HETATM   33  C   UNL     1     -39.925  51.876 -53.511  1.00  0.00     0.102 A 
HETATM   34  C   UNL     1     -39.889  52.030 -52.111  1.00  0.00     0.101 A 
HETATM   35  C   UNL     1     -40.577  53.093 -51.518  1.00  0.00     0.040 A 
HETATM   36  C   UNL     1     -41.295  54.000 -52.303  1.00  0.00     0.017 A 
BRANCH  33  37
HETATM   37  O   UNL     1     -39.216  50.816 -54.020  1.00  0.00    -0.353 OA
HETATM   38  C   UNL     1     -39.927  49.842 -54.770  1.00  0.00     0.210 C 
ENDBRANCH  33  37
BRANCH  34  39
HETATM   39  O   UNL     1     -39.147  51.105 -51.422  1.00  0.00    -0.353 OA
HETATM   40  C   UNL     1     -39.848  50.093 -50.714  1.00  0.00     0.210 C 
ENDBRANCH  34  39
ENDBRANCH  29  31
ENDBRANCH  19  25
ENDBRANCH  15  16
ENDBRANCH  13  15
ENDBRANCH  11  13
ENDBRANCH   9  11
ENDBRANCH   1   9
TORSDOF 9
ENDMDL
MODEL 2
REMARK VINA RESULT:      -8.1      0.970      1.910
REMARK  9 active torsions:
REMARK  status: ('A' for Active; 'I' for Inactive)
REMARK    1  A    between atoms: C_4  and  C_5 
REMARK    2  A    between atoms: C_7  and  O_8 
REMARK    3  A    between atoms: C_10  and  O_11 
REMARK    4  A    between atoms: C_16  and  C_17 
REMARK    5  A    between atoms: C_20  and  C_21 
REMARK    6  A    between atoms: C_21  and  N_22 
REMARK    7  A    between atoms: N_22  and  C_23 
REMARK    8  A    between atoms: C_23  and  N_24 
REMARK    9  A    between atoms: N_24  and  C_25 
ROOT
HETATM    1  C   UNL     1     -42.493  60.520 -54.355  1.00  0.00     0.034 A 
HETATM    2  C   UNL     1     -41.718  59.393 -54.646  1.00  0.00     0.031 A 
HETATM    3  C   UNL     1     -41.383  58.481 -53.639  1.00  0.00     0.025 A 
HETATM    4  C   UNL     1     -41.828  58.682 -52.330  1.00  0.00     0.044 A 
HETATM    5  C   UNL     1     -41.477  57.748 -51.301  1.00  0.00     0.099 C 
HETATM    6  N   UNL     1     -41.172  56.985 -50.482  1.00  0.00    -0.191 NA
HETATM    7  C   UNL     1     -42.625  59.791 -52.039  1.00  0.00     0.025 A 
HETATM    8  C   UNL     1     -42.964  60.697 -53.050  1.00  0.00     0.031 A 
ENDROOT
BRANCH   1   9
HETATM    9  N   UNL     1     -42.897  61.461 -55.324  1.00  0.00    -0.333 N 
HETATM   10  H   UNL     1     -42.422  62.361 -55.284  1.00  0.00     0.168 HD
BRANCH   9  11
HETATM   11  C   UNL     1     -43.916  61.433 -56.234  1.00  0.00     0.172 C 
HETATM   12  S   UNL     1     -45.463  61.760 -55.701  1.00  0.00    -0.041 SA
BRANCH  11  13
HETATM   13  N   UNL     1     -43.563  61.190 -57.536  1.00  0.00    -0.365 N 
HETATM   14  H   UNL     1     -44.380  61.171 -58.141  1.00  0.00     0.161 HD
BRANCH  13  15
HETATM   15  C   UNL     1     -42.396  60.418 -57.956  1.00  0.00     0.155 C 
BRANCH  15  16
HETATM   16  C   UNL     1     -42.755  59.251 -58.901  1.00  0.00     0.206 C 
HETATM   17  C   UNL     1     -41.855  58.015 -58.729  1.00  0.00     0.040 C 
HETATM   18  C   UNL     1     -42.676  56.708 -58.685  1.00  0.00     0.001 C 
HETATM   19  C   UNL     1     -43.669  56.671 -57.503  1.00  0.00     0.067 C 
HETATM   20  C   UNL     1     -43.549  56.730 -59.971  1.00  0.00     0.033 C 
HETATM   21  C   UNL     1     -44.400  58.026 -57.408  1.00  0.00     0.246 C 
HETATM   22  N   UNL     1     -44.195  58.780 -58.727  1.00  0.00    -0.065 N 
HETATM   23  C   UNL     1     -44.571  57.878 -59.901  1.00  0.00     0.236 C 
HETATM   24  H   UNL     1     -44.825  59.595 -58.731  1.00  0.00     0.280 HD
BRANCH  19  25
HETATM   25  C   UNL     1     -43.267  56.140 -56.155  1.00  0.00     0.038 C 
HETATM   26  N   UNL     1     -43.800  56.337 -54.902  1.00  0.00    -0.277 N 
HETATM   27  C   UNL     1     -44.815  57.249 -54.432  1.00  0.00     0.179 C 
HETATM   28  N   UNL     1     -43.289  55.514 -53.976  1.00  0.00    -0.172 NA
HETATM   29  C   UNL     1     -42.280  54.873 -54.570  1.00  0.00     0.089 C 
HETATM   30  C   UNL     1     -42.224  55.247 -55.932  1.00  0.00     0.061 C 
BRANCH  29  31
HETATM   31  C   UNL     1     -41.451  53.905 -53.855  1.00  0.00    -0.003 A 
HETATM   32  C   UNL     1     -41.416  53.911 -52.451  1.00  0.00     0.053 A 
HETATM   33  C   UNL     1     -40.654  52.971 -51.747  1.00  0.00     0.102 A 
HETATM   34  C   UNL     1     -39.898  52.017 -52.454  1.00  0.00     0.101 A 
HETATM   35  C   UNL     1     -39.923  52.016 -53.852  1.00  0.00     0.040 A 
HETATM   36  C   UNL     1     -40.695  52.952 -54.548  1.00  0.00     0.017 A 
BRANCH  33  37
HETATM   37  O   UNL     1     -40.586  52.901 -50.377  1.00  0.00    -0.353 OA
HETATM   38  C   UNL     1     -39.857  53.913 -49.697  1.00  0.00     0.210 C 
ENDBRANCH  33  37
BRANCH  34  39
HETATM   39  O   UNL     1     -39.184  51.127 -51.692  1.00  0.00    -0.353 OA
HETATM   40  C   UNL     1     -39.555  49.758 -51.755  1.00  0.00     0.210 C 
ENDBRANCH  34  39
ENDBRANCH  29  31
ENDBRANCH  19  25
ENDBRANCH  15  16
ENDBRANCH  13  15
ENDBRANCH  11  13
ENDBRANCH   9  11
ENDBRANCH   1   9
TORSDOF 9
ENDMDL
MODEL 3
REMARK VINA RESULT:      -8.0      2.746      5.205
REMARK  9 active torsions:
REMARK  status: ('A' for Active; 'I' for Inactive)
REMARK    1  A    between atoms: C_4  and  C_5 
REMARK    2  A    between atoms: C_7  and  O_8 
REMARK    3  A    between atoms: C_10  and  O_11 
REMARK    4  A    between atoms: C_16  and  C_17 
REMARK    5  A    between atoms: C_20  and  C_21 
REMARK    6  A    between atoms: C_21  and  N_22 
REMARK    7  A    between atoms: N_22  and  C_23 
REMARK    8  A    between atoms: C_23  and  N_24 
REMARK    9  A    between atoms: N_24  and  C_25 
ROOT
HETATM    1  C   UNL     1     -42.645  55.361 -55.885  1.00  0.00     0.034 A 
HETATM    2  C   UNL     1     -41.421  55.877 -55.450  1.00  0.00     0.031 A 
HETATM    3  C   UNL     1     -40.718  55.258 -54.411  1.00  0.00     0.025 A 
HETATM    4  C   UNL     1     -41.227  54.108 -53.802  1.00  0.00     0.044 A 
HETATM    5  C   UNL     1     -40.505  53.481 -52.734  1.00  0.00     0.099 C 
HETATM    6  N   UNL     1     -39.910  52.997 -51.864  1.00  0.00    -0.191 NA
HETATM    7  C   UNL     1     -42.436  53.572 -54.250  1.00  0.00     0.025 A 
HETATM    8  C   UNL     1     -43.133  54.190 -55.295  1.00  0.00     0.031 A 
ENDROOT
BRANCH   1   9
HETATM    9  N   UNL     1     -43.391  55.911 -56.947  1.00  0.00    -0.333 N 
HETATM   10  H   UNL     1     -44.340  56.196 -56.714  1.00  0.00     0.168 HD
BRANCH   9  11
HETATM   11  C   UNL     1     -43.116  56.010 -58.282  1.00  0.00     0.172 C 
HETATM   12  S   UNL     1     -43.890  54.968 -59.331  1.00  0.00    -0.041 SA
BRANCH  11  13
HETATM   13  N   UNL     1     -42.256  57.012 -58.654  1.00  0.00    -0.365 N 
HETATM   14  H   UNL     1     -42.191  57.727 -57.935  1.00  0.00     0.161 HD
BRANCH  13  15
HETATM   15  C   UNL     1     -41.991  57.416 -60.032  1.00  0.00     0.155 C 
BRANCH  15  16
HETATM   16  C   UNL     1     -42.705  58.729 -60.422  1.00  0.00     0.206 C 
HETATM   17  C   UNL     1     -44.092  58.895 -59.778  1.00  0.00     0.040 C 
HETATM   18  C   UNL     1     -44.291  60.313 -59.198  1.00  0.00     0.001 C 
HETATM   19  C   UNL     1     -43.271  60.649 -58.089  1.00  0.00     0.067 C 
HETATM   20  C   UNL     1     -43.975  61.281 -60.372  1.00  0.00     0.033 C 
HETATM   21  C   UNL     1     -41.863  60.207 -58.540  1.00  0.00     0.246 C 
HETATM   22  N   UNL     1     -41.892  59.967 -60.053  1.00  0.00    -0.065 N 
HETATM   23  C   UNL     1     -42.489  61.183 -60.758  1.00  0.00     0.236 C 
HETATM   24  H   UNL     1     -40.922  59.849 -60.377  1.00  0.00     0.280 HD
BRANCH  19  25
HETATM   25  C   UNL     1     -43.541  60.321 -56.647  1.00  0.00     0.038 C 
HETATM   26  N   UNL     1     -44.517  60.757 -55.781  1.00  0.00    -0.277 N 
HETATM   27  C   UNL     1     -45.506  61.799 -55.908  1.00  0.00     0.179 C 
HETATM   28  N   UNL     1     -44.552  60.064 -54.634  1.00  0.00    -0.172 NA
HETATM   29  C   UNL     1     -43.481  59.268 -54.652  1.00  0.00     0.089 C 
HETATM   30  C   UNL     1     -42.813  59.408 -55.891  1.00  0.00     0.061 C 
BRANCH  29  31
HETATM   31  C   UNL     1     -43.160  58.376 -53.539  1.00  0.00    -0.003 A 
HETATM   32  C   UNL     1     -42.006  58.599 -52.770  1.00  0.00     0.053 A 
HETATM   33  C   UNL     1     -41.698  57.778 -51.680  1.00  0.00     0.102 A 
HETATM   34  C   UNL     1     -42.547  56.701 -51.358  1.00  0.00     0.101 A 
HETATM   35  C   UNL     1     -43.691  56.472 -52.128  1.00  0.00     0.040 A 
HETATM   36  C   UNL     1     -43.996  57.304 -53.210  1.00  0.00     0.017 A 
BRANCH  33  37
HETATM   37  O   UNL     1     -40.601  57.945 -50.871  1.00  0.00    -0.353 OA
HETATM   38  C   UNL     1     -39.777  59.078 -51.098  1.00  0.00     0.210 C 
ENDBRANCH  33  37
BRANCH  34  39
HETATM   39  O   UNL     1     -42.181  55.948 -50.272  1.00  0.00    -0.353 OA
HETATM   40  C   UNL     1     -42.734  54.645 -50.154  1.00  0.00     0.210 C 
ENDBRANCH  34  39
ENDBRANCH  29  31
ENDBRANCH  19  25
ENDBRANCH  15  16
ENDBRANCH  13  15
ENDBRANCH  11  13
ENDBRANCH   9  11
ENDBRANCH   1   9
TORSDOF 9
ENDMDL
MODEL 4
REMARK VINA RESULT:      -8.0      2.058      5.432
REMARK  9 active torsions:
REMARK  status: ('A' for Active; 'I' for Inactive)
REMARK    1  A    between atoms: C_4  and  C_5 
REMARK    2  A    between atoms: C_7  and  O_8 
REMARK    3  A    between atoms: C_10  and  O_11 
REMARK    4  A    between atoms: C_16  and  C_17 
REMARK    5  A    between atoms: C_20  and  C_21 
REMARK    6  A    between atoms: C_21  and  N_22 
REMARK    7  A    between atoms: N_22  and  C_23 
REMARK    8  A    between atoms: C_23  and  N_24 
REMARK    9  A    between atoms: N_24  and  C_25 
ROOT
HETATM    1  C   UNL     1     -42.684  58.264 -60.153  1.00  0.00     0.034 A 
HETATM    2  C   UNL     1     -41.887  57.131 -59.962  1.00  0.00     0.031 A 
HETATM    3  C   UNL     1     -42.471  55.875 -59.767  1.00  0.00     0.025 A 
HETATM    4  C   UNL     1     -43.862  55.736 -59.771  1.00  0.00     0.044 A 
HETATM    5  C   UNL     1     -44.455  54.448 -59.565  1.00  0.00     0.099 C 
HETATM    6  N   UNL     1     -44.914  53.398 -59.385  1.00  0.00    -0.191 NA
HETATM    7  C   UNL     1     -44.663  56.859 -59.989  1.00  0.00     0.025 A 
HETATM    8  C   UNL     1     -44.074  58.113 -60.192  1.00  0.00     0.031 A 
ENDROOT
BRANCH   1   9
HETATM    9  N   UNL     1     -42.166  59.553 -60.390  1.00  0.00    -0.333 N 
HETATM   10  H   UNL     1     -41.898  59.746 -61.354  1.00  0.00     0.168 HD
BRANCH   9  11
HETATM   11  C   UNL     1     -41.827  60.558 -59.529  1.00  0.00     0.172 C 
HETATM   12  S   UNL     1     -41.724  62.113 -60.127  1.00  0.00    -0.041 SA
BRANCH  11  13
HETATM   13  N   UNL     1     -41.655  60.203 -58.215  1.00  0.00    -0.365 N 
HETATM   14  H   UNL     1     -41.790  59.205 -58.084  1.00  0.00     0.161 HD
BRANCH  13  15
HETATM   15  C   UNL     1     -41.916  61.076 -57.073  1.00  0.00     0.155 C 
BRANCH  15  16
HETATM   16  C   UNL     1     -43.336  60.898 -56.493  1.00  0.00     0.206 C 
HETATM   17  C   UNL     1     -43.776  59.429 -56.372  1.00  0.00     0.040 C 
HETATM   18  C   UNL     1     -44.433  59.136 -55.004  1.00  0.00     0.001 C 
HETATM   19  C   UNL     1     -43.474  59.386 -53.821  1.00  0.00     0.067 C 
HETATM   20  C   UNL     1     -45.565  60.191 -54.861  1.00  0.00     0.033 C 
HETATM   21  C   UNL     1     -42.736  60.723 -54.034  1.00  0.00     0.246 C 
HETATM   22  N   UNL     1     -43.483  61.522 -55.108  1.00  0.00    -0.065 N 
HETATM   23  C   UNL     1     -44.966  61.604 -54.753  1.00  0.00     0.236 C 
HETATM   24  H   UNL     1     -43.100  62.478 -55.121  1.00  0.00     0.280 HD
BRANCH  19  25
HETATM   25  C   UNL     1     -42.564  58.305 -53.305  1.00  0.00     0.038 C 
HETATM   26  N   UNL     1     -41.949  58.136 -52.086  1.00  0.00    -0.277 N 
HETATM   27  C   UNL     1     -41.829  59.018 -50.951  1.00  0.00     0.179 C 
HETATM   28  N   UNL     1     -41.389  56.927 -51.941  1.00  0.00    -0.172 NA
HETATM   29  C   UNL     1     -41.476  56.336 -53.134  1.00  0.00     0.089 C 
HETATM   30  C   UNL     1     -42.194  57.171 -54.020  1.00  0.00     0.061 C 
BRANCH  29  31
HETATM   31  C   UNL     1     -40.933  55.000 -53.377  1.00  0.00    -0.003 A 
HETATM   32  C   UNL     1     -40.674  54.140 -52.298  1.00  0.00     0.053 A 
HETATM   33  C   UNL     1     -40.186  52.846 -52.510  1.00  0.00     0.102 A 
HETATM   34  C   UNL     1     -39.935  52.403 -53.824  1.00  0.00     0.101 A 
HETATM   35  C   UNL     1     -40.183  53.262 -54.899  1.00  0.00     0.040 A 
HETATM   36  C   UNL     1     -40.680  54.550 -54.678  1.00  0.00     0.017 A 
BRANCH  33  37
HETATM   37  O   UNL     1     -39.928  51.942 -51.509  1.00  0.00    -0.353 OA
HETATM   38  C   UNL     1     -40.411  52.239 -50.208  1.00  0.00     0.210 C 
ENDBRANCH  33  37
BRANCH  34  39
HETATM   39  O   UNL     1     -39.464  51.121 -53.949  1.00  0.00    -0.353 OA
HETATM   40  C   UNL     1     -40.375  50.124 -54.389  1.00  0.00     0.210 C 
ENDBRANCH  34  39
ENDBRANCH  29  31
ENDBRANCH  19  25
ENDBRANCH  15  16
ENDBRANCH  13  15
ENDBRANCH  11  13
ENDBRANCH   9  11
ENDBRANCH   1   9
TORSDOF 9
ENDMDL
MODEL 5
REMARK VINA RESULT:      -7.9      1.893      2.770
REMARK  9 active torsions:
REMARK  status: ('A' for Active; 'I' for Inactive)
REMARK    1  A    between atoms: C_4  and  C_5 
REMARK    2  A    between atoms: C_7  and  O_8 
REMARK    3  A    between atoms: C_10  and  O_11 
REMARK    4  A    between atoms: C_16  and  C_17 
REMARK    5  A    between atoms: C_20  and  C_21 
REMARK    6  A    between atoms: C_21  and  N_22 
REMARK    7  A    between atoms: N_22  and  C_23 
REMARK    8  A    between atoms: C_23  and  N_24 
REMARK    9  A    between atoms: N_24  and  C_25 
ROOT
HETATM    1  C   UNL     1     -45.058  59.784 -52.381  1.00  0.00     0.034 A 
HETATM    2  C   UNL     1     -44.974  58.419 -52.092  1.00  0.00     0.031 A 
HETATM    3  C   UNL     1     -43.787  57.868 -51.599  1.00  0.00     0.025 A 
HETATM    4  C   UNL     1     -42.671  58.680 -51.379  1.00  0.00     0.044 A 
HETATM    5  C   UNL     1     -41.455  58.110 -50.878  1.00  0.00     0.099 C 
HETATM    6  N   UNL     1     -40.478  57.626 -50.484  1.00  0.00    -0.191 NA
HETATM    7  C   UNL     1     -42.757  60.049 -51.639  1.00  0.00     0.025 A 
HETATM    8  C   UNL     1     -43.950  60.598 -52.126  1.00  0.00     0.031 A 
ENDROOT
BRANCH   1   9
HETATM    9  N   UNL     1     -46.231  60.413 -52.847  1.00  0.00    -0.333 N 
HETATM   10  H   UNL     1     -47.096  59.902 -52.682  1.00  0.00     0.168 HD
BRANCH   9  11
HETATM   11  C   UNL     1     -46.408  61.533 -53.609  1.00  0.00     0.172 C 
HETATM   12  S   UNL     1     -46.579  63.001 -52.832  1.00  0.00    -0.041 SA
BRANCH  11  13
HETATM   13  N   UNL     1     -46.373  61.358 -54.968  1.00  0.00    -0.365 N 
HETATM   14  H   UNL     1     -47.253  60.986 -55.314  1.00  0.00     0.161 HD
BRANCH  13  15
HETATM   15  C   UNL     1     -45.168  61.070 -55.742  1.00  0.00     0.155 C 
BRANCH  15  16
HETATM   16  C   UNL     1     -45.423  60.093 -56.911  1.00  0.00     0.206 C 
HETATM   17  C   UNL     1     -44.137  59.552 -57.558  1.00  0.00     0.040 C 
HETATM   18  C   UNL     1     -44.207  58.026 -57.789  1.00  0.00     0.001 C 
HETATM   19  C   UNL     1     -44.380  57.235 -56.474  1.00  0.00     0.067 C 
HETATM   20  C   UNL     1     -45.515  57.795 -58.596  1.00  0.00     0.033 C 
HETATM   21  C   UNL     1     -45.455  57.918 -55.604  1.00  0.00     0.246 C 
HETATM   22  N   UNL     1     -46.252  58.883 -56.489  1.00  0.00    -0.065 N 
HETATM   23  C   UNL     1     -46.741  58.154 -57.739  1.00  0.00     0.236 C 
HETATM   24  H   UNL     1     -47.075  59.200 -55.957  1.00  0.00     0.280 HD
BRANCH  19  25
HETATM   25  C   UNL     1     -43.194  56.781 -55.669  1.00  0.00     0.038 C 
HETATM   26  N   UNL     1     -42.235  57.487 -54.980  1.00  0.00    -0.277 N 
HETATM   27  C   UNL     1     -41.942  58.899 -54.936  1.00  0.00     0.179 C 
HETATM   28  N   UNL     1     -41.464  56.713 -54.205  1.00  0.00    -0.172 NA
HETATM   29  C   UNL     1     -41.790  55.453 -54.504  1.00  0.00     0.089 C 
HETATM   30  C   UNL     1     -42.861  55.452 -55.426  1.00  0.00     0.061 C 
BRANCH  29  31
HETATM   31  C   UNL     1     -41.126  54.312 -53.876  1.00  0.00    -0.003 A 
HETATM   32  C   UNL     1     -41.038  54.233 -52.477  1.00  0.00     0.053 A 
HETATM   33  C   UNL     1     -40.436  53.133 -51.855  1.00  0.00     0.102 A 
HETATM   34  C   UNL     1     -39.894  52.098 -52.642  1.00  0.00     0.101 A 
HETATM   35  C   UNL     1     -39.972  52.181 -54.036  1.00  0.00     0.040 A 
HETATM   36  C   UNL     1     -40.584  53.278 -54.648  1.00  0.00     0.017 A 
BRANCH  33  37
HETATM   37  O   UNL     1     -40.331  52.975 -50.495  1.00  0.00    -0.353 OA
HETATM   38  C   UNL     1     -40.158  54.141 -49.704  1.00  0.00     0.210 C 
ENDBRANCH  33  37
BRANCH  34  39
HETATM   39  O   UNL     1     -39.328  51.053 -51.958  1.00  0.00    -0.353 OA
HETATM   40  C   UNL     1     -39.608  49.737 -52.413  1.00  0.00     0.210 C 
ENDBRANCH  34  39
ENDBRANCH  29  31
ENDBRANCH  19  25
ENDBRANCH  15  16
ENDBRANCH  13  15
ENDBRANCH  11  13
ENDBRANCH   9  11
ENDBRANCH   1   9
TORSDOF 9
ENDMDL
MODEL 6
REMARK VINA RESULT:      -7.9      2.026      3.136
REMARK  9 active torsions:
REMARK  status: ('A' for Active; 'I' for Inactive)
REMARK    1  A    between atoms: C_4  and  C_5 
REMARK    2  A    between atoms: C_7  and  O_8 
REMARK    3  A    between atoms: C_10  and  O_11 
REMARK    4  A    between atoms: C_16  and  C_17 
REMARK    5  A    between atoms: C_20  and  C_21 
REMARK    6  A    between atoms: C_21  and  N_22 
REMARK    7  A    between atoms: N_22  and  C_23 
REMARK    8  A    between atoms: C_23  and  N_24 
REMARK    9  A    between atoms: N_24  and  C_25 
ROOT
HETATM    1  C   UNL     1     -42.822  59.156 -52.147  1.00  0.00     0.034 A 
HETATM    2  C   UNL     1     -41.783  58.569 -52.876  1.00  0.00     0.031 A 
HETATM    3  C   UNL     1     -40.464  58.637 -52.415  1.00  0.00     0.025 A 
HETATM    4  C   UNL     1     -40.170  59.286 -51.213  1.00  0.00     0.044 A 
HETATM    5  C   UNL     1     -38.816  59.358 -50.748  1.00  0.00     0.099 C 
HETATM    6  N   UNL     1     -37.712  59.414 -50.397  1.00  0.00    -0.191 NA
HETATM    7  C   UNL     1     -41.206  59.850 -50.467  1.00  0.00     0.025 A 
HETATM    8  C   UNL     1     -42.526  59.774 -50.927  1.00  0.00     0.031 A 
ENDROOT
BRANCH   1   9
HETATM    9  N   UNL     1     -44.176  59.097 -52.532  1.00  0.00    -0.333 N 
HETATM   10  H   UNL     1     -44.660  58.232 -52.298  1.00  0.00     0.168 HD
BRANCH   9  11
HETATM   11  C   UNL     1     -44.933  59.945 -53.290  1.00  0.00     0.172 C 
HETATM   12  S   UNL     1     -46.135  60.824 -52.536  1.00  0.00    -0.041 SA
BRANCH  11  13
HETATM   13  N   UNL     1     -44.596  60.042 -54.616  1.00  0.00    -0.365 N 
HETATM   14  H   UNL     1     -43.794  59.457 -54.836  1.00  0.00     0.161 HD
BRANCH  13  15
HETATM   15  C   UNL     1     -44.822  61.219 -55.451  1.00  0.00     0.155 C 
BRANCH  15  16
HETATM   16  C   UNL     1     -43.753  61.388 -56.554  1.00  0.00     0.206 C 
HETATM   17  C   UNL     1     -42.428  60.669 -56.247  1.00  0.00     0.040 C 
HETATM   18  C   UNL     1     -41.902  59.886 -57.471  1.00  0.00     0.001 C 
HETATM   19  C   UNL     1     -42.879  58.785 -57.934  1.00  0.00     0.067 C 
HETATM   20  C   UNL     1     -41.853  60.923 -58.628  1.00  0.00     0.033 C 
HETATM   21  C   UNL     1     -44.314  59.352 -57.959  1.00  0.00     0.246 C 
HETATM   22  N   UNL     1     -44.230  60.882 -57.911  1.00  0.00    -0.065 N 
HETATM   23  C   UNL     1     -43.275  61.381 -58.993  1.00  0.00     0.236 C 
HETATM   24  H   UNL     1     -45.168  61.259 -58.108  1.00  0.00     0.280 HD
BRANCH  19  25
HETATM   25  C   UNL     1     -42.822  57.394 -57.367  1.00  0.00     0.038 C 
HETATM   26  N   UNL     1     -43.180  56.177 -57.899  1.00  0.00    -0.277 N 
HETATM   27  C   UNL     1     -43.886  55.839 -59.110  1.00  0.00     0.179 C 
HETATM   28  N   UNL     1     -42.773  55.137 -57.158  1.00  0.00    -0.172 NA
HETATM   29  C   UNL     1     -42.287  55.657 -56.029  1.00  0.00     0.089 C 
HETATM   30  C   UNL     1     -42.312  57.068 -56.114  1.00  0.00     0.061 C 
BRANCH  29  31
HETATM   31  C   UNL     1     -41.775  54.817 -54.948  1.00  0.00    -0.003 A 
HETATM   32  C   UNL     1     -42.457  54.756 -53.722  1.00  0.00     0.053 A 
HETATM   33  C   UNL     1     -42.001  53.933 -52.685  1.00  0.00     0.102 A 
HETATM   34  C   UNL     1     -40.833  53.167 -52.866  1.00  0.00     0.101 A 
HETATM   35  C   UNL     1     -40.147  53.235 -54.083  1.00  0.00     0.040 A 
HETATM   36  C   UNL     1     -40.615  54.052 -55.116  1.00  0.00     0.017 A 
BRANCH  33  37
HETATM   37  O   UNL     1     -42.625  53.805 -51.468  1.00  0.00    -0.353 OA
HETATM   38  C   UNL     1     -42.957  54.994 -50.766  1.00  0.00     0.210 C 
ENDBRANCH  33  37
BRANCH  34  39
HETATM   39  O   UNL     1     -40.456  52.382 -51.807  1.00  0.00    -0.353 OA
HETATM   40  C   UNL     1     -39.503  51.357 -52.051  1.00  0.00     0.210 C 
ENDBRANCH  34  39
ENDBRANCH  29  31
ENDBRANCH  19  25
ENDBRANCH  15  16
ENDBRANCH  13  15
ENDBRANCH  11  13
ENDBRANCH   9  11
ENDBRANCH   1   9
TORSDOF 9
ENDMDL
MODEL 7
REMARK VINA RESULT:      -7.9      3.018      5.317
REMARK  9 active torsions:
REMARK  status: ('A' for Active; 'I' for Inactive)
REMARK    1  A    between atoms: C_4  and  C_5 
REMARK    2  A    between atoms: C_7  and  O_8 
REMARK    3  A    between atoms: C_10  and  O_11 
REMARK    4  A    between atoms: C_16  and  C_17 
REMARK    5  A    between atoms: C_20  and  C_21 
REMARK    6  A    between atoms: C_21  and  N_22 
REMARK    7  A    between atoms: N_22  and  C_23 
REMARK    8  A    between atoms: C_23  and  N_24 
REMARK    9  A    between atoms: N_24  and  C_25 
ROOT
HETATM    1  C   UNL     1     -40.925  62.756 -59.055  1.00  0.00     0.034 A 
HETATM    2  C   UNL     1     -39.717  63.447 -59.188  1.00  0.00     0.031 A 
HETATM    3  C   UNL     1     -39.115  63.591 -60.443  1.00  0.00     0.025 A 
HETATM    4  C   UNL     1     -39.720  63.053 -61.581  1.00  0.00     0.044 A 
HETATM    5  C   UNL     1     -39.096  63.199 -62.863  1.00  0.00     0.099 C 
HETATM    6  N   UNL     1     -38.568  63.319 -63.889  1.00  0.00    -0.191 NA
HETATM    7  C   UNL     1     -40.941  62.386 -61.459  1.00  0.00     0.025 A 
HETATM    8  C   UNL     1     -41.544  62.250 -60.203  1.00  0.00     0.031 A 
ENDROOT
BRANCH   1   9
HETATM    9  N   UNL     1     -41.605  62.601 -57.830  1.00  0.00    -0.333 N 
HETATM   10  H   UNL     1     -41.194  61.931 -57.183  1.00  0.00     0.168 HD
BRANCH   9  11
HETATM   11  C   UNL     1     -42.805  63.094 -57.400  1.00  0.00     0.172 C 
HETATM   12  S   UNL     1     -42.889  64.700 -56.955  1.00  0.00    -0.041 SA
BRANCH  11  13
HETATM   13  N   UNL     1     -43.865  62.224 -57.425  1.00  0.00    -0.365 N 
HETATM   14  H   UNL     1     -44.750  62.722 -57.382  1.00  0.00     0.161 HD
BRANCH  13  15
HETATM   15  C   UNL     1     -43.835  60.856 -56.915  1.00  0.00     0.155 C 
BRANCH  15  16
HETATM   16  C   UNL     1     -43.702  59.799 -58.034  1.00  0.00     0.206 C 
HETATM   17  C   UNL     1     -42.299  59.177 -58.134  1.00  0.00     0.040 C 
HETATM   18  C   UNL     1     -42.361  57.640 -58.280  1.00  0.00     0.001 C 
HETATM   19  C   UNL     1     -43.037  56.957 -57.073  1.00  0.00     0.067 C 
HETATM   20  C   UNL     1     -43.298  57.383 -59.493  1.00  0.00     0.033 C 
HETATM   21  C   UNL     1     -44.317  57.732 -56.698  1.00  0.00     0.246 C 
HETATM   22  N   UNL     1     -44.689  58.648 -57.870  1.00  0.00    -0.065 N 
HETATM   23  C   UNL     1     -44.730  57.839 -59.164  1.00  0.00     0.236 C 
HETATM   24  H   UNL     1     -45.631  59.026 -57.694  1.00  0.00     0.280 HD
BRANCH  19  25
HETATM   25  C   UNL     1     -42.248  56.534 -55.865  1.00  0.00     0.038 C 
HETATM   26  N   UNL     1     -41.794  57.245 -54.778  1.00  0.00    -0.277 N 
HETATM   27  C   UNL     1     -41.772  58.662 -54.510  1.00  0.00     0.179 C 
HETATM   28  N   UNL     1     -41.312  56.464 -53.801  1.00  0.00    -0.172 NA
HETATM   29  C   UNL     1     -41.281  55.227 -54.300  1.00  0.00     0.089 C 
HETATM   30  C   UNL     1     -41.847  55.229 -55.596  1.00  0.00     0.061 C 
BRANCH  29  31
HETATM   31  C   UNL     1     -40.776  54.094 -53.528  1.00  0.00    -0.003 A 
HETATM   32  C   UNL     1     -40.261  52.966 -54.188  1.00  0.00     0.053 A 
HETATM   33  C   UNL     1     -39.742  51.884 -53.468  1.00  0.00     0.102 A 
HETATM   34  C   UNL     1     -39.750  51.918 -52.059  1.00  0.00     0.101 A 
HETATM   35  C   UNL     1     -40.271  53.035 -51.400  1.00  0.00     0.040 A 
HETATM   36  C   UNL     1     -40.778  54.116 -52.128  1.00  0.00     0.017 A 
BRANCH  33  37
HETATM   37  O   UNL     1     -39.205  50.759 -54.042  1.00  0.00    -0.353 OA
HETATM   38  C   UNL     1     -40.100  49.748 -54.482  1.00  0.00     0.210 C 
ENDBRANCH  33  37
BRANCH  34  39
HETATM   39  O   UNL     1     -39.217  50.823 -51.427  1.00  0.00    -0.353 OA
HETATM   40  C   UNL     1     -40.017  50.170 -50.453  1.00  0.00     0.210 C 
ENDBRANCH  34  39
ENDBRANCH  29  31
ENDBRANCH  19  25
ENDBRANCH  15  16
ENDBRANCH  13  15
ENDBRANCH  11  13
ENDBRANCH   9  11
ENDBRANCH   1   9
TORSDOF 9
ENDMDL
MODEL 8
REMARK VINA RESULT:      -7.7      3.860      5.195
REMARK  9 active torsions:
REMARK  status: ('A' for Active; 'I' for Inactive)
REMARK    1  A    between atoms: C_4  and  C_5 
REMARK    2  A    between atoms: C_7  and  O_8 
REMARK    3  A    between atoms: C_10  and  O_11 
REMARK    4  A    between atoms: C_16  and  C_17 
REMARK    5  A    between atoms: C_20  and  C_21 
REMARK    6  A    between atoms: C_21  and  N_22 
REMARK    7  A    between atoms: N_22  and  C_23 
REMARK    8  A    between atoms: C_23  and  N_24 
REMARK    9  A    between atoms: N_24  and  C_25 
ROOT
HETATM    1  C   UNL     1     -44.714  61.615 -47.992  1.00  0.00     0.034 A 
HETATM    2  C   UNL     1     -44.715  63.009 -48.106  1.00  0.00     0.031 A 
HETATM    3  C   UNL     1     -45.081  63.811 -47.020  1.00  0.00     0.025 A 
HETATM    4  C   UNL     1     -45.441  63.227 -45.802  1.00  0.00     0.044 A 
HETATM    5  C   UNL     1     -45.820  64.053 -44.694  1.00  0.00     0.099 C 
HETATM    6  N   UNL     1     -46.135  64.740 -43.814  1.00  0.00    -0.191 NA
HETATM    7  C   UNL     1     -45.415  61.837 -45.674  1.00  0.00     0.025 A 
HETATM    8  C   UNL     1     -45.041  61.038 -46.761  1.00  0.00     0.031 A 
ENDROOT
BRANCH   1   9
HETATM    9  N   UNL     1     -44.324  60.747 -49.032  1.00  0.00    -0.333 N 
HETATM   10  H   UNL     1     -43.785  59.933 -48.743  1.00  0.00     0.168 HD
BRANCH   9  11
HETATM   11  C   UNL     1     -44.423  60.869 -50.389  1.00  0.00     0.172 C 
HETATM   12  S   UNL     1     -45.944  60.866 -51.077  1.00  0.00    -0.041 SA
BRANCH  11  13
HETATM   13  N   UNL     1     -43.247  61.042 -51.073  1.00  0.00    -0.365 N 
HETATM   14  H   UNL     1     -43.059  62.027 -51.238  1.00  0.00     0.161 HD
BRANCH  13  15
HETATM   15  C   UNL     1     -42.679  60.080 -52.015  1.00  0.00     0.155 C 
BRANCH  15  16
HETATM   16  C   UNL     1     -42.866  60.500 -53.489  1.00  0.00     0.206 C 
HETATM   17  C   UNL     1     -41.776  59.960 -54.430  1.00  0.00     0.040 C 
HETATM   18  C   UNL     1     -42.375  59.372 -55.727  1.00  0.00     0.001 C 
HETATM   19  C   UNL     1     -43.322  58.184 -55.458  1.00  0.00     0.067 C 
HETATM   20  C   UNL     1     -43.268  60.502 -56.312  1.00  0.00     0.033 C 
HETATM   21  C   UNL     1     -44.259  58.534 -54.283  1.00  0.00     0.246 C 
HETATM   22  N   UNL     1     -44.208  60.050 -54.059  1.00  0.00    -0.065 N 
HETATM   23  C   UNL     1     -44.459  60.776 -55.378  1.00  0.00     0.236 C 
HETATM   24  H   UNL     1     -44.961  60.302 -53.402  1.00  0.00     0.280 HD
BRANCH  19  25
HETATM   25  C   UNL     1     -42.811  56.772 -55.382  1.00  0.00     0.038 C 
HETATM   26  N   UNL     1     -42.657  55.806 -56.349  1.00  0.00    -0.277 N 
HETATM   27  C   UNL     1     -43.089  55.758 -57.724  1.00  0.00     0.179 C 
HETATM   28  N   UNL     1     -41.963  54.741 -55.924  1.00  0.00    -0.172 NA
HETATM   29  C   UNL     1     -41.794  54.911 -54.611  1.00  0.00     0.089 C 
HETATM   30  C   UNL     1     -42.323  56.165 -54.229  1.00  0.00     0.061 C 
BRANCH  29  31
HETATM   31  C   UNL     1     -41.103  53.923 -53.785  1.00  0.00    -0.003 A 
HETATM   32  C   UNL     1     -40.857  54.189 -52.429  1.00  0.00     0.053 A 
HETATM   33  C   UNL     1     -40.226  53.244 -51.612  1.00  0.00     0.102 A 
HETATM   34  C   UNL     1     -39.816  52.013 -52.161  1.00  0.00     0.101 A 
HETATM   35  C   UNL     1     -40.051  51.750 -53.514  1.00  0.00     0.040 A 
HETATM   36  C   UNL     1     -40.691  52.697 -54.320  1.00  0.00     0.017 A 
BRANCH  33  37
HETATM   37  O   UNL     1     -39.971  53.424 -50.275  1.00  0.00    -0.353 OA
HETATM   38  C   UNL     1     -40.925  54.143 -49.509  1.00  0.00     0.210 C 
ENDBRANCH  33  37
BRANCH  34  39
HETATM   39  O   UNL     1     -39.212  51.137 -51.295  1.00  0.00    -0.353 OA
HETATM   40  C   UNL     1     -39.495  49.754 -51.450  1.00  0.00     0.210 C 
ENDBRANCH  34  39
ENDBRANCH  29  31
ENDBRANCH  19  25
ENDBRANCH  15  16
ENDBRANCH  13  15
ENDBRANCH  11  13
ENDBRANCH   9  11
ENDBRANCH   1   9
TORSDOF 9
ENDMDL
MODEL 9
REMARK VINA RESULT:      -7.7      2.029      5.229
REMARK  9 active torsions:
REMARK  status: ('A' for Active; 'I' for Inactive)
REMARK    1  A    between atoms: C_4  and  C_5 
REMARK    2  A    between atoms: C_7  and  O_8 
REMARK    3  A    between atoms: C_10  and  O_11 
REMARK    4  A    between atoms: C_16  and  C_17 
REMARK    5  A    between atoms: C_20  and  C_21 
REMARK    6  A    between atoms: C_21  and  N_22 
REMARK    7  A    between atoms: N_22  and  C_23 
REMARK    8  A    between atoms: C_23  and  N_24 
REMARK    9  A    between atoms: N_24  and  C_25 
ROOT
HETATM    1  C   UNL     1     -42.996  59.756 -60.208  1.00  0.00     0.034 A 
HETATM    2  C   UNL     1     -44.371  59.508 -60.152  1.00  0.00     0.031 A 
HETATM    3  C   UNL     1     -44.856  58.195 -60.143  1.00  0.00     0.025 A 
HETATM    4  C   UNL     1     -43.971  57.116 -60.180  1.00  0.00     0.044 A 
HETATM    5  C   UNL     1     -44.474  55.774 -60.176  1.00  0.00     0.099 C 
HETATM    6  N   UNL     1     -44.903  54.696 -60.183  1.00  0.00    -0.191 NA
HETATM    7  C   UNL     1     -42.596  57.357 -60.207  1.00  0.00     0.025 A 
HETATM    8  C   UNL     1     -42.113  58.671 -60.209  1.00  0.00     0.031 A 
ENDROOT
BRANCH   1   9
HETATM    9  N   UNL     1     -42.434  61.048 -60.186  1.00  0.00    -0.333 N 
HETATM   10  H   UNL     1     -42.454  61.549 -61.072  1.00  0.00     0.168 HD
BRANCH   9  11
HETATM   11  C   UNL     1     -41.739  61.710 -59.213  1.00  0.00     0.172 C 
HETATM   12  S   UNL     1     -40.294  62.435 -59.626  1.00  0.00    -0.041 SA
BRANCH  11  13
HETATM   13  N   UNL     1     -42.327  61.768 -57.975  1.00  0.00    -0.365 N 
HETATM   14  H   UNL     1     -42.693  62.697 -57.786  1.00  0.00     0.161 HD
BRANCH  13  15
HETATM   15  C   UNL     1     -41.946  60.947 -56.829  1.00  0.00     0.155 C 
BRANCH  15  16
HETATM   16  C   UNL     1     -42.999  60.963 -55.700  1.00  0.00     0.206 C 
HETATM   17  C   UNL     1     -43.940  59.747 -55.713  1.00  0.00     0.040 C 
HETATM   18  C   UNL     1     -44.125  59.147 -54.302  1.00  0.00     0.001 C 
HETATM   19  C   UNL     1     -42.798  58.645 -53.693  1.00  0.00     0.067 C 
HETATM   20  C   UNL     1     -44.576  60.337 -53.409  1.00  0.00     0.033 C 
HETATM   21  C   UNL     1     -41.697  59.698 -53.929  1.00  0.00     0.246 C 
HETATM   22  N   UNL     1     -42.367  61.022 -54.313  1.00  0.00    -0.065 N 
HETATM   23  C   UNL     1     -43.444  61.372 -53.289  1.00  0.00     0.236 C 
HETATM   24  H   UNL     1     -41.650  61.761 -54.294  1.00  0.00     0.280 HD
BRANCH  19  25
HETATM   25  C   UNL     1     -42.309  57.242 -53.924  1.00  0.00     0.038 C 
HETATM   26  N   UNL     1     -42.040  56.550 -55.082  1.00  0.00    -0.277 N 
HETATM   27  C   UNL     1     -42.296  56.872 -56.465  1.00  0.00     0.179 C 
HETATM   28  N   UNL     1     -41.412  55.385 -54.867  1.00  0.00    -0.172 NA
HETATM   29  C   UNL     1     -41.410  55.207 -53.544  1.00  0.00     0.089 C 
HETATM   30  C   UNL     1     -41.974  56.341 -52.917  1.00  0.00     0.061 C 
BRANCH  29  31
HETATM   31  C   UNL     1     -40.834  54.015 -52.925  1.00  0.00    -0.003 A 
HETATM   32  C   UNL     1     -40.465  52.918 -53.721  1.00  0.00     0.053 A 
HETATM   33  C   UNL     1     -39.882  51.780 -53.152  1.00  0.00     0.102 A 
HETATM   34  C   UNL     1     -39.678  51.725 -51.759  1.00  0.00     0.101 A 
HETATM   35  C   UNL     1     -40.054  52.812 -50.964  1.00  0.00     0.040 A 
HETATM   36  C   UNL     1     -40.626  53.949 -51.543  1.00  0.00     0.017 A 
BRANCH  33  37
HETATM   37  O   UNL     1     -39.478  50.679 -53.866  1.00  0.00    -0.353 OA
HETATM   38  C   UNL     1     -40.358  50.173 -54.858  1.00  0.00     0.210 C 
ENDBRANCH  33  37
BRANCH  34  39
HETATM   39  O   UNL     1     -39.095  50.579 -51.280  1.00  0.00    -0.353 OA
HETATM   40  C   UNL     1     -39.834  49.803 -50.348  1.00  0.00     0.210 C 
ENDBRANCH  34  39
ENDBRANCH  29  31
ENDBRANCH  19  25
ENDBRANCH  15  16
ENDBRANCH  13  15
ENDBRANCH  11  13
ENDBRANCH   9  11
ENDBRANCH   1   9
TORSDOF 9
ENDMDL
MODEL 10
REMARK VINA RESULT:      -7.6      4.751      6.949
REMARK  9 active torsions:
REMARK  status: ('A' for Active; 'I' for Inactive)
REMARK    1  A    between atoms: C_4  and  C_5 
REMARK    2  A    between atoms: C_7  and  O_8 
REMARK    3  A    between atoms: C_10  and  O_11 
REMARK    4  A    between atoms: C_16  and  C_17 
REMARK    5  A    between atoms: C_20  and  C_21 
REMARK    6  A    between atoms: C_21  and  N_22 
REMARK    7  A    between atoms: N_22  and  C_23 
REMARK    8  A    between atoms: C_23  and  N_24 
REMARK    9  A    between atoms: N_24  and  C_25 
ROOT
HETATM    1  C   UNL     1     -49.796  62.373 -54.175  1.00  0.00     0.034 A 
HETATM    2  C   UNL     1     -49.549  63.101 -53.007  1.00  0.00     0.031 A 
HETATM    3  C   UNL     1     -50.558  63.284 -52.056  1.00  0.00     0.025 A 
HETATM    4  C   UNL     1     -51.825  62.730 -52.257  1.00  0.00     0.044 A 
HETATM    5  C   UNL     1     -52.857  62.925 -51.282  1.00  0.00     0.099 C 
HETATM    6  N   UNL     1     -53.681  63.105 -50.485  1.00  0.00    -0.191 NA
HETATM    7  C   UNL     1     -52.070  61.979 -53.408  1.00  0.00     0.025 A 
HETATM    8  C   UNL     1     -51.056  61.792 -54.355  1.00  0.00     0.031 A 
ENDROOT
BRANCH   1   9
HETATM    9  N   UNL     1     -48.819  62.120 -55.159  1.00  0.00    -0.333 N 
HETATM   10  H   UNL     1     -49.105  61.491 -55.907  1.00  0.00     0.168 HD
BRANCH   9  11
HETATM   11  C   UNL     1     -47.498  62.463 -55.223  1.00  0.00     0.172 C 
HETATM   12  S   UNL     1     -47.084  63.886 -55.990  1.00  0.00    -0.041 SA
BRANCH  11  13
HETATM   13  N   UNL     1     -46.619  61.620 -54.592  1.00  0.00    -0.365 N 
HETATM   14  H   UNL     1     -47.055  60.728 -54.376  1.00  0.00     0.161 HD
BRANCH  13  15
HETATM   15  C   UNL     1     -45.511  62.052 -53.743  1.00  0.00     0.155 C 
BRANCH  15  16
HETATM   16  C   UNL     1     -45.678  61.619 -52.270  1.00  0.00     0.206 C 
HETATM   17  C   UNL     1     -46.351  60.247 -52.101  1.00  0.00     0.040 C 
HETATM   18  C   UNL     1     -45.612  59.367 -51.069  1.00  0.00     0.001 C 
HETATM   19  C   UNL     1     -44.153  59.071 -51.479  1.00  0.00     0.067 C 
HETATM   20  C   UNL     1     -45.522  60.235 -49.783  1.00  0.00     0.033 C 
HETATM   21  C   UNL     1     -43.489  60.370 -51.978  1.00  0.00     0.246 C 
HETATM   22  N   UNL     1     -44.348  61.557 -51.526  1.00  0.00    -0.065 N 
HETATM   23  C   UNL     1     -44.619  61.456 -50.027  1.00  0.00     0.236 C 
HETATM   24  H   UNL     1     -43.816  62.422 -51.701  1.00  0.00     0.280 HD
BRANCH  19  25
HETATM   25  C   UNL     1     -43.803  57.883 -52.331  1.00  0.00     0.038 C 
HETATM   26  N   UNL     1     -44.079  57.592 -53.647  1.00  0.00    -0.277 N 
HETATM   27  C   UNL     1     -44.940  58.242 -54.605  1.00  0.00     0.179 C 
HETATM   28  N   UNL     1     -43.405  56.528 -54.105  1.00  0.00    -0.172 NA
HETATM   29  C   UNL     1     -42.799  55.991 -53.044  1.00  0.00     0.089 C 
HETATM   30  C   UNL     1     -43.034  56.802 -51.910  1.00  0.00     0.061 C 
BRANCH  29  31
HETATM   31  C   UNL     1     -41.988  54.780 -53.146  1.00  0.00    -0.003 A 
HETATM   32  C   UNL     1     -41.271  54.318 -52.031  1.00  0.00     0.053 A 
HETATM   33  C   UNL     1     -40.515  53.142 -52.098  1.00  0.00     0.102 A 
HETATM   34  C   UNL     1     -40.458  52.419 -53.306  1.00  0.00     0.101 A 
HETATM   35  C   UNL     1     -41.164  52.883 -54.420  1.00  0.00     0.040 A 
HETATM   36  C   UNL     1     -41.925  54.053 -54.341  1.00  0.00     0.017 A 
BRANCH  33  37
HETATM   37  O   UNL     1     -39.804  52.618 -51.047  1.00  0.00    -0.353 OA
HETATM   38  C   UNL     1     -40.323  52.803 -49.738  1.00  0.00     0.210 C 
ENDBRANCH  33  37
BRANCH  34  39
HETATM   39  O   UNL     1     -39.702  51.274 -53.289  1.00  0.00    -0.353 OA
HETATM   40  C   UNL     1     -39.926  50.319 -54.316  1.00  0.00     0.210 C 
ENDBRANCH  34  39
ENDBRANCH  29  31
ENDBRANCH  19  25
ENDBRANCH  15  16
ENDBRANCH  13  15
ENDBRANCH  11  13
ENDBRANCH   9  11
ENDBRANCH   1   9
TORSDOF 9
ENDMDL
