MODEL 1
REMARK VINA RESULT:      -7.9      0.000      0.000
REMARK  8 active torsions:
REMARK  status: ('A' for Active; 'I' for Inactive)
REMARK    1  A    between atoms: O_2  and  C_3 
REMARK    2  A    between atoms: C_3  and  C_4 
REMARK    3  A    between atoms: C_6  and  C_7 
REMARK    4  A    between atoms: C_7  and  N_8 
REMARK    5  A    between atoms: C_17  and  C_18 
REMARK    6  A    between atoms: C_18  and  N_19 
REMARK    7  A    between atoms: C_23  and  O_24 
REMARK    8  A    between atoms: C_23  and  C_25 
ROOT
HETATM    1  N   UNL     1     -42.221  55.750 -51.689  1.00  0.00    -0.059 N 
HETATM    2  H   UNL     1     -41.478  55.147 -51.306  1.00  0.00     0.280 HD
HETATM    3  C   UNL     1     -41.523  57.047 -52.015  1.00  0.00     0.276 C 
HETATM    4  C   UNL     1     -42.332  58.001 -52.847  1.00  0.00     0.002 A 
HETATM    5  C   UNL     1     -43.527  58.522 -52.353  1.00  0.00     0.076 A 
HETATM    6  O   UNL     1     -43.960  58.217 -51.093  1.00  0.00    -0.349 OA
HETATM    7  C   UNL     1     -44.403  56.857 -50.981  1.00  0.00     0.203 C 
HETATM    8  C   UNL     1     -43.258  55.910 -50.592  1.00  0.00     0.262 C 
HETATM    9  C   UNL     1     -41.897  58.402 -54.124  1.00  0.00     0.020 A 
HETATM   10  C   UNL     1     -42.640  59.318 -54.894  1.00  0.00    -0.032 A 
HETATM   11  C   UNL     1     -43.840  59.819 -54.370  1.00  0.00     0.011 A 
HETATM   12  C   UNL     1     -44.271  59.437 -53.096  1.00  0.00     0.038 A 
ENDROOT
BRANCH  10  13
HETATM   13  C   UNL     1     -42.142  59.743 -56.256  1.00  0.00     0.273 C 
BRANCH  13  14
HETATM   14  N   UNL     1     -42.069  58.642 -57.302  1.00  0.00    -0.067 N 
HETATM   15  H   UNL     1     -41.151  58.191 -57.187  1.00  0.00     0.280 HD
HETATM   16  C   UNL     1     -43.117  57.568 -57.121  1.00  0.00     0.238 C 
HETATM   17  C   UNL     1     -42.934  56.499 -58.183  1.00  0.00     0.071 C 
HETATM   18  C   UNL     1     -43.096  57.072 -59.605  1.00  0.00     0.089 C 
HETATM   19  C   UNL     1     -42.024  58.168 -59.761  1.00  0.00     0.071 C 
HETATM   20  C   UNL     1     -42.104  59.247 -58.691  1.00  0.00     0.238 C 
BRANCH  18  21
HETATM   21  O   UNL     1     -42.726  56.025 -60.505  1.00  0.00    -0.385 OA
HETATM   22  H   UNL     1     -42.039  55.461 -60.101  1.00  0.00     0.211 HD
ENDBRANCH  18  21
BRANCH  18  23
HETATM   23  C   UNL     1     -44.533  57.475 -59.909  1.00  0.00    -0.006 A 
HETATM   24  C   UNL     1     -44.899  58.741 -60.362  1.00  0.00     0.126 A 
HETATM   25  N   UNL     1     -46.171  59.148 -60.566  1.00  0.00    -0.272 NA
HETATM   26  C   UNL     1     -47.149  58.235 -60.398  1.00  0.00     0.116 A 
HETATM   27  C   UNL     1     -46.904  56.932 -60.014  1.00  0.00     0.020 A 
HETATM   28  C   UNL     1     -45.586  56.553 -59.771  1.00  0.00     0.013 A 
ENDBRANCH  18  23
ENDBRANCH  13  14
ENDBRANCH  10  13
BRANCH   1  29
HETATM   29  C   UNL     1     -42.722  54.963 -52.883  1.00  0.00     0.299 C 
BRANCH  29  30
HETATM   30  C   UNL     1     -41.661  54.255 -53.639  1.00  0.00     0.079 A 
HETATM   31  O   UNL     1     -41.108  53.164 -53.038  1.00  0.00    -0.316 OA
HETATM   32  C   UNL     1     -40.210  52.628 -53.918  1.00  0.00     0.077 A 
HETATM   33  C   UNL     1     -40.157  53.402 -55.058  1.00  0.00     0.037 A 
HETATM   34  C   UNL     1     -41.093  54.450 -54.879  1.00  0.00     0.037 A 
BRANCH  32  35
HETATM   35  C   UNL     1     -39.512  51.377 -53.512  1.00  0.00     0.231 C 
BRANCH  35  36
HETATM   36  O   UNL     1     -39.182  51.513 -52.133  1.00  0.00    -0.390 OA
HETATM   37  C   UNL     1     -39.501  50.332 -51.405  1.00  0.00     0.201 C 
ENDBRANCH  35  36
ENDBRANCH  32  35
ENDBRANCH  29  30
ENDBRANCH   1  29
TORSDOF 8
ENDMDL
MODEL 2
REMARK VINA RESULT:      -7.9      1.995      5.341
REMARK  8 active torsions:
REMARK  status: ('A' for Active; 'I' for Inactive)
REMARK    1  A    between atoms: O_2  and  C_3 
REMARK    2  A    between atoms: C_3  and  C_4 
REMARK    3  A    between atoms: C_6  and  C_7 
REMARK    4  A    between atoms: C_7  and  N_8 
REMARK    5  A    between atoms: C_17  and  C_18 
REMARK    6  A    between atoms: C_18  and  N_19 
REMARK    7  A    between atoms: C_23  and  O_24 
REMARK    8  A    between atoms: C_23  and  C_25 
ROOT
HETATM    1  N   UNL     1     -42.274  55.888 -50.115  1.00  0.00    -0.059 N 
HETATM    2  H   UNL     1     -42.919  56.317 -49.433  1.00  0.00     0.280 HD
HETATM    3  C   UNL     1     -43.130  54.902 -50.871  1.00  0.00     0.276 C 
HETATM    4  C   UNL     1     -42.493  54.343 -52.111  1.00  0.00     0.002 A 
HETATM    5  C   UNL     1     -41.326  53.584 -52.019  1.00  0.00     0.076 A 
HETATM    6  O   UNL     1     -40.770  53.295 -50.804  1.00  0.00    -0.349 OA
HETATM    7  C   UNL     1     -40.177  54.445 -50.186  1.00  0.00     0.203 C 
HETATM    8  C   UNL     1     -41.182  55.209 -49.310  1.00  0.00     0.262 C 
HETATM    9  C   UNL     1     -43.062  54.554 -53.381  1.00  0.00     0.020 A 
HETATM   10  C   UNL     1     -42.481  54.008 -54.541  1.00  0.00    -0.032 A 
HETATM   11  C   UNL     1     -41.306  53.253 -54.414  1.00  0.00     0.011 A 
HETATM   12  C   UNL     1     -40.743  53.028 -53.155  1.00  0.00     0.038 A 
ENDROOT
BRANCH  10  13
HETATM   13  C   UNL     1     -43.123  54.237 -55.891  1.00  0.00     0.273 C 
BRANCH  13  14
HETATM   14  N   UNL     1     -42.622  55.449 -56.659  1.00  0.00    -0.067 N 
HETATM   15  H   UNL     1     -41.596  55.367 -56.697  1.00  0.00     0.280 HD
HETATM   16  C   UNL     1     -43.116  55.506 -58.085  1.00  0.00     0.238 C 
HETATM   17  C   UNL     1     -42.529  56.724 -58.776  1.00  0.00     0.071 C 
HETATM   18  C   UNL     1     -42.954  58.035 -58.084  1.00  0.00     0.089 C 
HETATM   19  C   UNL     1     -42.446  57.948 -56.631  1.00  0.00     0.071 C 
HETATM   20  C   UNL     1     -42.943  56.716 -55.891  1.00  0.00     0.238 C 
BRANCH  18  21
HETATM   21  O   UNL     1     -42.202  59.079 -58.704  1.00  0.00    -0.385 OA
HETATM   22  H   UNL     1     -41.935  58.813 -59.605  1.00  0.00     0.211 HD
ENDBRANCH  18  21
BRANCH  18  23
HETATM   23  C   UNL     1     -44.435  58.337 -58.271  1.00  0.00    -0.006 A 
HETATM   24  C   UNL     1     -45.237  58.903 -57.283  1.00  0.00     0.126 A 
HETATM   25  N   UNL     1     -46.567  59.110 -57.396  1.00  0.00    -0.272 NA
HETATM   26  C   UNL     1     -47.141  58.827 -58.583  1.00  0.00     0.116 A 
HETATM   27  C   UNL     1     -46.436  58.323 -59.658  1.00  0.00     0.020 A 
HETATM   28  C   UNL     1     -45.074  58.081 -59.498  1.00  0.00     0.013 A 
ENDBRANCH  18  23
ENDBRANCH  13  14
ENDBRANCH  10  13
BRANCH   1  29
HETATM   29  C   UNL     1     -41.784  57.074 -50.919  1.00  0.00     0.299 C 
BRANCH  29  30
HETATM   30  C   UNL     1     -42.859  57.860 -51.571  1.00  0.00     0.079 A 
HETATM   31  O   UNL     1     -44.004  58.038 -50.853  1.00  0.00    -0.316 OA
HETATM   32  C   UNL     1     -44.830  58.833 -51.599  1.00  0.00     0.077 A 
HETATM   33  C   UNL     1     -44.230  59.122 -52.806  1.00  0.00     0.037 A 
HETATM   34  C   UNL     1     -42.959  58.497 -52.788  1.00  0.00     0.037 A 
BRANCH  32  35
HETATM   35  C   UNL     1     -46.134  59.225 -50.997  1.00  0.00     0.231 C 
BRANCH  35  36
HETATM   36  O   UNL     1     -45.923  59.356 -49.595  1.00  0.00    -0.390 OA
HETATM   37  C   UNL     1     -45.500  60.672 -49.255  1.00  0.00     0.201 C 
ENDBRANCH  35  36
ENDBRANCH  32  35
ENDBRANCH  29  30
ENDBRANCH   1  29
TORSDOF 8
ENDMDL
MODEL 3
REMARK VINA RESULT:      -7.7      2.276      7.643
REMARK  8 active torsions:
REMARK  status: ('A' for Active; 'I' for Inactive)
REMARK    1  A    between atoms: O_2  and  C_3 
REMARK    2  A    between atoms: C_3  and  C_4 
REMARK    3  A    between atoms: C_6  and  C_7 
REMARK    4  A    between atoms: C_7  and  N_8 
REMARK    5  A    between atoms: C_17  and  C_18 
REMARK    6  A    between atoms: C_18  and  N_19 
REMARK    7  A    between atoms: C_23  and  O_24 
REMARK    8  A    between atoms: C_23  and  C_25 
ROOT
HETATM    1  N   UNL     1     -43.862  59.867 -56.246  1.00  0.00    -0.059 N 
HETATM    2  H   UNL     1     -44.180  59.667 -57.206  1.00  0.00     0.280 HD
HETATM    3  C   UNL     1     -44.987  59.379 -55.369  1.00  0.00     0.276 C 
HETATM    4  C   UNL     1     -44.651  59.302 -53.906  1.00  0.00     0.002 A 
HETATM    5  C   UNL     1     -44.318  60.458 -53.201  1.00  0.00     0.076 A 
HETATM    6  O   UNL     1     -44.337  61.682 -53.809  1.00  0.00    -0.349 OA
HETATM    7  C   UNL     1     -43.268  61.841 -54.751  1.00  0.00     0.203 C 
HETATM    8  C   UNL     1     -43.667  61.369 -56.158  1.00  0.00     0.262 C 
HETATM    9  C   UNL     1     -44.683  58.075 -53.216  1.00  0.00     0.020 A 
HETATM   10  C   UNL     1     -44.396  58.005 -51.839  1.00  0.00    -0.032 A 
HETATM   11  C   UNL     1     -44.060  59.186 -51.161  1.00  0.00     0.011 A 
HETATM   12  C   UNL     1     -44.040  60.409 -51.837  1.00  0.00     0.038 A 
ENDROOT
BRANCH  10  13
HETATM   13  C   UNL     1     -44.453  56.677 -51.119  1.00  0.00     0.273 C 
BRANCH  13  14
HETATM   14  N   UNL     1     -43.150  56.218 -50.485  1.00  0.00    -0.067 N 
HETATM   15  H   UNL     1     -43.092  56.683 -49.568  1.00  0.00     0.280 HD
HETATM   16  C   UNL     1     -43.095  54.729 -50.231  1.00  0.00     0.238 C 
HETATM   17  C   UNL     1     -41.778  54.379 -49.560  1.00  0.00     0.071 C 
HETATM   18  C   UNL     1     -40.571  54.745 -50.445  1.00  0.00     0.089 C 
HETATM   19  C   UNL     1     -40.655  56.264 -50.696  1.00  0.00     0.071 C 
HETATM   20  C   UNL     1     -41.975  56.701 -51.311  1.00  0.00     0.238 C 
BRANCH  18  21
HETATM   21  O   UNL     1     -39.407  54.540 -49.642  1.00  0.00    -0.385 OA
HETATM   22  H   UNL     1     -38.655  54.266 -50.201  1.00  0.00     0.211 HD
ENDBRANCH  18  21
BRANCH  18  23
HETATM   23  C   UNL     1     -40.462  53.856 -51.677  1.00  0.00    -0.006 A 
HETATM   24  C   UNL     1     -40.056  52.524 -51.633  1.00  0.00     0.126 A 
HETATM   25  N   UNL     1     -39.877  51.737 -52.716  1.00  0.00    -0.272 NA
HETATM   26  C   UNL     1     -40.197  52.255 -53.919  1.00  0.00     0.116 A 
HETATM   27  C   UNL     1     -40.671  53.541 -54.082  1.00  0.00     0.020 A 
HETATM   28  C   UNL     1     -40.805  54.342 -52.951  1.00  0.00     0.013 A 
ENDBRANCH  18  23
ENDBRANCH  13  14
ENDBRANCH  10  13
BRANCH   1  29
HETATM   29  C   UNL     1     -42.570  59.083 -56.142  1.00  0.00     0.299 C 
BRANCH  29  30
HETATM   30  C   UNL     1     -42.699  57.642 -56.465  1.00  0.00     0.079 A 
HETATM   31  O   UNL     1     -43.220  57.335 -57.687  1.00  0.00    -0.316 OA
HETATM   32  C   UNL     1     -43.194  55.974 -57.809  1.00  0.00     0.077 A 
HETATM   33  C   UNL     1     -42.699  55.413 -56.650  1.00  0.00     0.037 A 
HETATM   34  C   UNL     1     -42.379  56.487 -55.785  1.00  0.00     0.037 A 
BRANCH  32  35
HETATM   35  C   UNL     1     -43.659  55.390 -59.097  1.00  0.00     0.231 C 
BRANCH  35  36
HETATM   36  O   UNL     1     -44.795  56.144 -59.510  1.00  0.00    -0.390 OA
HETATM   37  C   UNL     1     -45.594  55.413 -60.434  1.00  0.00     0.201 C 
ENDBRANCH  35  36
ENDBRANCH  32  35
ENDBRANCH  29  30
ENDBRANCH   1  29
TORSDOF 8
ENDMDL
MODEL 4
REMARK VINA RESULT:      -7.6      1.947      5.309
REMARK  8 active torsions:
REMARK  status: ('A' for Active; 'I' for Inactive)
REMARK    1  A    between atoms: O_2  and  C_3 
REMARK    2  A    between atoms: C_3  and  C_4 
REMARK    3  A    between atoms: C_6  and  C_7 
REMARK    4  A    between atoms: C_7  and  N_8 
REMARK    5  A    between atoms: C_17  and  C_18 
REMARK    6  A    between atoms: C_18  and  N_19 
REMARK    7  A    between atoms: C_23  and  O_24 
REMARK    8  A    between atoms: C_23  and  C_25 
ROOT
HETATM    1  N   UNL     1     -42.034  55.250 -50.004  1.00  0.00    -0.059 N 
HETATM    2  H   UNL     1     -42.676  55.497 -49.236  1.00  0.00     0.280 HD
HETATM    3  C   UNL     1     -42.807  54.257 -50.835  1.00  0.00     0.276 C 
HETATM    4  C   UNL     1     -42.197  53.951 -52.173  1.00  0.00     0.002 A 
HETATM    5  C   UNL     1     -40.937  53.357 -52.251  1.00  0.00     0.076 A 
HETATM    6  O   UNL     1     -40.259  52.999 -51.119  1.00  0.00    -0.349 OA
HETATM    7  C   UNL     1     -39.777  54.135 -50.388  1.00  0.00     0.203 C 
HETATM    8  C   UNL     1     -40.805  54.636 -49.362  1.00  0.00     0.262 C 
HETATM    9  C   UNL     1     -42.883  54.237 -53.369  1.00  0.00     0.020 A 
HETATM   10  C   UNL     1     -42.324  53.926 -54.623  1.00  0.00    -0.032 A 
HETATM   11  C   UNL     1     -41.054  53.333 -54.666  1.00  0.00     0.011 A 
HETATM   12  C   UNL     1     -40.373  53.033 -53.482  1.00  0.00     0.038 A 
ENDROOT
BRANCH  10  13
HETATM   13  C   UNL     1     -43.090  54.229 -55.891  1.00  0.00     0.273 C 
BRANCH  13  14
HETATM   14  N   UNL     1     -42.590  55.422 -56.690  1.00  0.00    -0.067 N 
HETATM   15  H   UNL     1     -41.567  55.325 -56.750  1.00  0.00     0.280 HD
HETATM   16  C   UNL     1     -43.116  55.462 -58.106  1.00  0.00     0.238 C 
HETATM   17  C   UNL     1     -42.529  56.661 -58.830  1.00  0.00     0.071 C 
HETATM   18  C   UNL     1     -42.921  57.988 -58.150  1.00  0.00     0.089 C 
HETATM   19  C   UNL     1     -42.382  57.918 -56.707  1.00  0.00     0.071 C 
HETATM   20  C   UNL     1     -42.878  56.705 -55.936  1.00  0.00     0.238 C 
BRANCH  18  21
HETATM   21  O   UNL     1     -42.170  59.012 -58.804  1.00  0.00    -0.385 OA
HETATM   22  H   UNL     1     -41.523  59.403 -58.186  1.00  0.00     0.211 HD
ENDBRANCH  18  21
BRANCH  18  23
HETATM   23  C   UNL     1     -44.402  58.307 -58.309  1.00  0.00    -0.006 A 
HETATM   24  C   UNL     1     -45.241  58.624 -57.243  1.00  0.00     0.126 A 
HETATM   25  N   UNL     1     -46.571  58.836 -57.347  1.00  0.00    -0.272 NA
HETATM   26  C   UNL     1     -47.107  58.822 -58.584  1.00  0.00     0.116 A 
HETATM   27  C   UNL     1     -46.364  58.584 -59.723  1.00  0.00     0.020 A 
HETATM   28  C   UNL     1     -45.003  58.328 -59.581  1.00  0.00     0.013 A 
ENDBRANCH  18  23
ENDBRANCH  13  14
ENDBRANCH  10  13
BRANCH   1  29
HETATM   29  C   UNL     1     -41.765  56.584 -50.670  1.00  0.00     0.299 C 
BRANCH  29  30
HETATM   30  C   UNL     1     -42.971  57.253 -51.214  1.00  0.00     0.079 A 
HETATM   31  O   UNL     1     -42.769  58.146 -52.225  1.00  0.00    -0.316 OA
HETATM   32  C   UNL     1     -43.999  58.594 -52.620  1.00  0.00     0.077 A 
HETATM   33  C   UNL     1     -44.977  58.024 -51.833  1.00  0.00     0.037 A 
HETATM   34  C   UNL     1     -44.316  57.159 -50.928  1.00  0.00     0.037 A 
BRANCH  32  35
HETATM   35  C   UNL     1     -44.049  59.543 -53.766  1.00  0.00     0.231 C 
BRANCH  35  36
HETATM   36  O   UNL     1     -44.274  60.841 -53.224  1.00  0.00    -0.390 OA
HETATM   37  C   UNL     1     -43.091  61.631 -53.262  1.00  0.00     0.201 C 
ENDBRANCH  35  36
ENDBRANCH  32  35
ENDBRANCH  29  30
ENDBRANCH   1  29
TORSDOF 8
ENDMDL
MODEL 5
REMARK VINA RESULT:      -7.5      2.567      9.456
REMARK  8 active torsions:
REMARK  status: ('A' for Active; 'I' for Inactive)
REMARK    1  A    between atoms: O_2  and  C_3 
REMARK    2  A    between atoms: C_3  and  C_4 
REMARK    3  A    between atoms: C_6  and  C_7 
REMARK    4  A    between atoms: C_7  and  N_8 
REMARK    5  A    between atoms: C_17  and  C_18 
REMARK    6  A    between atoms: C_18  and  N_19 
REMARK    7  A    between atoms: C_23  and  O_24 
REMARK    8  A    between atoms: C_23  and  C_25 
ROOT
HETATM    1  N   UNL     1     -44.276  57.874 -58.876  1.00  0.00    -0.059 N 
HETATM    2  H   UNL     1     -44.274  58.778 -59.371  1.00  0.00     0.280 HD
HETATM    3  C   UNL     1     -43.360  58.089 -57.697  1.00  0.00     0.276 C 
HETATM    4  C   UNL     1     -43.410  57.005 -56.659  1.00  0.00     0.002 A 
HETATM    5  C   UNL     1     -43.032  55.703 -56.986  1.00  0.00     0.076 A 
HETATM    6  O   UNL     1     -42.566  55.399 -58.234  1.00  0.00    -0.349 OA
HETATM    7  C   UNL     1     -43.597  55.445 -59.229  1.00  0.00     0.203 C 
HETATM    8  C   UNL     1     -43.735  56.844 -59.849  1.00  0.00     0.262 C 
HETATM    9  C   UNL     1     -43.818  57.278 -55.340  1.00  0.00     0.020 A 
HETATM   10  C   UNL     1     -43.839  56.269 -54.358  1.00  0.00    -0.032 A 
HETATM   11  C   UNL     1     -43.458  54.969 -54.721  1.00  0.00     0.011 A 
HETATM   12  C   UNL     1     -43.038  54.693 -56.026  1.00  0.00     0.038 A 
ENDROOT
BRANCH  10  13
HETATM   13  C   UNL     1     -44.267  56.594 -52.945  1.00  0.00     0.273 C 
BRANCH  13  14
HETATM   14  N   UNL     1     -43.258  56.255 -51.860  1.00  0.00    -0.067 N 
HETATM   15  H   UNL     1     -43.447  56.896 -51.075  1.00  0.00     0.280 HD
HETATM   16  C   UNL     1     -43.396  54.848 -51.326  1.00  0.00     0.238 C 
HETATM   17  C   UNL     1     -42.377  54.623 -50.223  1.00  0.00     0.071 C 
HETATM   18  C   UNL     1     -40.933  54.787 -50.737  1.00  0.00     0.089 C 
HETATM   19  C   UNL     1     -40.821  56.224 -51.282  1.00  0.00     0.071 C 
HETATM   20  C   UNL     1     -41.854  56.546 -52.351  1.00  0.00     0.238 C 
BRANCH  18  21
HETATM   21  O   UNL     1     -40.088  54.733 -49.586  1.00  0.00    -0.385 OA
HETATM   22  H   UNL     1     -39.186  55.028 -49.816  1.00  0.00     0.211 HD
ENDBRANCH  18  21
BRANCH  18  23
HETATM   23  C   UNL     1     -40.521  53.665 -51.682  1.00  0.00    -0.006 A 
HETATM   24  C   UNL     1     -40.107  52.407 -51.251  1.00  0.00     0.126 A 
HETATM   25  N   UNL     1     -39.664  51.422 -52.063  1.00  0.00    -0.272 NA
HETATM   26  C   UNL     1     -39.709  51.646 -53.392  1.00  0.00     0.116 A 
HETATM   27  C   UNL     1     -40.162  52.829 -53.940  1.00  0.00     0.020 A 
HETATM   28  C   UNL     1     -40.572  53.842 -53.077  1.00  0.00     0.013 A 
ENDBRANCH  18  23
ENDBRANCH  13  14
ENDBRANCH  10  13
BRANCH   1  29
HETATM   29  C   UNL     1     -45.738  57.672 -58.534  1.00  0.00     0.299 C 
BRANCH  29  30
HETATM   30  C   UNL     1     -46.612  57.416 -59.704  1.00  0.00     0.079 A 
HETATM   31  O   UNL     1     -47.109  58.512 -60.345  1.00  0.00    -0.316 OA
HETATM   32  C   UNL     1     -47.827  58.063 -61.418  1.00  0.00     0.077 A 
HETATM   33  C   UNL     1     -47.825  56.684 -61.434  1.00  0.00     0.037 A 
HETATM   34  C   UNL     1     -47.041  56.267 -60.331  1.00  0.00     0.037 A 
BRANCH  32  35
HETATM   35  C   UNL     1     -48.425  59.084 -62.321  1.00  0.00     0.231 C 
BRANCH  35  36
HETATM   36  O   UNL     1     -49.734  59.358 -61.831  1.00  0.00    -0.390 OA
HETATM   37  C   UNL     1     -49.783  60.611 -61.156  1.00  0.00     0.201 C 
ENDBRANCH  35  36
ENDBRANCH  32  35
ENDBRANCH  29  30
ENDBRANCH   1  29
TORSDOF 8
ENDMDL
MODEL 6
REMARK VINA RESULT:      -7.4      3.188      8.016
REMARK  8 active torsions:
REMARK  status: ('A' for Active; 'I' for Inactive)
REMARK    1  A    between atoms: O_2  and  C_3 
REMARK    2  A    between atoms: C_3  and  C_4 
REMARK    3  A    between atoms: C_6  and  C_7 
REMARK    4  A    between atoms: C_7  and  N_8 
REMARK    5  A    between atoms: C_17  and  C_18 
REMARK    6  A    between atoms: C_18  and  N_19 
REMARK    7  A    between atoms: C_23  and  O_24 
REMARK    8  A    between atoms: C_23  and  C_25 
ROOT
HETATM    1  N   UNL     1     -41.024  55.075 -55.380  1.00  0.00    -0.059 N 
HETATM    2  H   UNL     1     -40.584  55.510 -56.205  1.00  0.00     0.280 HD
HETATM    3  C   UNL     1     -40.906  56.119 -54.298  1.00  0.00     0.276 C 
HETATM    4  C   UNL     1     -41.722  55.840 -53.068  1.00  0.00     0.002 A 
HETATM    5  C   UNL     1     -41.465  54.706 -52.297  1.00  0.00     0.076 A 
HETATM    6  O   UNL     1     -40.441  53.858 -52.616  1.00  0.00    -0.349 OA
HETATM    7  C   UNL     1     -40.708  53.100 -53.804  1.00  0.00     0.203 C 
HETATM    8  C   UNL     1     -40.223  53.825 -55.069  1.00  0.00     0.262 C 
HETATM    9  C   UNL     1     -42.744  56.717 -52.657  1.00  0.00     0.020 A 
HETATM   10  C   UNL     1     -43.491  56.471 -51.489  1.00  0.00    -0.032 A 
HETATM   11  C   UNL     1     -43.209  55.320 -50.740  1.00  0.00     0.011 A 
HETATM   12  C   UNL     1     -42.187  54.452 -51.134  1.00  0.00     0.038 A 
ENDROOT
BRANCH  10  13
HETATM   13  C   UNL     1     -44.572  57.438 -51.062  1.00  0.00     0.273 C 
BRANCH  13  14
HETATM   14  N   UNL     1     -44.489  58.827 -51.674  1.00  0.00    -0.067 N 
HETATM   15  H   UNL     1     -44.195  58.699 -52.652  1.00  0.00     0.280 HD
HETATM   16  C   UNL     1     -45.814  59.554 -51.701  1.00  0.00     0.238 C 
HETATM   17  C   UNL     1     -45.635  60.908 -52.365  1.00  0.00     0.071 C 
HETATM   18  C   UNL     1     -44.633  61.793 -51.598  1.00  0.00     0.089 C 
HETATM   19  C   UNL     1     -43.296  61.027 -51.577  1.00  0.00     0.071 C 
HETATM   20  C   UNL     1     -43.408  59.633 -50.981  1.00  0.00     0.238 C 
BRANCH  18  21
HETATM   21  O   UNL     1     -44.415  62.949 -52.409  1.00  0.00    -0.385 OA
HETATM   22  H   UNL     1     -45.041  63.657 -52.163  1.00  0.00     0.211 HD
ENDBRANCH  18  21
BRANCH  18  23
HETATM   23  C   UNL     1     -45.177  62.252 -50.251  1.00  0.00    -0.006 A 
HETATM   24  C   UNL     1     -46.534  62.416 -49.983  1.00  0.00     0.126 A 
HETATM   25  N   UNL     1     -47.038  62.894 -48.824  1.00  0.00    -0.272 NA
HETATM   26  C   UNL     1     -46.166  63.151 -47.827  1.00  0.00     0.116 A 
HETATM   27  C   UNL     1     -44.804  62.965 -47.953  1.00  0.00     0.020 A 
HETATM   28  C   UNL     1     -44.311  62.511 -49.173  1.00  0.00     0.013 A 
ENDBRANCH  18  23
ENDBRANCH  13  14
ENDBRANCH  10  13
BRANCH   1  29
HETATM   29  C   UNL     1     -42.434  54.787 -55.854  1.00  0.00     0.299 C 
BRANCH  29  30
HETATM   30  C   UNL     1     -43.046  55.875 -56.654  1.00  0.00     0.079 A 
HETATM   31  O   UNL     1     -42.981  55.746 -58.010  1.00  0.00    -0.316 OA
HETATM   32  C   UNL     1     -43.652  56.808 -58.551  1.00  0.00     0.077 A 
HETATM   33  C   UNL     1     -44.102  57.635 -57.543  1.00  0.00     0.037 A 
HETATM   34  C   UNL     1     -43.714  57.034 -56.321  1.00  0.00     0.037 A 
BRANCH  32  35
HETATM   35  C   UNL     1     -43.775  56.860 -60.033  1.00  0.00     0.231 C 
BRANCH  35  36
HETATM   36  O   UNL     1     -42.453  56.825 -60.563  1.00  0.00    -0.390 OA
HETATM   37  C   UNL     1     -41.799  58.080 -60.409  1.00  0.00     0.201 C 
ENDBRANCH  35  36
ENDBRANCH  32  35
ENDBRANCH  29  30
ENDBRANCH   1  29
TORSDOF 8
ENDMDL
MODEL 7
REMARK VINA RESULT:      -7.4      2.875      6.613
REMARK  8 active torsions:
REMARK  status: ('A' for Active; 'I' for Inactive)
REMARK    1  A    between atoms: O_2  and  C_3 
REMARK    2  A    between atoms: C_3  and  C_4 
REMARK    3  A    between atoms: C_6  and  C_7 
REMARK    4  A    between atoms: C_7  and  N_8 
REMARK    5  A    between atoms: C_17  and  C_18 
REMARK    6  A    between atoms: C_18  and  N_19 
REMARK    7  A    between atoms: C_23  and  O_24 
REMARK    8  A    between atoms: C_23  and  C_25 
ROOT
HETATM    1  N   UNL     1     -41.986  55.254 -49.806  1.00  0.00    -0.059 N 
HETATM    2  H   UNL     1     -42.616  55.524 -49.036  1.00  0.00     0.280 HD
HETATM    3  C   UNL     1     -42.738  54.174 -50.544  1.00  0.00     0.276 C 
HETATM    4  C   UNL     1     -42.154  53.806 -51.878  1.00  0.00     0.002 A 
HETATM    5  C   UNL     1     -40.871  53.263 -51.957  1.00  0.00     0.076 A 
HETATM    6  O   UNL     1     -40.144  53.012 -50.827  1.00  0.00    -0.349 OA
HETATM    7  C   UNL     1     -39.693  54.215 -50.188  1.00  0.00     0.203 C 
HETATM    8  C   UNL     1     -40.712  54.738 -49.165  1.00  0.00     0.262 C 
HETATM    9  C   UNL     1     -42.886  53.981 -53.068  1.00  0.00     0.020 A 
HETATM   10  C   UNL     1     -42.351  53.610 -54.316  1.00  0.00    -0.032 A 
HETATM   11  C   UNL     1     -41.057  53.072 -54.360  1.00  0.00     0.011 A 
HETATM   12  C   UNL     1     -40.329  52.882 -53.182  1.00  0.00     0.038 A 
ENDROOT
BRANCH  10  13
HETATM   13  C   UNL     1     -43.166  53.795 -55.576  1.00  0.00     0.273 C 
BRANCH  13  14
HETATM   14  N   UNL     1     -43.550  55.228 -55.906  1.00  0.00    -0.067 N 
HETATM   15  H   UNL     1     -44.314  55.175 -56.594  1.00  0.00     0.280 HD
HETATM   16  C   UNL     1     -44.077  55.999 -54.718  1.00  0.00     0.238 C 
HETATM   17  C   UNL     1     -44.470  57.399 -55.158  1.00  0.00     0.071 C 
HETATM   18  C   UNL     1     -43.268  58.180 -55.723  1.00  0.00     0.089 C 
HETATM   19  C   UNL     1     -42.744  57.369 -56.926  1.00  0.00     0.071 C 
HETATM   20  C   UNL     1     -42.388  55.933 -56.576  1.00  0.00     0.238 C 
BRANCH  18  21
HETATM   21  O   UNL     1     -43.794  59.393 -56.263  1.00  0.00    -0.385 OA
HETATM   22  H   UNL     1     -44.765  59.414 -56.162  1.00  0.00     0.211 HD
ENDBRANCH  18  21
BRANCH  18  23
HETATM   23  C   UNL     1     -42.250  58.538 -54.648  1.00  0.00    -0.006 A 
HETATM   24  C   UNL     1     -42.198  59.780 -54.020  1.00  0.00     0.126 A 
HETATM   25  N   UNL     1     -41.260  60.150 -53.121  1.00  0.00    -0.272 NA
HETATM   26  C   UNL     1     -40.361  59.218 -52.743  1.00  0.00     0.116 A 
HETATM   27  C   UNL     1     -40.352  57.933 -53.248  1.00  0.00     0.020 A 
HETATM   28  C   UNL     1     -41.306  57.594 -54.204  1.00  0.00     0.013 A 
ENDBRANCH  18  23
ENDBRANCH  13  14
ENDBRANCH  10  13
BRANCH   1  29
HETATM   29  C   UNL     1     -41.798  56.551 -50.566  1.00  0.00     0.299 C 
BRANCH  29  30
HETATM   30  C   UNL     1     -43.053  57.292 -50.836  1.00  0.00     0.079 A 
HETATM   31  O   UNL     1     -42.995  58.650 -50.726  1.00  0.00    -0.316 OA
HETATM   32  C   UNL     1     -44.224  59.137 -51.074  1.00  0.00     0.077 A 
HETATM   33  C   UNL     1     -45.075  58.090 -51.360  1.00  0.00     0.037 A 
HETATM   34  C   UNL     1     -44.321  56.901 -51.209  1.00  0.00     0.037 A 
BRANCH  32  35
HETATM   35  C   UNL     1     -44.397  60.616 -51.092  1.00  0.00     0.231 C 
BRANCH  35  36
HETATM   36  O   UNL     1     -44.268  61.067 -49.748  1.00  0.00    -0.390 OA
HETATM   37  C   UNL     1     -45.500  60.957 -49.043  1.00  0.00     0.201 C 
ENDBRANCH  35  36
ENDBRANCH  32  35
ENDBRANCH  29  30
ENDBRANCH   1  29
TORSDOF 8
ENDMDL
MODEL 8
REMARK VINA RESULT:      -7.3      2.181      5.623
REMARK  8 active torsions:
REMARK  status: ('A' for Active; 'I' for Inactive)
REMARK    1  A    between atoms: O_2  and  C_3 
REMARK    2  A    between atoms: C_3  and  C_4 
REMARK    3  A    between atoms: C_6  and  C_7 
REMARK    4  A    between atoms: C_7  and  N_8 
REMARK    5  A    between atoms: C_17  and  C_18 
REMARK    6  A    between atoms: C_18  and  N_19 
REMARK    7  A    between atoms: C_23  and  O_24 
REMARK    8  A    between atoms: C_23  and  C_25 
ROOT
HETATM    1  N   UNL     1     -42.245  54.586 -50.530  1.00  0.00    -0.059 N 
HETATM    2  H   UNL     1     -42.962  54.623 -49.790  1.00  0.00     0.280 HD
HETATM    3  C   UNL     1     -42.941  53.924 -51.693  1.00  0.00     0.276 C 
HETATM    4  C   UNL     1     -42.196  54.003 -52.995  1.00  0.00     0.002 A 
HETATM    5  C   UNL     1     -40.946  53.400 -53.125  1.00  0.00     0.076 A 
HETATM    6  O   UNL     1     -40.398  52.689 -52.094  1.00  0.00    -0.349 OA
HETATM    7  C   UNL     1     -39.978  53.531 -51.012  1.00  0.00     0.203 C 
HETATM    8  C   UNL     1     -41.102  53.750 -49.987  1.00  0.00     0.262 C 
HETATM    9  C   UNL     1     -42.746  54.664 -54.110  1.00  0.00     0.020 A 
HETATM   10  C   UNL     1     -42.061  54.715 -55.339  1.00  0.00    -0.032 A 
HETATM   11  C   UNL     1     -40.803  54.103 -55.435  1.00  0.00     0.011 A 
HETATM   12  C   UNL     1     -40.258  53.431 -54.336  1.00  0.00     0.038 A 
ENDROOT
BRANCH  10  13
HETATM   13  C   UNL     1     -42.682  55.419 -56.524  1.00  0.00     0.273 C 
BRANCH  13  14
HETATM   14  N   UNL     1     -43.136  56.848 -56.275  1.00  0.00    -0.067 N 
HETATM   15  H   UNL     1     -43.425  56.895 -55.288  1.00  0.00     0.280 HD
HETATM   16  C   UNL     1     -42.041  57.871 -56.466  1.00  0.00     0.238 C 
HETATM   17  C   UNL     1     -42.581  59.255 -56.154  1.00  0.00     0.071 C 
HETATM   18  C   UNL     1     -43.744  59.639 -57.090  1.00  0.00     0.089 C 
HETATM   19  C   UNL     1     -44.843  58.578 -56.883  1.00  0.00     0.071 C 
HETATM   20  C   UNL     1     -44.359  57.155 -57.116  1.00  0.00     0.238 C 
BRANCH  18  21
HETATM   21  O   UNL     1     -44.278  60.865 -56.585  1.00  0.00    -0.385 OA
HETATM   22  H   UNL     1     -45.252  60.861 -56.652  1.00  0.00     0.211 HD
ENDBRANCH  18  21
BRANCH  18  23
HETATM   23  C   UNL     1     -43.284  59.874 -58.523  1.00  0.00    -0.006 A 
HETATM   24  C   UNL     1     -43.958  59.382 -59.638  1.00  0.00     0.126 A 
HETATM   25  N   UNL     1     -43.531  59.509 -60.914  1.00  0.00    -0.272 NA
HETATM   26  C   UNL     1     -42.416  60.239 -61.125  1.00  0.00     0.116 A 
HETATM   27  C   UNL     1     -41.700  60.831 -60.104  1.00  0.00     0.020 A 
HETATM   28  C   UNL     1     -42.141  60.647 -58.796  1.00  0.00     0.013 A 
ENDBRANCH  18  23
ENDBRANCH  13  14
ENDBRANCH  10  13
BRANCH   1  29
HETATM   29  C   UNL     1     -41.885  56.044 -50.733  1.00  0.00     0.299 C 
BRANCH  29  30
HETATM   30  C   UNL     1     -43.036  56.921 -51.058  1.00  0.00     0.079 A 
HETATM   31  O   UNL     1     -42.750  58.084 -51.709  1.00  0.00    -0.316 OA
HETATM   32  C   UNL     1     -43.940  58.706 -51.968  1.00  0.00     0.077 A 
HETATM   33  C   UNL     1     -44.976  57.963 -51.443  1.00  0.00     0.037 A 
HETATM   34  C   UNL     1     -44.394  56.812 -50.858  1.00  0.00     0.037 A 
BRANCH  32  35
HETATM   35  C   UNL     1     -43.897  59.981 -52.734  1.00  0.00     0.231 C 
BRANCH  35  36
HETATM   36  O   UNL     1     -44.979  59.949 -53.660  1.00  0.00    -0.390 OA
HETATM   37  C   UNL     1     -45.896  61.012 -53.422  1.00  0.00     0.201 C 
ENDBRANCH  35  36
ENDBRANCH  32  35
ENDBRANCH  29  30
ENDBRANCH   1  29
TORSDOF 8
ENDMDL
MODEL 9
REMARK VINA RESULT:      -7.3      3.768      8.767
REMARK  8 active torsions:
REMARK  status: ('A' for Active; 'I' for Inactive)
REMARK    1  A    between atoms: O_2  and  C_3 
REMARK    2  A    between atoms: C_3  and  C_4 
REMARK    3  A    between atoms: C_6  and  C_7 
REMARK    4  A    between atoms: C_7  and  N_8 
REMARK    5  A    between atoms: C_17  and  C_18 
REMARK    6  A    between atoms: C_18  and  N_19 
REMARK    7  A    between atoms: C_23  and  O_24 
REMARK    8  A    between atoms: C_23  and  C_25 
ROOT
HETATM    1  N   UNL     1     -44.643  61.677 -52.113  1.00  0.00    -0.059 N 
HETATM    2  H   UNL     1     -44.130  62.236 -51.415  1.00  0.00     0.280 HD
HETATM    3  C   UNL     1     -43.585  60.812 -52.752  1.00  0.00     0.276 C 
HETATM    4  C   UNL     1     -44.121  59.703 -53.613  1.00  0.00     0.002 A 
HETATM    5  C   UNL     1     -44.869  59.999 -54.752  1.00  0.00     0.076 A 
HETATM    6  O   UNL     1     -45.089  61.294 -55.132  1.00  0.00    -0.349 OA
HETATM    7  C   UNL     1     -45.992  61.976 -54.252  1.00  0.00     0.203 C 
HETATM    8  C   UNL     1     -45.255  62.662 -53.092  1.00  0.00     0.262 C 
HETATM    9  C   UNL     1     -43.866  58.354 -53.304  1.00  0.00     0.020 A 
HETATM   10  C   UNL     1     -44.343  57.315 -54.126  1.00  0.00    -0.032 A 
HETATM   11  C   UNL     1     -45.097  57.646 -55.261  1.00  0.00     0.011 A 
HETATM   12  C   UNL     1     -45.342  58.985 -55.582  1.00  0.00     0.038 A 
ENDROOT
BRANCH  10  13
HETATM   13  C   UNL     1     -44.041  55.874 -53.779  1.00  0.00     0.273 C 
BRANCH  13  14
HETATM   14  N   UNL     1     -43.107  55.665 -52.599  1.00  0.00    -0.067 N 
HETATM   15  H   UNL     1     -43.337  56.396 -51.911  1.00  0.00     0.280 HD
HETATM   16  C   UNL     1     -43.295  54.333 -51.910  1.00  0.00     0.238 C 
HETATM   17  C   UNL     1     -42.350  54.239 -50.725  1.00  0.00     0.071 C 
HETATM   18  C   UNL     1     -40.874  54.332 -51.162  1.00  0.00     0.089 C 
HETATM   19  C   UNL     1     -40.711  55.692 -51.868  1.00  0.00     0.071 C 
HETATM   20  C   UNL     1     -41.671  55.888 -53.031  1.00  0.00     0.238 C 
BRANCH  18  21
HETATM   21  O   UNL     1     -40.104  54.414 -49.961  1.00  0.00    -0.385 OA
HETATM   22  H   UNL     1     -39.338  55.005 -50.092  1.00  0.00     0.211 HD
ENDBRANCH  18  21
BRANCH  18  23
HETATM   23  C   UNL     1     -40.419  53.102 -51.937  1.00  0.00    -0.006 A 
HETATM   24  C   UNL     1     -40.000  51.921 -51.330  1.00  0.00     0.126 A 
HETATM   25  N   UNL     1     -39.519  50.845 -51.991  1.00  0.00    -0.272 NA
HETATM   26  C   UNL     1     -39.525  50.890 -53.338  1.00  0.00     0.116 A 
HETATM   27  C   UNL     1     -39.977  51.981 -54.052  1.00  0.00     0.020 A 
HETATM   28  C   UNL     1     -40.428  53.092 -53.343  1.00  0.00     0.013 A 
ENDBRANCH  18  23
ENDBRANCH  13  14
ENDBRANCH  10  13
BRANCH   1  29
HETATM   29  C   UNL     1     -45.669  60.939 -51.277  1.00  0.00     0.299 C 
BRANCH  29  30
HETATM   30  C   UNL     1     -45.784  61.423 -49.880  1.00  0.00     0.079 A 
HETATM   31  O   UNL     1     -45.856  60.468 -48.909  1.00  0.00    -0.316 OA
HETATM   32  C   UNL     1     -45.892  61.116 -47.706  1.00  0.00     0.077 A 
HETATM   33  C   UNL     1     -45.889  62.480 -47.912  1.00  0.00     0.037 A 
HETATM   34  C   UNL     1     -45.818  62.678 -49.313  1.00  0.00     0.037 A 
BRANCH  32  35
HETATM   35  C   UNL     1     -45.910  60.280 -46.475  1.00  0.00     0.231 C 
BRANCH  35  36
HETATM   36  O   UNL     1     -46.671  59.114 -46.774  1.00  0.00    -0.390 OA
HETATM   37  C   UNL     1     -47.233  58.546 -45.596  1.00  0.00     0.201 C 
ENDBRANCH  35  36
ENDBRANCH  32  35
ENDBRANCH  29  30
ENDBRANCH   1  29
TORSDOF 8
ENDMDL
MODEL 10
REMARK VINA RESULT:      -7.3      2.105      7.601
REMARK  8 active torsions:
REMARK  status: ('A' for Active; 'I' for Inactive)
REMARK    1  A    between atoms: O_2  and  C_3 
REMARK    2  A    between atoms: C_3  and  C_4 
REMARK    3  A    between atoms: C_6  and  C_7 
REMARK    4  A    between atoms: C_7  and  N_8 
REMARK    5  A    between atoms: C_17  and  C_18 
REMARK    6  A    between atoms: C_18  and  N_19 
REMARK    7  A    between atoms: C_23  and  O_24 
REMARK    8  A    between atoms: C_23  and  C_25 
ROOT
HETATM    1  N   UNL     1     -44.717  59.996 -56.557  1.00  0.00    -0.059 N 
HETATM    2  H   UNL     1     -45.544  60.484 -56.931  1.00  0.00     0.280 HD
HETATM    3  C   UNL     1     -44.454  60.666 -55.231  1.00  0.00     0.276 C 
HETATM    4  C   UNL     1     -43.464  59.951 -54.355  1.00  0.00     0.002 A 
HETATM    5  C   UNL     1     -42.145  59.788 -54.776  1.00  0.00     0.076 A 
HETATM    6  O   UNL     1     -41.715  60.312 -55.963  1.00  0.00    -0.349 OA
HETATM    7  C   UNL     1     -42.257  59.618 -57.095  1.00  0.00     0.203 C 
HETATM    8  C   UNL     1     -43.594  60.220 -57.552  1.00  0.00     0.262 C 
HETATM    9  C   UNL     1     -43.837  59.452 -53.093  1.00  0.00     0.020 A 
HETATM   10  C   UNL     1     -42.904  58.807 -52.259  1.00  0.00    -0.032 A 
HETATM   11  C   UNL     1     -41.587  58.654 -52.714  1.00  0.00     0.011 A 
HETATM   12  C   UNL     1     -41.206  59.161 -53.960  1.00  0.00     0.038 A 
ENDROOT
BRANCH  10  13
HETATM   13  C   UNL     1     -43.328  58.293 -50.901  1.00  0.00     0.273 C 
BRANCH  13  14
HETATM   14  N   UNL     1     -42.930  56.860 -50.588  1.00  0.00    -0.067 N 
HETATM   15  H   UNL     1     -43.278  56.661 -49.639  1.00  0.00     0.280 HD
HETATM   16  C   UNL     1     -43.559  55.844 -51.513  1.00  0.00     0.238 C 
HETATM   17  C   UNL     1     -43.135  54.447 -51.093  1.00  0.00     0.071 C 
HETATM   18  C   UNL     1     -41.607  54.265 -51.172  1.00  0.00     0.089 C 
HETATM   19  C   UNL     1     -40.990  55.317 -50.229  1.00  0.00     0.071 C 
HETATM   20  C   UNL     1     -41.420  56.741 -50.549  1.00  0.00     0.238 C 
BRANCH  18  21
HETATM   21  O   UNL     1     -41.322  52.993 -50.587  1.00  0.00    -0.385 OA
HETATM   22  H   UNL     1     -41.220  52.317 -51.284  1.00  0.00     0.211 HD
ENDBRANCH  18  21
BRANCH  18  23
HETATM   23  C   UNL     1     -41.097  54.255 -52.608  1.00  0.00    -0.006 A 
HETATM   24  C   UNL     1     -40.985  55.399 -53.395  1.00  0.00     0.126 A 
HETATM   25  N   UNL     1     -40.610  55.407 -54.692  1.00  0.00    -0.272 NA
HETATM   26  C   UNL     1     -40.236  54.232 -55.238  1.00  0.00     0.116 A 
HETATM   27  C   UNL     1     -40.242  53.042 -54.538  1.00  0.00     0.020 A 
HETATM   28  C   UNL     1     -40.674  53.058 -53.214  1.00  0.00     0.013 A 
ENDBRANCH  18  23
ENDBRANCH  13  14
ENDBRANCH  10  13
BRANCH   1  29
HETATM   29  C   UNL     1     -45.175  58.554 -56.477  1.00  0.00     0.299 C 
BRANCH  29  30
HETATM   30  C   UNL     1     -45.681  58.000 -57.756  1.00  0.00     0.079 A 
HETATM   31  O   UNL     1     -44.752  57.465 -58.598  1.00  0.00    -0.316 OA
HETATM   32  C   UNL     1     -45.426  56.959 -59.675  1.00  0.00     0.077 A 
HETATM   33  C   UNL     1     -46.775  57.211 -59.540  1.00  0.00     0.037 A 
HETATM   34  C   UNL     1     -46.940  57.881 -58.303  1.00  0.00     0.037 A 
BRANCH  32  35
HETATM   35  C   UNL     1     -44.627  56.259 -60.719  1.00  0.00     0.231 C 
BRANCH  35  36
HETATM   36  O   UNL     1     -43.708  55.409 -60.040  1.00  0.00    -0.390 OA
HETATM   37  C   UNL     1     -44.360  54.262 -59.505  1.00  0.00     0.201 C 
ENDBRANCH  35  36
ENDBRANCH  32  35
ENDBRANCH  29  30
ENDBRANCH   1  29
TORSDOF 8
ENDMDL
