MODEL 1
REMARK VINA RESULT:      -7.5      0.000      0.000
REMARK  5 active torsions:
REMARK  status: ('A' for Active; 'I' for Inactive)
REMARK    1  A    between atoms: C_2  and  C_3 
REMARK    2  A    between atoms: C_3  and  N_4 
REMARK    3  A    between atoms: C_3  and  C_19 
REMARK       I    between atoms: N_4  and  C_5 
REMARK       I    between atoms: C_5  and  N_6 
REMARK    4  A    between atoms: N_6  and  C_7 
REMARK    5  A    between atoms: C_12  and  C_13 
ROOT
HETATM    1  N   UNL     1     -43.510  57.689 -52.823  1.00  0.00    -0.334 N 
HETATM    2  C   UNL     1     -44.192  56.843 -53.624  1.00  0.00     0.321 C 
HETATM    3  N   UNL     1     -43.950  55.508 -53.528  1.00  0.00    -0.306 N 
HETATM    4  O   UNL     1     -45.102  57.216 -54.366  1.00  0.00    -0.247 OA
HETATM    5  H   UNL     1     -42.617  57.383 -52.475  1.00  0.00     0.165 HD
HETATM    6  H   UNL     1     -44.685  55.006 -54.013  1.00  0.00     0.171 HD
ENDROOT
BRANCH   1   7
HETATM    7  C   UNL     1     -43.748  59.120 -52.826  1.00  0.00     0.122 C 
BRANCH   7   8
HETATM    8  C   UNL     1     -42.460  59.935 -53.045  1.00  0.00     0.026 C 
HETATM    9  C   UNL     1     -41.242  59.120 -53.463  1.00  0.00     0.007 C 
ENDBRANCH   7   8
BRANCH   7  10
HETATM   10  C   UNL     1     -44.485  59.486 -51.572  1.00  0.00     0.001 A 
HETATM   11  C   UNL     1     -44.330  60.571 -50.727  1.00  0.00     0.122 A 
HETATM   12  N   UNL     1     -45.232  60.408 -49.717  1.00  0.00    -0.285 N 
HETATM   13  C   UNL     1     -45.419  61.265 -48.571  1.00  0.00     0.179 C 
HETATM   14  N   UNL     1     -45.990  59.308 -49.850  1.00  0.00    -0.185 NA
HETATM   15  C   UNL     1     -45.531  58.745 -50.970  1.00  0.00     0.149 A 
ENDBRANCH   7  10
ENDBRANCH   1   7
BRANCH   3  16
HETATM   16  C   UNL     1     -42.981  54.720 -52.875  1.00  0.00     0.075 A 
HETATM   17  C   UNL     1     -42.758  54.654 -51.497  1.00  0.00     0.143 A 
HETATM   18  F   UNL     1     -43.464  55.398 -50.634  1.00  0.00    -0.204 F 
HETATM   19  C   UNL     1     -41.753  53.848 -50.960  1.00  0.00     0.045 A 
HETATM   20  C   UNL     1     -40.941  53.087 -51.799  1.00  0.00     0.019 A 
HETATM   21  C   UNL     1     -41.126  53.139 -53.187  1.00  0.00     0.050 A 
HETATM   22  C   UNL     1     -42.138  53.966 -53.710  1.00  0.00     0.049 A 
BRANCH  21  23
HETATM   23  C   UNL     1     -40.268  52.318 -54.122  1.00  0.00     0.417 C 
HETATM   24  F   UNL     1     -39.868  52.998 -55.231  1.00  0.00    -0.166 F 
HETATM   25  F   UNL     1     -39.131  51.874 -53.522  1.00  0.00    -0.166 F 
HETATM   26  F   UNL     1     -40.914  51.209 -54.573  1.00  0.00    -0.166 F 
ENDBRANCH  21  23
ENDBRANCH   3  16
TORSDOF 5
ENDMDL
MODEL 2
REMARK VINA RESULT:      -7.5      2.613      3.640
REMARK  5 active torsions:
REMARK  status: ('A' for Active; 'I' for Inactive)
REMARK    1  A    between atoms: C_2  and  C_3 
REMARK    2  A    between atoms: C_3  and  N_4 
REMARK    3  A    between atoms: C_3  and  C_19 
REMARK       I    between atoms: N_4  and  C_5 
REMARK       I    between atoms: C_5  and  N_6 
REMARK    4  A    between atoms: N_6  and  C_7 
REMARK    5  A    between atoms: C_12  and  C_13 
ROOT
HETATM    1  N   UNL     1     -42.735  57.277 -51.717  1.00  0.00    -0.334 N 
HETATM    2  C   UNL     1     -43.771  56.479 -51.382  1.00  0.00     0.321 C 
HETATM    3  N   UNL     1     -43.746  55.174 -51.762  1.00  0.00    -0.306 N 
HETATM    4  O   UNL     1     -44.692  56.854 -50.656  1.00  0.00    -0.247 OA
HETATM    5  H   UNL     1     -42.188  57.018 -52.520  1.00  0.00     0.165 HD
HETATM    6  H   UNL     1     -44.461  54.669 -51.250  1.00  0.00     0.171 HD
ENDROOT
BRANCH   1   7
HETATM    7  C   UNL     1     -42.660  58.666 -51.304  1.00  0.00     0.122 C 
BRANCH   7   8
HETATM    8  C   UNL     1     -43.458  59.603 -52.228  1.00  0.00     0.026 C 
HETATM    9  C   UNL     1     -43.540  59.160 -53.684  1.00  0.00     0.007 C 
ENDBRANCH   7   8
BRANCH   7  10
HETATM   10  C   UNL     1     -41.217  59.046 -51.161  1.00  0.00     0.001 A 
HETATM   11  C   UNL     1     -40.516  59.501 -50.058  1.00  0.00     0.122 A 
HETATM   12  N   UNL     1     -39.238  59.730 -50.476  1.00  0.00    -0.285 N 
HETATM   13  C   UNL     1     -38.146  60.251 -49.692  1.00  0.00     0.179 C 
HETATM   14  N   UNL     1     -39.039  59.431 -51.771  1.00  0.00    -0.185 NA
HETATM   15  C   UNL     1     -40.240  59.025 -52.187  1.00  0.00     0.149 A 
ENDBRANCH   7  10
ENDBRANCH   1   7
BRANCH   3  16
HETATM   16  C   UNL     1     -42.935  54.407 -52.622  1.00  0.00     0.075 A 
HETATM   17  C   UNL     1     -43.115  54.235 -53.998  1.00  0.00     0.143 A 
HETATM   18  F   UNL     1     -44.149  54.788 -54.646  1.00  0.00    -0.204 F 
HETATM   19  C   UNL     1     -42.256  53.433 -54.750  1.00  0.00     0.045 A 
HETATM   20  C   UNL     1     -41.189  52.780 -54.136  1.00  0.00     0.019 A 
HETATM   21  C   UNL     1     -40.985  52.918 -52.757  1.00  0.00     0.050 A 
HETATM   22  C   UNL     1     -41.870  53.722 -52.012  1.00  0.00     0.049 A 
BRANCH  21  23
HETATM   23  C   UNL     1     -39.832  52.230 -52.063  1.00  0.00     0.417 C 
HETATM   24  F   UNL     1     -39.107  53.057 -51.261  1.00  0.00    -0.166 F 
HETATM   25  F   UNL     1     -40.244  51.204 -51.271  1.00  0.00    -0.166 F 
HETATM   26  F   UNL     1     -38.946  51.692 -52.946  1.00  0.00    -0.166 F 
ENDBRANCH  21  23
ENDBRANCH   3  16
TORSDOF 5
ENDMDL
MODEL 3
REMARK VINA RESULT:      -7.3      2.080      3.618
REMARK  5 active torsions:
REMARK  status: ('A' for Active; 'I' for Inactive)
REMARK    1  A    between atoms: C_2  and  C_3 
REMARK    2  A    between atoms: C_3  and  N_4 
REMARK    3  A    between atoms: C_3  and  C_19 
REMARK       I    between atoms: N_4  and  C_5 
REMARK       I    between atoms: C_5  and  N_6 
REMARK    4  A    between atoms: N_6  and  C_7 
REMARK    5  A    between atoms: C_12  and  C_13 
ROOT
HETATM    1  N   UNL     1     -42.243  55.740 -53.905  1.00  0.00    -0.334 N 
HETATM    2  C   UNL     1     -42.350  54.775 -54.843  1.00  0.00     0.321 C 
HETATM    3  N   UNL     1     -41.831  53.545 -54.584  1.00  0.00    -0.306 N 
HETATM    4  O   UNL     1     -42.991  54.927 -55.883  1.00  0.00    -0.247 OA
HETATM    5  H   UNL     1     -41.491  55.662 -53.240  1.00  0.00     0.165 HD
HETATM    6  H   UNL     1     -42.187  52.888 -55.268  1.00  0.00     0.171 HD
ENDROOT
BRANCH   1   7
HETATM    7  C   UNL     1     -42.817  57.061 -54.081  1.00  0.00     0.122 C 
BRANCH   7   8
HETATM    8  C   UNL     1     -41.753  58.136 -54.368  1.00  0.00     0.026 C 
HETATM    9  C   UNL     1     -40.677  58.284 -53.298  1.00  0.00     0.007 C 
ENDBRANCH   7   8
BRANCH   7  10
HETATM   10  C   UNL     1     -43.681  57.370 -52.896  1.00  0.00     0.001 A 
HETATM   11  C   UNL     1     -44.442  58.491 -52.611  1.00  0.00     0.122 A 
HETATM   12  N   UNL     1     -45.009  58.275 -51.389  1.00  0.00    -0.285 N 
HETATM   13  C   UNL     1     -45.855  59.180 -50.651  1.00  0.00     0.179 C 
HETATM   14  N   UNL     1     -44.699  57.080 -50.861  1.00  0.00    -0.185 NA
HETATM   15  C   UNL     1     -43.888  56.535 -51.770  1.00  0.00     0.149 A 
ENDBRANCH   7  10
ENDBRANCH   1   7
BRANCH   3  16
HETATM   16  C   UNL     1     -41.000  53.011 -53.579  1.00  0.00     0.075 A 
HETATM   17  C   UNL     1     -40.217  51.857 -53.676  1.00  0.00     0.143 A 
HETATM   18  F   UNL     1     -40.214  51.101 -54.783  1.00  0.00    -0.204 F 
HETATM   19  C   UNL     1     -39.443  51.409 -52.604  1.00  0.00     0.045 A 
HETATM   20  C   UNL     1     -39.438  52.113 -51.402  1.00  0.00     0.019 A 
HETATM   21  C   UNL     1     -40.221  53.266 -51.262  1.00  0.00     0.050 A 
HETATM   22  C   UNL     1     -41.004  53.696 -52.351  1.00  0.00     0.049 A 
BRANCH  21  23
HETATM   23  C   UNL     1     -40.229  54.056 -49.974  1.00  0.00     0.417 C 
HETATM   24  F   UNL     1     -40.797  53.391 -48.931  1.00  0.00    -0.166 F 
HETATM   25  F   UNL     1     -38.975  54.392 -49.567  1.00  0.00    -0.166 F 
HETATM   26  F   UNL     1     -40.913  55.227 -50.091  1.00  0.00    -0.166 F 
ENDBRANCH  21  23
ENDBRANCH   3  16
TORSDOF 5
ENDMDL
MODEL 4
REMARK VINA RESULT:      -7.3      2.008      2.436
REMARK  5 active torsions:
REMARK  status: ('A' for Active; 'I' for Inactive)
REMARK    1  A    between atoms: C_2  and  C_3 
REMARK    2  A    between atoms: C_3  and  N_4 
REMARK    3  A    between atoms: C_3  and  C_19 
REMARK       I    between atoms: N_4  and  C_5 
REMARK       I    between atoms: C_5  and  N_6 
REMARK    4  A    between atoms: N_6  and  C_7 
REMARK    5  A    between atoms: C_12  and  C_13 
ROOT
HETATM    1  N   UNL     1     -42.054  56.543 -53.925  1.00  0.00    -0.334 N 
HETATM    2  C   UNL     1     -41.837  55.873 -55.077  1.00  0.00     0.321 C 
HETATM    3  N   UNL     1     -41.387  54.591 -55.019  1.00  0.00    -0.306 N 
HETATM    4  O   UNL     1     -42.128  56.336 -56.180  1.00  0.00    -0.247 OA
HETATM    5  H   UNL     1     -41.543  56.246 -53.111  1.00  0.00     0.165 HD
HETATM    6  H   UNL     1     -41.494  54.164 -55.931  1.00  0.00     0.171 HD
ENDROOT
BRANCH   1   7
HETATM    7  C   UNL     1     -42.583  57.893 -53.900  1.00  0.00     0.122 C 
BRANCH   7   8
HETATM    8  C   UNL     1     -41.477  58.963 -53.880  1.00  0.00     0.026 C 
HETATM    9  C   UNL     1     -40.372  58.733 -52.856  1.00  0.00     0.007 C 
ENDBRANCH   7   8
BRANCH   7  10
HETATM   10  C   UNL     1     -43.552  58.007 -52.762  1.00  0.00     0.001 A 
HETATM   11  C   UNL     1     -44.180  59.120 -52.229  1.00  0.00     0.122 A 
HETATM   12  N   UNL     1     -44.937  58.676 -51.184  1.00  0.00    -0.285 N 
HETATM   13  C   UNL     1     -45.742  59.474 -50.292  1.00  0.00     0.179 C 
HETATM   14  N   UNL     1     -44.875  57.346 -51.008  1.00  0.00    -0.185 NA
HETATM   15  C   UNL     1     -44.029  56.942 -51.959  1.00  0.00     0.149 A 
ENDBRANCH   7  10
ENDBRANCH   1   7
BRANCH   3  16
HETATM   16  C   UNL     1     -40.893  53.760 -53.994  1.00  0.00     0.075 A 
HETATM   17  C   UNL     1     -40.620  54.139 -52.677  1.00  0.00     0.143 A 
HETATM   18  F   UNL     1     -40.783  55.403 -52.261  1.00  0.00    -0.204 F 
HETATM   19  C   UNL     1     -40.112  53.231 -51.747  1.00  0.00     0.045 A 
HETATM   20  C   UNL     1     -39.865  51.911 -52.120  1.00  0.00     0.019 A 
HETATM   21  C   UNL     1     -40.113  51.497 -53.435  1.00  0.00     0.050 A 
HETATM   22  C   UNL     1     -40.614  52.432 -54.362  1.00  0.00     0.049 A 
BRANCH  21  23
HETATM   23  C   UNL     1     -39.864  50.071 -53.868  1.00  0.00     0.417 C 
HETATM   24  F   UNL     1     -38.671  49.893 -54.498  1.00  0.00    -0.166 F 
HETATM   25  F   UNL     1     -39.866  49.206 -52.817  1.00  0.00    -0.166 F 
HETATM   26  F   UNL     1     -40.815  49.619 -54.729  1.00  0.00    -0.166 F 
ENDBRANCH  21  23
ENDBRANCH   3  16
TORSDOF 5
ENDMDL
MODEL 5
REMARK VINA RESULT:      -7.2      3.028      4.483
REMARK  5 active torsions:
REMARK  status: ('A' for Active; 'I' for Inactive)
REMARK    1  A    between atoms: C_2  and  C_3 
REMARK    2  A    between atoms: C_3  and  N_4 
REMARK    3  A    between atoms: C_3  and  C_19 
REMARK       I    between atoms: N_4  and  C_5 
REMARK       I    between atoms: C_5  and  N_6 
REMARK    4  A    between atoms: N_6  and  C_7 
REMARK    5  A    between atoms: C_12  and  C_13 
ROOT
HETATM    1  N   UNL     1     -43.142  56.216 -55.315  1.00  0.00    -0.334 N 
HETATM    2  C   UNL     1     -44.082  56.248 -54.346  1.00  0.00     0.321 C 
HETATM    3  N   UNL     1     -43.782  55.738 -53.121  1.00  0.00    -0.306 N 
HETATM    4  O   UNL     1     -45.166  56.813 -54.489  1.00  0.00    -0.247 OA
HETATM    5  H   UNL     1     -42.425  55.514 -55.246  1.00  0.00     0.165 HD
HETATM    6  H   UNL     1     -44.487  56.038 -52.459  1.00  0.00     0.171 HD
ENDROOT
BRANCH   1   7
HETATM    7  C   UNL     1     -43.364  56.788 -56.630  1.00  0.00     0.122 C 
BRANCH   7   8
HETATM    8  C   UNL     1     -42.916  55.851 -57.766  1.00  0.00     0.026 C 
HETATM    9  C   UNL     1     -43.873  55.762 -58.948  1.00  0.00     0.007 C 
ENDBRANCH   7   8
BRANCH   7  10
HETATM   10  C   UNL     1     -42.725  58.143 -56.678  1.00  0.00     0.001 A 
HETATM   11  C   UNL     1     -42.468  58.973 -57.755  1.00  0.00     0.122 A 
HETATM   12  N   UNL     1     -41.842  60.077 -57.254  1.00  0.00    -0.285 N 
HETATM   13  C   UNL     1     -41.340  61.205 -57.999  1.00  0.00     0.179 C 
HETATM   14  N   UNL     1     -41.694  60.046 -55.920  1.00  0.00    -0.185 NA
HETATM   15  C   UNL     1     -42.221  58.870 -55.572  1.00  0.00     0.149 A 
ENDBRANCH   7  10
ENDBRANCH   1   7
BRANCH   3  16
HETATM   16  C   UNL     1     -42.717  54.977 -52.598  1.00  0.00     0.075 A 
HETATM   17  C   UNL     1     -42.219  55.035 -51.294  1.00  0.00     0.143 A 
HETATM   18  F   UNL     1     -42.717  55.889 -50.388  1.00  0.00    -0.204 F 
HETATM   19  C   UNL     1     -41.142  54.244 -50.889  1.00  0.00     0.045 A 
HETATM   20  C   UNL     1     -40.537  53.371 -51.790  1.00  0.00     0.019 A 
HETATM   21  C   UNL     1     -41.000  53.296 -53.110  1.00  0.00     0.050 A 
HETATM   22  C   UNL     1     -42.080  54.110 -53.502  1.00  0.00     0.049 A 
BRANCH  21  23
HETATM   23  C   UNL     1     -40.370  52.351 -54.108  1.00  0.00     0.417 C 
HETATM   24  F   UNL     1     -39.231  51.760 -53.654  1.00  0.00    -0.166 F 
HETATM   25  F   UNL     1     -41.207  51.337 -54.458  1.00  0.00    -0.166 F 
HETATM   26  F   UNL     1     -40.032  52.977 -55.268  1.00  0.00    -0.166 F 
ENDBRANCH  21  23
ENDBRANCH   3  16
TORSDOF 5
ENDMDL
MODEL 6
REMARK VINA RESULT:      -7.2      3.219      5.253
REMARK  5 active torsions:
REMARK  status: ('A' for Active; 'I' for Inactive)
REMARK    1  A    between atoms: C_2  and  C_3 
REMARK    2  A    between atoms: C_3  and  N_4 
REMARK    3  A    between atoms: C_3  and  C_19 
REMARK       I    between atoms: N_4  and  C_5 
REMARK       I    between atoms: C_5  and  N_6 
REMARK    4  A    between atoms: N_6  and  C_7 
REMARK    5  A    between atoms: C_12  and  C_13 
ROOT
HETATM    1  N   UNL     1     -42.282  58.047 -54.892  1.00  0.00    -0.334 N 
HETATM    2  C   UNL     1     -41.395  58.473 -53.967  1.00  0.00     0.321 C 
HETATM    3  N   UNL     1     -40.929  57.587 -53.046  1.00  0.00    -0.306 N 
HETATM    4  O   UNL     1     -40.908  59.603 -53.984  1.00  0.00    -0.247 OA
HETATM    5  H   UNL     1     -42.846  57.246 -54.663  1.00  0.00     0.165 HD
HETATM    6  H   UNL     1     -40.122  57.989 -52.584  1.00  0.00     0.171 HD
ENDROOT
BRANCH   1   7
HETATM    7  C   UNL     1     -42.786  58.914 -55.940  1.00  0.00     0.122 C 
BRANCH   7   8
HETATM    8  C   UNL     1     -44.177  59.489 -55.617  1.00  0.00     0.026 C 
HETATM    9  C   UNL     1     -45.052  58.608 -54.733  1.00  0.00     0.007 C 
ENDBRANCH   7   8
BRANCH   7  10
HETATM   10  C   UNL     1     -42.728  58.175 -57.243  1.00  0.00     0.001 A 
HETATM   11  C   UNL     1     -43.371  57.017 -57.645  1.00  0.00     0.122 A 
HETATM   12  N   UNL     1     -42.946  56.757 -58.915  1.00  0.00    -0.285 N 
HETATM   13  C   UNL     1     -43.307  55.630 -59.739  1.00  0.00     0.179 C 
HETATM   14  N   UNL     1     -42.089  57.676 -59.389  1.00  0.00    -0.185 NA
HETATM   15  C   UNL     1     -41.951  58.531 -58.373  1.00  0.00     0.149 A 
ENDBRANCH   7  10
ENDBRANCH   1   7
BRANCH   3  16
HETATM   16  C   UNL     1     -41.276  56.274 -52.669  1.00  0.00     0.075 A 
HETATM   17  C   UNL     1     -42.015  55.903 -51.542  1.00  0.00     0.143 A 
HETATM   18  F   UNL     1     -42.454  56.810 -50.658  1.00  0.00    -0.204 F 
HETATM   19  C   UNL     1     -42.283  54.563 -51.256  1.00  0.00     0.045 A 
HETATM   20  C   UNL     1     -41.813  53.559 -52.099  1.00  0.00     0.019 A 
HETATM   21  C   UNL     1     -41.057  53.892 -53.231  1.00  0.00     0.050 A 
HETATM   22  C   UNL     1     -40.787  55.248 -53.496  1.00  0.00     0.049 A 
BRANCH  21  23
HETATM   23  C   UNL     1     -40.541  52.826 -54.170  1.00  0.00     0.417 C 
HETATM   24  F   UNL     1     -39.518  52.093 -53.652  1.00  0.00    -0.166 F 
HETATM   25  F   UNL     1     -41.507  51.932 -54.515  1.00  0.00    -0.166 F 
HETATM   26  F   UNL     1     -40.076  53.348 -55.337  1.00  0.00    -0.166 F 
ENDBRANCH  21  23
ENDBRANCH   3  16
TORSDOF 5
ENDMDL
MODEL 7
REMARK VINA RESULT:      -7.1      3.579      6.992
REMARK  5 active torsions:
REMARK  status: ('A' for Active; 'I' for Inactive)
REMARK    1  A    between atoms: C_2  and  C_3 
REMARK    2  A    between atoms: C_3  and  N_4 
REMARK    3  A    between atoms: C_3  and  C_19 
REMARK       I    between atoms: N_4  and  C_5 
REMARK       I    between atoms: C_5  and  N_6 
REMARK    4  A    between atoms: N_6  and  C_7 
REMARK    5  A    between atoms: C_12  and  C_13 
ROOT
HETATM    1  N   UNL     1     -41.742  54.459 -51.673  1.00  0.00    -0.334 N 
HETATM    2  C   UNL     1     -43.084  54.468 -51.815  1.00  0.00     0.321 C 
HETATM    3  N   UNL     1     -43.641  55.271 -52.760  1.00  0.00    -0.306 N 
HETATM    4  O   UNL     1     -43.823  53.701 -51.196  1.00  0.00    -0.247 OA
HETATM    5  H   UNL     1     -41.236  55.276 -51.972  1.00  0.00     0.165 HD
HETATM    6  H   UNL     1     -44.607  54.998 -52.895  1.00  0.00     0.171 HD
ENDROOT
BRANCH   1   7
HETATM    7  C   UNL     1     -41.067  53.591 -50.726  1.00  0.00     0.122 C 
BRANCH   7   8
HETATM    8  C   UNL     1     -40.061  54.349 -49.841  1.00  0.00     0.026 C 
HETATM    9  C   UNL     1     -40.285  54.207 -48.339  1.00  0.00     0.007 C 
ENDBRANCH   7   8
BRANCH   7  10
HETATM   10  C   UNL     1     -40.463  52.442 -51.475  1.00  0.00     0.001 A 
HETATM   11  C   UNL     1     -40.304  52.245 -52.836  1.00  0.00     0.122 A 
HETATM   12  N   UNL     1     -39.724  51.019 -52.986  1.00  0.00    -0.285 N 
HETATM   13  C   UNL     1     -39.400  50.356 -54.225  1.00  0.00     0.179 C 
HETATM   14  N   UNL     1     -39.463  50.407 -51.820  1.00  0.00    -0.185 NA
HETATM   15  C   UNL     1     -39.918  51.265 -50.905  1.00  0.00     0.149 A 
ENDBRANCH   7  10
ENDBRANCH   1   7
BRANCH   3  16
HETATM   16  C   UNL     1     -43.161  56.303 -53.592  1.00  0.00     0.075 A 
HETATM   17  C   UNL     1     -42.626  57.524 -53.173  1.00  0.00     0.143 A 
HETATM   18  F   UNL     1     -42.548  57.850 -51.875  1.00  0.00    -0.204 F 
HETATM   19  C   UNL     1     -42.198  58.485 -54.091  1.00  0.00     0.045 A 
HETATM   20  C   UNL     1     -42.298  58.240 -55.459  1.00  0.00     0.019 A 
HETATM   21  C   UNL     1     -42.843  57.033 -55.916  1.00  0.00     0.050 A 
HETATM   22  C   UNL     1     -43.280  56.082 -54.975  1.00  0.00     0.049 A 
BRANCH  21  23
HETATM   23  C   UNL     1     -42.956  56.735 -57.394  1.00  0.00     0.417 C 
HETATM   24  F   UNL     1     -42.115  57.476 -58.165  1.00  0.00    -0.166 F 
HETATM   25  F   UNL     1     -42.681  55.434 -57.680  1.00  0.00    -0.166 F 
HETATM   26  F   UNL     1     -44.209  56.968 -57.872  1.00  0.00    -0.166 F 
ENDBRANCH  21  23
ENDBRANCH   3  16
TORSDOF 5
ENDMDL
MODEL 8
REMARK VINA RESULT:      -7.0      2.046      3.303
REMARK  5 active torsions:
REMARK  status: ('A' for Active; 'I' for Inactive)
REMARK    1  A    between atoms: C_2  and  C_3 
REMARK    2  A    between atoms: C_3  and  N_4 
REMARK    3  A    between atoms: C_3  and  C_19 
REMARK       I    between atoms: N_4  and  C_5 
REMARK       I    between atoms: C_5  and  N_6 
REMARK    4  A    between atoms: N_6  and  C_7 
REMARK    5  A    between atoms: C_12  and  C_13 
ROOT
HETATM    1  N   UNL     1     -42.635  57.138 -53.301  1.00  0.00    -0.334 N 
HETATM    2  C   UNL     1     -43.610  56.223 -53.486  1.00  0.00     0.321 C 
HETATM    3  N   UNL     1     -43.389  54.939 -53.097  1.00  0.00    -0.306 N 
HETATM    4  O   UNL     1     -44.732  56.520 -53.895  1.00  0.00    -0.247 OA
HETATM    5  H   UNL     1     -41.687  56.805 -53.249  1.00  0.00     0.165 HD
HETATM    6  H   UNL     1     -44.271  54.442 -53.088  1.00  0.00     0.171 HD
ENDROOT
BRANCH   1   7
HETATM    7  C   UNL     1     -42.811  58.538 -53.639  1.00  0.00     0.122 C 
BRANCH   7   8
HETATM    8  C   UNL     1     -41.817  59.019 -54.711  1.00  0.00     0.026 C 
HETATM    9  C   UNL     1     -42.250  60.258 -55.487  1.00  0.00     0.007 C 
ENDBRANCH   7   8
BRANCH   7  10
HETATM   10  C   UNL     1     -42.771  59.345 -52.376  1.00  0.00     0.001 A 
HETATM   11  C   UNL     1     -43.744  60.132 -51.784  1.00  0.00     0.122 A 
HETATM   12  N   UNL     1     -43.181  60.670 -50.664  1.00  0.00    -0.285 N 
HETATM   13  C   UNL     1     -43.794  61.592 -49.740  1.00  0.00     0.179 C 
HETATM   14  N   UNL     1     -41.915  60.271 -50.460  1.00  0.00    -0.185 NA
HETATM   15  C   UNL     1     -41.664  59.476 -51.501  1.00  0.00     0.149 A 
ENDBRANCH   7  10
ENDBRANCH   1   7
BRANCH   3  16
HETATM   16  C   UNL     1     -42.260  54.214 -52.664  1.00  0.00     0.075 A 
HETATM   17  C   UNL     1     -41.489  53.341 -53.436  1.00  0.00     0.143 A 
HETATM   18  F   UNL     1     -41.791  53.080 -54.715  1.00  0.00    -0.204 F 
HETATM   19  C   UNL     1     -40.398  52.659 -52.894  1.00  0.00     0.045 A 
HETATM   20  C   UNL     1     -40.055  52.838 -51.556  1.00  0.00     0.019 A 
HETATM   21  C   UNL     1     -40.813  53.694 -50.747  1.00  0.00     0.050 A 
HETATM   22  C   UNL     1     -41.916  54.365 -51.309  1.00  0.00     0.049 A 
BRANCH  21  23
HETATM   23  C   UNL     1     -40.460  53.916 -49.295  1.00  0.00     0.417 C 
HETATM   24  F   UNL     1     -40.622  52.809 -48.519  1.00  0.00    -0.166 F 
HETATM   25  F   UNL     1     -39.165  54.302 -49.132  1.00  0.00    -0.166 F 
HETATM   26  F   UNL     1     -41.218  54.891 -48.722  1.00  0.00    -0.166 F 
ENDBRANCH  21  23
ENDBRANCH   3  16
TORSDOF 5
ENDMDL
MODEL 9
REMARK VINA RESULT:      -6.9      4.957      6.544
REMARK  5 active torsions:
REMARK  status: ('A' for Active; 'I' for Inactive)
REMARK    1  A    between atoms: C_2  and  C_3 
REMARK    2  A    between atoms: C_3  and  N_4 
REMARK    3  A    between atoms: C_3  and  C_19 
REMARK       I    between atoms: N_4  and  C_5 
REMARK       I    between atoms: C_5  and  N_6 
REMARK    4  A    between atoms: N_6  and  C_7 
REMARK    5  A    between atoms: C_12  and  C_13 
ROOT
HETATM    1  N   UNL     1     -42.960  56.774 -55.059  1.00  0.00    -0.334 N 
HETATM    2  C   UNL     1     -42.209  55.777 -55.575  1.00  0.00     0.321 C 
HETATM    3  N   UNL     1     -42.085  55.678 -56.925  1.00  0.00    -0.306 N 
HETATM    4  O   UNL     1     -41.545  55.013 -54.873  1.00  0.00    -0.247 OA
HETATM    5  H   UNL     1     -43.683  57.161 -55.642  1.00  0.00     0.165 HD
HETATM    6  H   UNL     1     -41.326  55.041 -57.139  1.00  0.00     0.171 HD
ENDROOT
BRANCH   1   7
HETATM    7  C   UNL     1     -43.099  56.980 -53.630  1.00  0.00     0.122 C 
BRANCH   7   8
HETATM    8  C   UNL     1     -44.480  57.542 -53.245  1.00  0.00     0.026 C 
HETATM    9  C   UNL     1     -44.765  57.589 -51.748  1.00  0.00     0.007 C 
ENDBRANCH   7   8
BRANCH   7  10
HETATM   10  C   UNL     1     -41.953  57.820 -53.153  1.00  0.00     0.001 A 
HETATM   11  C   UNL     1     -41.274  57.806 -51.947  1.00  0.00     0.122 A 
HETATM   12  N   UNL     1     -40.337  58.795 -52.017  1.00  0.00    -0.285 N 
HETATM   13  C   UNL     1     -39.413  59.193 -50.983  1.00  0.00     0.179 C 
HETATM   14  N   UNL     1     -40.332  59.442 -53.194  1.00  0.00    -0.185 NA
HETATM   15  C   UNL     1     -41.317  58.857 -53.879  1.00  0.00     0.149 A 
ENDBRANCH   7  10
ENDBRANCH   1   7
BRANCH   3  16
HETATM   16  C   UNL     1     -42.712  56.293 -58.027  1.00  0.00     0.075 A 
HETATM   17  C   UNL     1     -42.520  57.607 -58.463  1.00  0.00     0.143 A 
HETATM   18  F   UNL     1     -41.702  58.450 -57.818  1.00  0.00    -0.204 F 
HETATM   19  C   UNL     1     -43.214  58.119 -59.561  1.00  0.00     0.045 A 
HETATM   20  C   UNL     1     -44.123  57.319 -60.250  1.00  0.00     0.019 A 
HETATM   21  C   UNL     1     -44.352  56.001 -59.833  1.00  0.00     0.050 A 
HETATM   22  C   UNL     1     -43.651  55.507 -58.716  1.00  0.00     0.049 A 
BRANCH  21  23
HETATM   23  C   UNL     1     -45.325  55.106 -60.566  1.00  0.00     0.417 C 
HETATM   24  F   UNL     1     -45.447  53.868 -60.014  1.00  0.00    -0.166 F 
HETATM   25  F   UNL     1     -46.581  55.628 -60.599  1.00  0.00    -0.166 F 
HETATM   26  F   UNL     1     -44.966  54.907 -61.863  1.00  0.00    -0.166 F 
ENDBRANCH  21  23
ENDBRANCH   3  16
TORSDOF 5
ENDMDL
MODEL 10
REMARK VINA RESULT:      -6.8      2.923      4.731
REMARK  5 active torsions:
REMARK  status: ('A' for Active; 'I' for Inactive)
REMARK    1  A    between atoms: C_2  and  C_3 
REMARK    2  A    between atoms: C_3  and  N_4 
REMARK    3  A    between atoms: C_3  and  C_19 
REMARK       I    between atoms: N_4  and  C_5 
REMARK       I    between atoms: C_5  and  N_6 
REMARK    4  A    between atoms: N_6  and  C_7 
REMARK    5  A    between atoms: C_12  and  C_13 
ROOT
HETATM    1  N   UNL     1     -42.731  56.859 -54.696  1.00  0.00    -0.334 N 
HETATM    2  C   UNL     1     -43.868  56.417 -54.117  1.00  0.00     0.321 C 
HETATM    3  N   UNL     1     -43.784  55.504 -53.113  1.00  0.00    -0.306 N 
HETATM    4  O   UNL     1     -44.976  56.884 -54.385  1.00  0.00    -0.247 OA
HETATM    5  H   UNL     1     -41.924  56.260 -54.654  1.00  0.00     0.165 HD
HETATM    6  H   UNL     1     -44.678  55.451 -52.641  1.00  0.00     0.171 HD
ENDROOT
BRANCH   1   7
HETATM    7  C   UNL     1     -42.733  57.872 -55.735  1.00  0.00     0.122 C 
BRANCH   7   8
HETATM    8  C   UNL     1     -43.372  59.193 -55.273  1.00  0.00     0.026 C 
HETATM    9  C   UNL     1     -42.593  60.452 -55.637  1.00  0.00     0.007 C 
ENDBRANCH   7   8
BRANCH   7  10
HETATM   10  C   UNL     1     -43.365  57.295 -56.966  1.00  0.00     0.001 A 
HETATM   11  C   UNL     1     -43.073  56.136 -57.663  1.00  0.00     0.122 A 
HETATM   12  N   UNL     1     -43.927  56.096 -58.726  1.00  0.00    -0.285 N 
HETATM   13  C   UNL     1     -43.978  55.097 -59.765  1.00  0.00     0.179 C 
HETATM   14  N   UNL     1     -44.781  57.132 -58.763  1.00  0.00    -0.185 NA
HETATM   15  C   UNL     1     -44.435  57.862 -57.701  1.00  0.00     0.149 A 
ENDBRANCH   7  10
ENDBRANCH   1   7
BRANCH   3  16
HETATM   16  C   UNL     1     -42.749  54.708 -52.581  1.00  0.00     0.075 A 
HETATM   17  C   UNL     1     -42.327  54.679 -51.249  1.00  0.00     0.143 A 
HETATM   18  F   UNL     1     -42.879  55.470 -50.319  1.00  0.00    -0.204 F 
HETATM   19  C   UNL     1     -41.273  53.861 -50.836  1.00  0.00     0.045 A 
HETATM   20  C   UNL     1     -40.614  53.050 -51.758  1.00  0.00     0.019 A 
HETATM   21  C   UNL     1     -40.999  53.064 -53.104  1.00  0.00     0.050 A 
HETATM   22  C   UNL     1     -42.057  53.904 -53.503  1.00  0.00     0.049 A 
BRANCH  21  23
HETATM   23  C   UNL     1     -40.309  52.189 -54.125  1.00  0.00     0.417 C 
HETATM   24  F   UNL     1     -39.972  52.847 -55.268  1.00  0.00    -0.166 F 
HETATM   25  F   UNL     1     -39.155  51.651 -53.647  1.00  0.00    -0.166 F 
HETATM   26  F   UNL     1     -41.083  51.138 -54.511  1.00  0.00    -0.166 F 
ENDBRANCH  21  23
ENDBRANCH   3  16
TORSDOF 5
ENDMDL
