MODEL 1
REMARK VINA RESULT:      -8.7      0.000      0.000
REMARK  4 active torsions:
REMARK  status: ('A' for Active; 'I' for Inactive)
REMARK    1  A    between atoms: C_3  and  N_4 
REMARK    2  A    between atoms: C_11  and  C_12 
REMARK       I    between atoms: C_12  and  N_13 
REMARK    3  A    between atoms: N_13  and  C_14 
REMARK    4  A    between atoms: C_19  and  O_20 
ROOT
HETATM    1  C   UNL     1     -44.494  58.550 -51.725  1.00  0.00     0.036 A 
HETATM    2  C   UNL     1     -44.740  59.179 -50.505  1.00  0.00     0.049 A 
HETATM    3  C   UNL     1     -45.445  60.399 -50.451  1.00  0.00     0.063 A 
HETATM    4  C   UNL     1     -45.908  61.012 -51.631  1.00  0.00     0.075 A 
HETATM    5  N   UNL     1     -46.607  62.234 -51.738  1.00  0.00    -0.226 NA
HETATM    6  C   UNL     1     -46.253  63.241 -51.010  1.00  0.00     0.161 C 
HETATM    7  C   UNL     1     -45.157  63.264 -49.964  1.00  0.00     0.164 C 
HETATM    8  N   UNL     1     -45.605  62.328 -48.944  1.00  0.00    -0.336 N 
HETATM    9  C   UNL     1     -45.685  60.963 -49.097  1.00  0.00     0.257 C 
HETATM   10  O   UNL     1     -45.938  60.209 -48.162  1.00  0.00    -0.267 OA
HETATM   11  C   UNL     1     -44.963  64.577 -49.208  1.00  0.00     0.035 C 
HETATM   12  C   UNL     1     -45.927  64.461 -48.029  1.00  0.00     0.022 C 
HETATM   13  C   UNL     1     -45.860  62.982 -47.677  1.00  0.00     0.127 C 
HETATM   14  C   UNL     1     -45.693  60.341 -52.841  1.00  0.00     0.035 A 
HETATM   15  C   UNL     1     -45.002  59.127 -52.890  1.00  0.00     0.032 A 
ENDROOT
BRANCH   1  16
HETATM   16  N   UNL     1     -43.742  57.367 -51.875  1.00  0.00    -0.323 N 
HETATM   17  C   UNL     1     -42.400  57.181 -51.583  1.00  0.00     0.256 C 
HETATM   18  O   UNL     1     -41.657  58.001 -51.057  1.00  0.00    -0.267 OA
HETATM   19  H   UNL     1     -44.244  56.585 -52.270  1.00  0.00     0.169 HD
BRANCH  17  20
HETATM   20  C   UNL     1     -41.827  55.853 -51.971  1.00  0.00     0.033 A 
HETATM   21  C   UNL     1     -41.872  54.736 -51.136  1.00  0.00     0.019 A 
HETATM   22  C   UNL     1     -41.344  53.515 -51.568  1.00  0.00     0.031 A 
HETATM   23  C   UNL     1     -40.784  53.372 -52.852  1.00  0.00     0.044 A 
HETATM   24  C   UNL     1     -40.721  54.496 -53.704  1.00  0.00    -0.034 A 
HETATM   25  C   UNL     1     -40.081  54.512 -55.066  1.00  0.00     0.050 C 
HETATM   26  C   UNL     1     -41.263  55.718 -53.249  1.00  0.00     0.026 A 
BRANCH  23  27
HETATM   27  N   UNL     1     -40.325  52.071 -53.227  1.00  0.00    -0.332 N 
HETATM   28  C   UNL     1     -40.602  51.383 -54.391  1.00  0.00     0.096 A 
HETATM   29  C   UNL     1     -39.989  50.149 -54.351  1.00  0.00     0.019 A 
HETATM   30  C   UNL     1     -39.324  50.053 -53.114  1.00  0.00     0.019 A 
HETATM   31  C   UNL     1     -39.559  51.230 -52.437  1.00  0.00     0.096 A 
ENDBRANCH  23  27
ENDBRANCH  17  20
ENDBRANCH   1  16
BRANCH   6  32
HETATM   32  O   UNL     1     -46.930  64.380 -51.200  1.00  0.00    -0.346 OA
HETATM   33  H   UNL     1     -46.324  65.111 -50.986  1.00  0.00     0.219 HD
ENDBRANCH   6  32
TORSDOF 4
ENDMDL
MODEL 2
REMARK VINA RESULT:      -8.6      6.139      7.691
REMARK  4 active torsions:
REMARK  status: ('A' for Active; 'I' for Inactive)
REMARK    1  A    between atoms: C_3  and  N_4 
REMARK    2  A    between atoms: C_11  and  C_12 
REMARK       I    between atoms: C_12  and  N_13 
REMARK    3  A    between atoms: N_13  and  C_14 
REMARK    4  A    between atoms: C_19  and  O_20 
ROOT
HETATM    1  C   UNL     1     -42.772  57.648 -57.287  1.00  0.00     0.036 A 
HETATM    2  C   UNL     1     -41.950  58.739 -57.568  1.00  0.00     0.049 A 
HETATM    3  C   UNL     1     -42.377  59.758 -58.445  1.00  0.00     0.063 A 
HETATM    4  C   UNL     1     -43.640  59.689 -59.064  1.00  0.00     0.075 A 
HETATM    5  N   UNL     1     -44.194  60.615 -59.973  1.00  0.00    -0.226 NA
HETATM    6  C   UNL     1     -43.451  61.132 -60.894  1.00  0.00     0.161 C 
HETATM    7  C   UNL     1     -41.969  60.897 -61.103  1.00  0.00     0.164 C 
HETATM    8  N   UNL     1     -41.341  61.435 -59.905  1.00  0.00    -0.336 N 
HETATM    9  C   UNL     1     -41.438  60.893 -58.645  1.00  0.00     0.257 C 
HETATM   10  O   UNL     1     -40.778  61.307 -57.696  1.00  0.00    -0.267 OA
HETATM   11  C   UNL     1     -41.311  61.666 -62.247  1.00  0.00     0.035 C 
HETATM   12  C   UNL     1     -40.893  62.986 -61.603  1.00  0.00     0.022 C 
HETATM   13  C   UNL     1     -40.487  62.568 -60.198  1.00  0.00     0.127 C 
HETATM   14  C   UNL     1     -44.469  58.611 -58.732  1.00  0.00     0.035 A 
HETATM   15  C   UNL     1     -44.048  57.608 -57.855  1.00  0.00     0.032 A 
ENDROOT
BRANCH   1  16
HETATM   16  N   UNL     1     -42.400  56.556 -56.477  1.00  0.00    -0.323 N 
HETATM   17  C   UNL     1     -41.892  56.600 -55.189  1.00  0.00     0.256 C 
HETATM   18  O   UNL     1     -41.762  57.605 -54.500  1.00  0.00    -0.267 OA
HETATM   19  H   UNL     1     -42.491  55.649 -56.910  1.00  0.00     0.169 HD
BRANCH  17  20
HETATM   20  C   UNL     1     -41.454  55.288 -54.616  1.00  0.00     0.033 A 
HETATM   21  C   UNL     1     -40.628  54.399 -55.305  1.00  0.00     0.019 A 
HETATM   22  C   UNL     1     -40.230  53.201 -54.704  1.00  0.00     0.031 A 
HETATM   23  C   UNL     1     -40.623  52.874 -53.391  1.00  0.00     0.044 A 
HETATM   24  C   UNL     1     -41.468  53.758 -52.686  1.00  0.00    -0.034 A 
HETATM   25  C   UNL     1     -42.030  53.504 -51.313  1.00  0.00     0.050 C 
HETATM   26  C   UNL     1     -41.854  54.964 -53.311  1.00  0.00     0.026 A 
BRANCH  23  27
HETATM   27  N   UNL     1     -40.117  51.656 -52.838  1.00  0.00    -0.332 N 
HETATM   28  C   UNL     1     -39.581  51.460 -51.582  1.00  0.00     0.096 A 
HETATM   29  C   UNL     1     -39.185  50.146 -51.452  1.00  0.00     0.019 A 
HETATM   30  C   UNL     1     -39.464  49.504 -52.673  1.00  0.00     0.019 A 
HETATM   31  C   UNL     1     -40.014  50.449 -53.510  1.00  0.00     0.096 A 
ENDBRANCH  23  27
ENDBRANCH  17  20
ENDBRANCH   1  16
BRANCH   6  32
HETATM   32  O   UNL     1     -44.056  61.965 -61.750  1.00  0.00    -0.346 OA
HETATM   33  H   UNL     1     -43.811  62.870 -61.490  1.00  0.00     0.219 HD
ENDBRANCH   6  32
TORSDOF 4
ENDMDL
MODEL 3
REMARK VINA RESULT:      -8.3      2.745     10.374
REMARK  4 active torsions:
REMARK  status: ('A' for Active; 'I' for Inactive)
REMARK    1  A    between atoms: C_3  and  N_4 
REMARK    2  A    between atoms: C_11  and  C_12 
REMARK       I    between atoms: C_12  and  N_13 
REMARK    3  A    between atoms: N_13  and  C_14 
REMARK    4  A    between atoms: C_19  and  O_20 
ROOT
HETATM    1  C   UNL     1     -44.184  59.628 -52.215  1.00  0.00     0.036 A 
HETATM    2  C   UNL     1     -43.011  58.900 -52.407  1.00  0.00     0.049 A 
HETATM    3  C   UNL     1     -42.843  58.086 -53.546  1.00  0.00     0.063 A 
HETATM    4  C   UNL     1     -43.864  57.983 -54.510  1.00  0.00     0.075 A 
HETATM    5  N   UNL     1     -43.851  57.199 -55.683  1.00  0.00    -0.226 NA
HETATM    6  C   UNL     1     -43.366  56.002 -55.650  1.00  0.00     0.161 C 
HETATM    7  C   UNL     1     -42.730  55.314 -54.459  1.00  0.00     0.164 C 
HETATM    8  N   UNL     1     -41.541  56.104 -54.172  1.00  0.00    -0.336 N 
HETATM    9  C   UNL     1     -41.539  57.383 -53.668  1.00  0.00     0.257 C 
HETATM   10  O   UNL     1     -40.509  57.952 -53.317  1.00  0.00    -0.267 OA
HETATM   11  C   UNL     1     -42.194  53.903 -54.693  1.00  0.00     0.035 C 
HETATM   12  C   UNL     1     -40.764  54.135 -55.177  1.00  0.00     0.022 C 
HETATM   13  C   UNL     1     -40.322  55.346 -54.371  1.00  0.00     0.127 C 
HETATM   14  C   UNL     1     -45.015  58.759 -54.324  1.00  0.00     0.035 A 
HETATM   15  C   UNL     1     -45.174  59.573 -53.199  1.00  0.00     0.032 A 
ENDROOT
BRANCH   1  16
HETATM   16  N   UNL     1     -44.461  60.413 -51.077  1.00  0.00    -0.323 N 
HETATM   17  C   UNL     1     -43.922  61.648 -50.757  1.00  0.00     0.256 C 
HETATM   18  O   UNL     1     -43.172  62.312 -51.463  1.00  0.00    -0.267 OA
HETATM   19  H   UNL     1     -45.102  60.000 -50.416  1.00  0.00     0.169 HD
BRANCH  17  20
HETATM   20  C   UNL     1     -44.294  62.193 -49.413  1.00  0.00     0.033 A 
HETATM   21  C   UNL     1     -44.240  63.553 -49.106  1.00  0.00     0.019 A 
HETATM   22  C   UNL     1     -44.629  64.003 -47.841  1.00  0.00     0.031 A 
HETATM   23  C   UNL     1     -45.107  63.112 -46.861  1.00  0.00     0.044 A 
HETATM   24  C   UNL     1     -45.156  61.732 -47.152  1.00  0.00    -0.034 A 
HETATM   25  C   UNL     1     -45.566  60.658 -46.181  1.00  0.00     0.050 C 
HETATM   26  C   UNL     1     -44.763  61.300 -48.438  1.00  0.00     0.026 A 
BRANCH  23  27
HETATM   27  N   UNL     1     -45.538  63.672 -45.618  1.00  0.00    -0.332 N 
HETATM   28  C   UNL     1     -44.789  63.861 -44.474  1.00  0.00     0.096 A 
HETATM   29  C   UNL     1     -45.586  64.403 -43.489  1.00  0.00     0.019 A 
HETATM   30  C   UNL     1     -46.880  64.540 -44.027  1.00  0.00     0.019 A 
HETATM   31  C   UNL     1     -46.831  64.069 -45.320  1.00  0.00     0.096 A 
ENDBRANCH  23  27
ENDBRANCH  17  20
ENDBRANCH   1  16
BRANCH   6  32
HETATM   32  O   UNL     1     -43.431  55.301 -56.788  1.00  0.00    -0.346 OA
HETATM   33  H   UNL     1     -43.811  54.434 -56.568  1.00  0.00     0.219 HD
ENDBRANCH   6  32
TORSDOF 4
ENDMDL
MODEL 4
REMARK VINA RESULT:      -8.1      6.485      8.075
REMARK  4 active torsions:
REMARK  status: ('A' for Active; 'I' for Inactive)
REMARK    1  A    between atoms: C_3  and  N_4 
REMARK    2  A    between atoms: C_11  and  C_12 
REMARK       I    between atoms: C_12  and  N_13 
REMARK    3  A    between atoms: N_13  and  C_14 
REMARK    4  A    between atoms: C_19  and  O_20 
ROOT
HETATM    1  C   UNL     1     -42.962  56.838 -58.252  1.00  0.00     0.036 A 
HETATM    2  C   UNL     1     -44.244  56.919 -58.795  1.00  0.00     0.049 A 
HETATM    3  C   UNL     1     -44.555  57.885 -59.773  1.00  0.00     0.063 A 
HETATM    4  C   UNL     1     -43.577  58.796 -60.217  1.00  0.00     0.075 A 
HETATM    5  N   UNL     1     -43.743  59.825 -61.170  1.00  0.00    -0.226 NA
HETATM    6  C   UNL     1     -44.819  60.538 -61.163  1.00  0.00     0.161 C 
HETATM    7  C   UNL     1     -46.013  60.371 -60.245  1.00  0.00     0.164 C 
HETATM    8  N   UNL     1     -46.551  59.060 -60.580  1.00  0.00    -0.336 N 
HETATM    9  C   UNL     1     -45.941  57.857 -60.310  1.00  0.00     0.257 C 
HETATM   10  O   UNL     1     -46.500  56.780 -60.491  1.00  0.00    -0.267 OA
HETATM   11  C   UNL     1     -47.185  61.324 -60.470  1.00  0.00     0.035 C 
HETATM   12  C   UNL     1     -48.036  60.611 -61.518  1.00  0.00     0.022 C 
HETATM   13  C   UNL     1     -47.883  59.145 -61.143  1.00  0.00     0.127 C 
HETATM   14  C   UNL     1     -42.284  58.668 -59.696  1.00  0.00     0.035 A 
HETATM   15  C   UNL     1     -41.976  57.704 -58.733  1.00  0.00     0.032 A 
ENDROOT
BRANCH   1  16
HETATM   16  N   UNL     1     -42.583  55.950 -57.225  1.00  0.00    -0.323 N 
HETATM   17  C   UNL     1     -42.155  56.275 -55.949  1.00  0.00     0.256 C 
HETATM   18  O   UNL     1     -42.118  57.400 -55.466  1.00  0.00    -0.267 OA
HETATM   19  H   UNL     1     -42.603  54.972 -57.475  1.00  0.00     0.169 HD
BRANCH  17  20
HETATM   20  C   UNL     1     -41.686  55.128 -55.107  1.00  0.00     0.033 A 
HETATM   21  C   UNL     1     -40.645  54.282 -55.492  1.00  0.00     0.019 A 
HETATM   22  C   UNL     1     -40.234  53.246 -54.648  1.00  0.00     0.031 A 
HETATM   23  C   UNL     1     -40.831  53.047 -53.388  1.00  0.00     0.044 A 
HETATM   24  C   UNL     1     -41.892  53.887 -52.989  1.00  0.00    -0.034 A 
HETATM   25  C   UNL     1     -42.675  53.743 -51.712  1.00  0.00     0.050 C 
HETATM   26  C   UNL     1     -42.289  54.930 -53.856  1.00  0.00     0.026 A 
BRANCH  23  27
HETATM   27  N   UNL     1     -40.302  52.000 -52.570  1.00  0.00    -0.332 N 
HETATM   28  C   UNL     1     -40.001  52.054 -51.224  1.00  0.00     0.096 A 
HETATM   29  C   UNL     1     -39.486  50.841 -50.820  1.00  0.00     0.019 A 
HETATM   30  C   UNL     1     -39.446  50.007 -51.954  1.00  0.00     0.019 A 
HETATM   31  C   UNL     1     -39.930  50.742 -53.014  1.00  0.00     0.096 A 
ENDBRANCH  23  27
ENDBRANCH  17  20
ENDBRANCH   1  16
BRANCH   6  32
HETATM   32  O   UNL     1     -44.885  61.526 -62.064  1.00  0.00    -0.346 OA
HETATM   33  H   UNL     1     -45.173  61.128 -62.903  1.00  0.00     0.219 HD
ENDBRANCH   6  32
TORSDOF 4
ENDMDL
MODEL 5
REMARK VINA RESULT:      -7.9     19.826     21.818
REMARK  4 active torsions:
REMARK  status: ('A' for Active; 'I' for Inactive)
REMARK    1  A    between atoms: C_3  and  N_4 
REMARK    2  A    between atoms: C_11  and  C_12 
REMARK       I    between atoms: C_12  and  N_13 
REMARK    3  A    between atoms: N_13  and  C_14 
REMARK    4  A    between atoms: C_19  and  O_20 
ROOT
HETATM    1  C   UNL     1     -33.801  39.895 -53.343  1.00  0.00     0.036 A 
HETATM    2  C   UNL     1     -34.513  39.500 -52.210  1.00  0.00     0.049 A 
HETATM    3  C   UNL     1     -33.935  39.588 -50.927  1.00  0.00     0.063 A 
HETATM    4  C   UNL     1     -32.622  40.070 -50.764  1.00  0.00     0.075 A 
HETATM    5  N   UNL     1     -31.907  40.197 -49.554  1.00  0.00    -0.226 NA
HETATM    6  C   UNL     1     -31.985  39.266 -48.661  1.00  0.00     0.161 C 
HETATM    7  C   UNL     1     -32.832  38.012 -48.730  1.00  0.00     0.164 C 
HETATM    8  N   UNL     1     -34.204  38.497 -48.747  1.00  0.00    -0.336 N 
HETATM    9  C   UNL     1     -34.795  39.176 -49.787  1.00  0.00     0.257 C 
HETATM   10  O   UNL     1     -35.993  39.441 -49.804  1.00  0.00    -0.267 OA
HETATM   11  C   UNL     1     -32.778  37.084 -47.518  1.00  0.00     0.035 C 
HETATM   12  C   UNL     1     -33.866  37.630 -46.596  1.00  0.00     0.022 C 
HETATM   13  C   UNL     1     -34.942  38.085 -47.570  1.00  0.00     0.127 C 
HETATM   14  C   UNL     1     -31.942  40.506 -51.907  1.00  0.00     0.035 A 
HETATM   15  C   UNL     1     -32.521  40.426 -53.177  1.00  0.00     0.032 A 
ENDROOT
BRANCH   1  16
HETATM   16  N   UNL     1     -34.276  39.779 -54.665  1.00  0.00    -0.323 N 
HETATM   17  C   UNL     1     -34.881  40.763 -55.430  1.00  0.00     0.256 C 
HETATM   18  O   UNL     1     -35.026  41.937 -55.110  1.00  0.00    -0.267 OA
HETATM   19  H   UNL     1     -34.186  38.861 -55.075  1.00  0.00     0.169 HD
BRANCH  17  20
HETATM   20  C   UNL     1     -35.411  40.321 -56.759  1.00  0.00     0.033 A 
HETATM   21  C   UNL     1     -35.299  39.009 -57.221  1.00  0.00     0.019 A 
HETATM   22  C   UNL     1     -35.841  38.652 -58.460  1.00  0.00     0.031 A 
HETATM   23  C   UNL     1     -36.532  39.588 -59.254  1.00  0.00     0.044 A 
HETATM   24  C   UNL     1     -36.643  40.922 -58.806  1.00  0.00    -0.034 A 
HETATM   25  C   UNL     1     -37.280  42.043 -59.581  1.00  0.00     0.050 C 
HETATM   26  C   UNL     1     -36.092  41.259 -57.550  1.00  0.00     0.026 A 
BRANCH  23  27
HETATM   27  N   UNL     1     -37.104  39.116 -60.477  1.00  0.00    -0.332 N 
HETATM   28  C   UNL     1     -38.418  38.766 -60.712  1.00  0.00     0.096 A 
HETATM   29  C   UNL     1     -38.551  38.335 -62.015  1.00  0.00     0.019 A 
HETATM   30  C   UNL     1     -37.277  38.399 -62.608  1.00  0.00     0.019 A 
HETATM   31  C   UNL     1     -36.405  38.860 -61.646  1.00  0.00     0.096 A 
ENDBRANCH  23  27
ENDBRANCH  17  20
ENDBRANCH   1  16
BRANCH   6  32
HETATM   32  O   UNL     1     -31.242  39.433 -47.560  1.00  0.00    -0.346 OA
HETATM   33  H   UNL     1     -30.466  39.960 -47.816  1.00  0.00     0.219 HD
ENDBRANCH   6  32
TORSDOF 4
ENDMDL
MODEL 6
REMARK VINA RESULT:      -7.9     18.391     22.033
REMARK  4 active torsions:
REMARK  status: ('A' for Active; 'I' for Inactive)
REMARK    1  A    between atoms: C_3  and  N_4 
REMARK    2  A    between atoms: C_11  and  C_12 
REMARK       I    between atoms: C_12  and  N_13 
REMARK    3  A    between atoms: N_13  and  C_14 
REMARK    4  A    between atoms: C_19  and  O_20 
ROOT
HETATM    1  C   UNL     1     -33.592  40.794 -51.348  1.00  0.00     0.036 A 
HETATM    2  C   UNL     1     -33.445  40.356 -52.663  1.00  0.00     0.049 A 
HETATM    3  C   UNL     1     -34.268  40.864 -53.690  1.00  0.00     0.063 A 
HETATM    4  C   UNL     1     -35.262  41.820 -53.405  1.00  0.00     0.075 A 
HETATM    5  N   UNL     1     -36.168  42.403 -54.317  1.00  0.00    -0.226 NA
HETATM    6  C   UNL     1     -36.724  41.672 -55.225  1.00  0.00     0.161 C 
HETATM    7  C   UNL     1     -36.476  40.199 -55.482  1.00  0.00     0.164 C 
HETATM    8  N   UNL     1     -35.079  40.128 -55.885  1.00  0.00    -0.336 N 
HETATM    9  C   UNL     1     -34.001  40.355 -55.061  1.00  0.00     0.257 C 
HETATM   10  O   UNL     1     -32.845  40.148 -55.417  1.00  0.00    -0.267 OA
HETATM   11  C   UNL     1     -37.235  39.573 -56.650  1.00  0.00     0.035 C 
HETATM   12  C   UNL     1     -36.320  39.818 -57.848  1.00  0.00     0.022 C 
HETATM   13  C   UNL     1     -34.928  39.672 -57.251  1.00  0.00     0.127 C 
HETATM   14  C   UNL     1     -35.361  42.283 -52.087  1.00  0.00     0.035 A 
HETATM   15  C   UNL     1     -34.538  41.784 -51.074  1.00  0.00     0.032 A 
ENDROOT
BRANCH   1  16
HETATM   16  N   UNL     1     -32.859  40.292 -50.253  1.00  0.00    -0.323 N 
HETATM   17  C   UNL     1     -33.157  39.180 -49.482  1.00  0.00     0.256 C 
HETATM   18  O   UNL     1     -34.070  38.388 -49.682  1.00  0.00    -0.267 OA
HETATM   19  H   UNL     1     -32.046  40.833 -49.995  1.00  0.00     0.169 HD
BRANCH  17  20
HETATM   20  C   UNL     1     -32.275  38.957 -48.292  1.00  0.00     0.033 A 
HETATM   21  C   UNL     1     -32.234  37.748 -47.597  1.00  0.00     0.019 A 
HETATM   22  C   UNL     1     -31.368  37.593 -46.510  1.00  0.00     0.031 A 
HETATM   23  C   UNL     1     -30.502  38.629 -46.109  1.00  0.00     0.044 A 
HETATM   24  C   UNL     1     -30.540  39.861 -46.796  1.00  0.00    -0.034 A 
HETATM   25  C   UNL     1     -29.735  41.079 -46.431  1.00  0.00     0.050 C 
HETATM   26  C   UNL     1     -31.420  39.995 -47.893  1.00  0.00     0.026 A 
BRANCH  23  27
HETATM   27  N   UNL     1     -29.609  38.356 -45.027  1.00  0.00    -0.332 N 
HETATM   28  C   UNL     1     -28.332  37.837 -45.098  1.00  0.00     0.096 A 
HETATM   29  C   UNL     1     -27.820  37.702 -43.825  1.00  0.00     0.019 A 
HETATM   30  C   UNL     1     -28.816  38.131 -42.927  1.00  0.00     0.019 A 
HETATM   31  C   UNL     1     -29.906  38.507 -43.681  1.00  0.00     0.096 A 
ENDBRANCH  23  27
ENDBRANCH  17  20
ENDBRANCH   1  16
BRANCH   6  32
HETATM   32  O   UNL     1     -37.608  42.282 -56.023  1.00  0.00    -0.346 OA
HETATM   33  H   UNL     1     -38.416  42.424 -55.499  1.00  0.00     0.219 HD
ENDBRANCH   6  32
TORSDOF 4
ENDMDL
MODEL 7
REMARK VINA RESULT:      -7.9      5.812     10.037
REMARK  4 active torsions:
REMARK  status: ('A' for Active; 'I' for Inactive)
REMARK    1  A    between atoms: C_3  and  N_4 
REMARK    2  A    between atoms: C_11  and  C_12 
REMARK       I    between atoms: C_12  and  N_13 
REMARK    3  A    between atoms: N_13  and  C_14 
REMARK    4  A    between atoms: C_19  and  O_20 
ROOT
HETATM    1  C   UNL     1     -43.031  56.153 -56.016  1.00  0.00     0.036 A 
HETATM    2  C   UNL     1     -42.773  56.720 -54.769  1.00  0.00     0.049 A 
HETATM    3  C   UNL     1     -41.928  56.076 -53.842  1.00  0.00     0.063 A 
HETATM    4  C   UNL     1     -41.333  54.838 -54.155  1.00  0.00     0.075 A 
HETATM    5  N   UNL     1     -40.486  54.069 -53.328  1.00  0.00    -0.226 NA
HETATM    6  C   UNL     1     -40.752  53.950 -52.070  1.00  0.00     0.161 C 
HETATM    7  C   UNL     1     -41.890  54.609 -51.317  1.00  0.00     0.164 C 
HETATM    8  N   UNL     1     -41.614  56.035 -51.410  1.00  0.00    -0.336 N 
HETATM    9  C   UNL     1     -41.693  56.788 -52.558  1.00  0.00     0.257 C 
HETATM   10  O   UNL     1     -41.583  58.010 -52.554  1.00  0.00    -0.267 OA
HETATM   11  C   UNL     1     -41.962  54.339 -49.816  1.00  0.00     0.035 C 
HETATM   12  C   UNL     1     -41.082  55.430 -49.209  1.00  0.00     0.022 C 
HETATM   13  C   UNL     1     -41.347  56.624 -50.113  1.00  0.00     0.127 C 
HETATM   14  C   UNL     1     -41.566  54.308 -55.429  1.00  0.00     0.035 A 
HETATM   15  C   UNL     1     -42.396  54.954 -56.349  1.00  0.00     0.032 A 
ENDROOT
BRANCH   1  16
HETATM   16  N   UNL     1     -43.912  56.694 -56.973  1.00  0.00    -0.323 N 
HETATM   17  C   UNL     1     -43.582  57.452 -58.085  1.00  0.00     0.256 C 
HETATM   18  O   UNL     1     -42.448  57.707 -58.473  1.00  0.00    -0.267 OA
HETATM   19  H   UNL     1     -44.892  56.528 -56.798  1.00  0.00     0.169 HD
BRANCH  17  20
HETATM   20  C   UNL     1     -44.737  58.013 -58.857  1.00  0.00     0.033 A 
HETATM   21  C   UNL     1     -45.011  59.379 -58.923  1.00  0.00     0.019 A 
HETATM   22  C   UNL     1     -46.087  59.844 -59.686  1.00  0.00     0.031 A 
HETATM   23  C   UNL     1     -46.898  58.959 -60.423  1.00  0.00     0.044 A 
HETATM   24  C   UNL     1     -46.640  57.573 -60.357  1.00  0.00    -0.034 A 
HETATM   25  C   UNL     1     -47.469  56.508 -61.024  1.00  0.00     0.050 C 
HETATM   26  C   UNL     1     -45.546  57.127 -59.584  1.00  0.00     0.026 A 
BRANCH  23  27
HETATM   27  N   UNL     1     -47.937  59.531 -61.221  1.00  0.00    -0.332 N 
HETATM   28  C   UNL     1     -47.956  59.690 -62.592  1.00  0.00     0.096 A 
HETATM   29  C   UNL     1     -49.129  60.310 -62.966  1.00  0.00     0.019 A 
HETATM   30  C   UNL     1     -49.859  60.566 -61.789  1.00  0.00     0.019 A 
HETATM   31  C   UNL     1     -49.104  60.100 -60.736  1.00  0.00     0.096 A 
ENDBRANCH  23  27
ENDBRANCH  17  20
ENDBRANCH   1  16
BRANCH   6  32
HETATM   32  O   UNL     1     -39.933  53.166 -51.359  1.00  0.00    -0.346 OA
HETATM   33  H   UNL     1     -40.310  53.095 -50.466  1.00  0.00     0.219 HD
ENDBRANCH   6  32
TORSDOF 4
ENDMDL
MODEL 8
REMARK VINA RESULT:      -7.8     18.351     21.975
REMARK  4 active torsions:
REMARK  status: ('A' for Active; 'I' for Inactive)
REMARK    1  A    between atoms: C_3  and  N_4 
REMARK    2  A    between atoms: C_11  and  C_12 
REMARK       I    between atoms: C_12  and  N_13 
REMARK    3  A    between atoms: N_13  and  C_14 
REMARK    4  A    between atoms: C_19  and  O_20 
ROOT
HETATM    1  C   UNL     1     -34.226  40.770 -51.640  1.00  0.00     0.036 A 
HETATM    2  C   UNL     1     -34.048  40.102 -52.851  1.00  0.00     0.049 A 
HETATM    3  C   UNL     1     -34.658  40.572 -54.032  1.00  0.00     0.063 A 
HETATM    4  C   UNL     1     -35.468  41.724 -54.011  1.00  0.00     0.075 A 
HETATM    5  N   UNL     1     -36.155  42.301 -55.101  1.00  0.00    -0.226 NA
HETATM    6  C   UNL     1     -36.758  41.541 -55.954  1.00  0.00     0.161 C 
HETATM    7  C   UNL     1     -36.780  40.026 -55.963  1.00  0.00     0.164 C 
HETATM    8  N   UNL     1     -35.393  39.641 -56.179  1.00  0.00    -0.336 N 
HETATM    9  C   UNL     1     -34.371  39.805 -55.273  1.00  0.00     0.257 C 
HETATM   10  O   UNL     1     -33.250  39.340 -55.452  1.00  0.00    -0.267 OA
HETATM   11  C   UNL     1     -37.536  39.362 -57.112  1.00  0.00     0.035 C 
HETATM   12  C   UNL     1     -36.485  39.238 -58.213  1.00  0.00     0.022 C 
HETATM   13  C   UNL     1     -35.209  38.946 -57.437  1.00  0.00     0.127 C 
HETATM   14  C   UNL     1     -35.595  42.408 -52.796  1.00  0.00     0.035 A 
HETATM   15  C   UNL     1     -34.981  41.945 -51.629  1.00  0.00     0.032 A 
ENDROOT
BRANCH   1  16
HETATM   16  N   UNL     1     -33.709  40.334 -50.404  1.00  0.00    -0.323 N 
HETATM   17  C   UNL     1     -32.384  40.082 -50.089  1.00  0.00     0.256 C 
HETATM   18  O   UNL     1     -31.419  40.284 -50.817  1.00  0.00    -0.267 OA
HETATM   19  H   UNL     1     -34.398  40.160 -49.687  1.00  0.00     0.169 HD
BRANCH  17  20
HETATM   20  C   UNL     1     -32.136  39.495 -48.733  1.00  0.00     0.033 A 
HETATM   21  C   UNL     1     -31.072  39.889 -47.921  1.00  0.00     0.019 A 
HETATM   22  C   UNL     1     -30.911  39.324 -46.652  1.00  0.00     0.031 A 
HETATM   23  C   UNL     1     -31.822  38.372 -46.153  1.00  0.00     0.044 A 
HETATM   24  C   UNL     1     -32.897  37.955 -46.968  1.00  0.00    -0.034 A 
HETATM   25  C   UNL     1     -33.898  36.893 -46.600  1.00  0.00     0.050 C 
HETATM   26  C   UNL     1     -33.042  38.543 -48.244  1.00  0.00     0.026 A 
BRANCH  23  27
HETATM   27  N   UNL     1     -31.610  37.896 -44.822  1.00  0.00    -0.332 N 
HETATM   28  C   UNL     1     -32.078  38.446 -43.645  1.00  0.00     0.096 A 
HETATM   29  C   UNL     1     -31.627  37.698 -42.578  1.00  0.00     0.019 A 
HETATM   30  C   UNL     1     -30.835  36.659 -43.102  1.00  0.00     0.019 A 
HETATM   31  C   UNL     1     -30.823  36.810 -44.471  1.00  0.00     0.096 A 
ENDBRANCH  23  27
ENDBRANCH  17  20
ENDBRANCH   1  16
BRANCH   6  32
HETATM   32  O   UNL     1     -37.429  42.160 -56.933  1.00  0.00    -0.346 OA
HETATM   33  H   UNL     1     -37.775  41.469 -57.523  1.00  0.00     0.219 HD
ENDBRANCH   6  32
TORSDOF 4
ENDMDL
MODEL 9
REMARK VINA RESULT:      -7.8      3.397     10.274
REMARK  4 active torsions:
REMARK  status: ('A' for Active; 'I' for Inactive)
REMARK    1  A    between atoms: C_3  and  N_4 
REMARK    2  A    between atoms: C_11  and  C_12 
REMARK       I    between atoms: C_12  and  N_13 
REMARK    3  A    between atoms: N_13  and  C_14 
REMARK    4  A    between atoms: C_19  and  O_20 
ROOT
HETATM    1  C   UNL     1     -44.063  58.553 -51.719  1.00  0.00     0.036 A 
HETATM    2  C   UNL     1     -44.584  58.596 -53.011  1.00  0.00     0.049 A 
HETATM    3  C   UNL     1     -44.129  57.703 -54.004  1.00  0.00     0.063 A 
HETATM    4  C   UNL     1     -43.130  56.754 -53.711  1.00  0.00     0.075 A 
HETATM    5  N   UNL     1     -42.563  55.814 -54.598  1.00  0.00    -0.226 NA
HETATM    6  C   UNL     1     -42.281  56.163 -55.809  1.00  0.00     0.161 C 
HETATM    7  C   UNL     1     -42.542  57.512 -56.448  1.00  0.00     0.164 C 
HETATM    8  N   UNL     1     -43.992  57.641 -56.452  1.00  0.00    -0.336 N 
HETATM    9  C   UNL     1     -44.779  57.811 -55.336  1.00  0.00     0.257 C 
HETATM   10  O   UNL     1     -45.980  58.051 -55.407  1.00  0.00    -0.267 OA
HETATM   11  C   UNL     1     -42.150  57.658 -57.917  1.00  0.00     0.035 C 
HETATM   12  C   UNL     1     -43.392  57.189 -58.672  1.00  0.00     0.022 C 
HETATM   13  C   UNL     1     -44.532  57.686 -57.795  1.00  0.00     0.127 C 
HETATM   14  C   UNL     1     -42.654  56.695 -52.395  1.00  0.00     0.035 A 
HETATM   15  C   UNL     1     -43.114  57.575 -51.412  1.00  0.00     0.032 A 
ENDROOT
BRANCH   1  16
HETATM   16  N   UNL     1     -44.411  59.449 -50.687  1.00  0.00    -0.323 N 
HETATM   17  C   UNL     1     -44.123  60.802 -50.617  1.00  0.00     0.256 C 
HETATM   18  O   UNL     1     -43.586  61.471 -51.491  1.00  0.00    -0.267 OA
HETATM   19  H   UNL     1     -44.899  59.035 -49.906  1.00  0.00     0.169 HD
BRANCH  17  20
HETATM   20  C   UNL     1     -44.498  61.482 -49.336  1.00  0.00     0.033 A 
HETATM   21  C   UNL     1     -44.266  62.838 -49.104  1.00  0.00     0.019 A 
HETATM   22  C   UNL     1     -44.667  63.422 -47.898  1.00  0.00     0.031 A 
HETATM   23  C   UNL     1     -45.333  62.674 -46.907  1.00  0.00     0.044 A 
HETATM   24  C   UNL     1     -45.564  61.298 -47.124  1.00  0.00    -0.034 A 
HETATM   25  C   UNL     1     -46.190  60.361 -46.127  1.00  0.00     0.050 C 
HETATM   26  C   UNL     1     -45.155  60.731 -48.350  1.00  0.00     0.026 A 
BRANCH  23  27
HETATM   27  N   UNL     1     -45.758  63.371 -45.733  1.00  0.00    -0.332 N 
HETATM   28  C   UNL     1     -46.990  63.946 -45.495  1.00  0.00     0.096 A 
HETATM   29  C   UNL     1     -46.984  64.543 -44.252  1.00  0.00     0.019 A 
HETATM   30  C   UNL     1     -45.701  64.354 -43.704  1.00  0.00     0.019 A 
HETATM   31  C   UNL     1     -44.964  63.652 -44.633  1.00  0.00     0.096 A 
ENDBRANCH  23  27
ENDBRANCH  17  20
ENDBRANCH   1  16
BRANCH   6  32
HETATM   32  O   UNL     1     -41.702  55.233 -56.578  1.00  0.00    -0.346 OA
HETATM   33  H   UNL     1     -40.759  55.463 -56.643  1.00  0.00     0.219 HD
ENDBRANCH   6  32
TORSDOF 4
ENDMDL
MODEL 10
REMARK VINA RESULT:      -7.6      4.358      6.377
REMARK  4 active torsions:
REMARK  status: ('A' for Active; 'I' for Inactive)
REMARK    1  A    between atoms: C_3  and  N_4 
REMARK    2  A    between atoms: C_11  and  C_12 
REMARK       I    between atoms: C_12  and  N_13 
REMARK    3  A    between atoms: N_13  and  C_14 
REMARK    4  A    between atoms: C_19  and  O_20 
ROOT
HETATM    1  C   UNL     1     -46.132  61.887 -49.078  1.00  0.00     0.036 A 
HETATM    2  C   UNL     1     -45.409  61.568 -47.929  1.00  0.00     0.049 A 
HETATM    3  C   UNL     1     -45.757  62.122 -46.679  1.00  0.00     0.063 A 
HETATM    4  C   UNL     1     -46.838  63.018 -46.569  1.00  0.00     0.075 A 
HETATM    5  N   UNL     1     -47.291  63.664 -45.398  1.00  0.00    -0.226 NA
HETATM    6  C   UNL     1     -46.435  64.141 -44.557  1.00  0.00     0.161 C 
HETATM    7  C   UNL     1     -44.926  64.045 -44.645  1.00  0.00     0.164 C 
HETATM    8  N   UNL     1     -44.643  62.621 -44.552  1.00  0.00    -0.336 N 
HETATM    9  C   UNL     1     -44.943  61.685 -45.515  1.00  0.00     0.257 C 
HETATM   10  O   UNL     1     -44.561  60.521 -45.445  1.00  0.00    -0.267 OA
HETATM   11  C   UNL     1     -44.134  64.660 -43.492  1.00  0.00     0.035 C 
HETATM   12  C   UNL     1     -44.032  63.523 -42.477  1.00  0.00     0.022 C 
HETATM   13  C   UNL     1     -43.891  62.290 -43.358  1.00  0.00     0.127 C 
HETATM   14  C   UNL     1     -47.580  63.288 -47.724  1.00  0.00     0.035 A 
HETATM   15  C   UNL     1     -47.239  62.730 -48.959  1.00  0.00     0.032 A 
ENDROOT
BRANCH   1  16
HETATM   16  N   UNL     1     -45.813  61.433 -50.374  1.00  0.00    -0.323 N 
HETATM   17  C   UNL     1     -45.821  60.125 -50.830  1.00  0.00     0.256 C 
HETATM   18  O   UNL     1     -46.195  59.143 -50.200  1.00  0.00    -0.267 OA
HETATM   19  H   UNL     1     -45.519  62.150 -51.020  1.00  0.00     0.169 HD
BRANCH  17  20
HETATM   20  C   UNL     1     -45.304  59.917 -52.221  1.00  0.00     0.033 A 
HETATM   21  C   UNL     1     -44.990  60.973 -53.077  1.00  0.00     0.019 A 
HETATM   22  C   UNL     1     -44.484  60.714 -54.355  1.00  0.00     0.031 A 
HETATM   23  C   UNL     1     -44.253  59.397 -54.798  1.00  0.00     0.044 A 
HETATM   24  C   UNL     1     -44.577  58.318 -53.947  1.00  0.00    -0.034 A 
HETATM   25  C   UNL     1     -44.460  56.864 -54.315  1.00  0.00     0.050 C 
HETATM   26  C   UNL     1     -45.083  58.603 -52.660  1.00  0.00     0.026 A 
BRANCH  23  27
HETATM   27  N   UNL     1     -43.677  59.233 -56.096  1.00  0.00    -0.332 N 
HETATM   28  C   UNL     1     -44.337  59.054 -57.295  1.00  0.00     0.096 A 
HETATM   29  C   UNL     1     -43.415  58.909 -58.309  1.00  0.00     0.019 A 
HETATM   30  C   UNL     1     -42.136  58.978 -57.724  1.00  0.00     0.019 A 
HETATM   31  C   UNL     1     -42.321  59.157 -56.370  1.00  0.00     0.096 A 
ENDBRANCH  23  27
ENDBRANCH  17  20
ENDBRANCH   1  16
BRANCH   6  32
HETATM   32  O   UNL     1     -46.938  64.782 -43.495  1.00  0.00    -0.346 OA
HETATM   33  H   UNL     1     -46.199  65.246 -43.065  1.00  0.00     0.219 HD
ENDBRANCH   6  32
TORSDOF 4
ENDMDL
