MODEL 1
REMARK VINA RESULT:      -6.9      0.000      0.000
REMARK  9 active torsions:
REMARK  status: ('A' for Active; 'I' for Inactive)
REMARK    1  A    between atoms: C_2  and  C_3 
REMARK    2  A    between atoms: C_7  and  C_8 
REMARK    3  A    between atoms: C_8  and  C_9 
REMARK       I    between atoms: C_9  and  N_10 
REMARK    4  A    between atoms: N_10  and  C_11 
REMARK    5  A    between atoms: C_11  and  C_12 
REMARK    6  A    between atoms: C_12  and  C_13 
REMARK    7  A    between atoms: C_21  and  C_22 
REMARK    8  A    between atoms: C_32  and  C_33 
REMARK    9  A    between atoms: C_33  and  O_34 
ROOT
HETATM    1  C   UNL     1     -43.530  55.870 -58.919  1.00  0.00     0.051 C 
HETATM    2  N   UNL     1     -43.445  55.027 -57.835  1.00  0.00    -0.228 NA
HETATM    3  C   UNL     1     -42.821  55.432 -56.791  1.00  0.00     0.170 C 
HETATM    4  N   UNL     1     -42.355  56.895 -56.517  1.00  0.00    -0.318 N 
HETATM    5  C   UNL     1     -41.971  56.981 -55.280  1.00  0.00     0.011 C 
HETATM    6  C   UNL     1     -42.616  57.845 -57.632  1.00  0.00     0.166 C 
HETATM    7  S   UNL     1     -42.523  54.371 -55.447  1.00  0.00    -0.086 SA
HETATM    8  C   UNL     1     -41.549  55.667 -54.649  1.00  0.00     0.135 C 
HETATM    9  C   UNL     1     -43.034  57.124 -58.891  1.00  0.00     0.069 C 
ENDROOT
BRANCH   5  10
HETATM   10  C   UNL     1     -42.177  58.201 -54.417  1.00  0.00     0.156 C 
BRANCH  10  11
HETATM   11  C   UNL     1     -43.160  57.817 -53.310  1.00  0.00     0.222 C 
HETATM   12  N   UNL     1     -42.641  57.604 -52.061  1.00  0.00    -0.361 N 
HETATM   13  H   UNL     1     -41.648  57.758 -51.903  1.00  0.00     0.162 HD
HETATM   14  O   UNL     1     -44.355  57.639 -53.565  1.00  0.00    -0.273 OA
BRANCH  12  15
HETATM   15  C   UNL     1     -43.319  56.735 -51.107  1.00  0.00     0.124 C 
BRANCH  15  16
HETATM   16  C   UNL     1     -43.083  55.225 -51.246  1.00  0.00     0.053 C 
BRANCH  16  17
HETATM   17  C   UNL     1     -42.286  54.529 -50.146  1.00  0.00     0.189 C 
HETATM   18  N   UNL     1     -41.363  53.411 -50.591  1.00  0.00    -0.071 N 
HETATM   19  H   UNL     1     -41.970  52.580 -50.727  1.00  0.00     0.279 HD
HETATM   20  C   UNL     1     -40.560  53.611 -51.846  1.00  0.00     0.270 C 
HETATM   21  C   UNL     1     -40.449  53.164 -49.398  1.00  0.00     0.235 C 
HETATM   22  C   UNL     1     -40.532  54.427 -48.550  1.00  0.00     0.030 C 
HETATM   23  C   UNL     1     -41.342  55.427 -49.363  1.00  0.00     0.035 C 
ENDBRANCH  16  17
ENDBRANCH  15  16
ENDBRANCH  12  15
ENDBRANCH  10  11
ENDBRANCH   5  10
BRANCH   6  24
HETATM   24  C   UNL     1     -43.607  58.940 -57.232  1.00  0.00    -0.024 A 
HETATM   25  C   UNL     1     -43.235  60.309 -57.197  1.00  0.00    -0.053 A 
HETATM   26  C   UNL     1     -41.852  60.799 -57.554  1.00  0.00     0.049 C 
HETATM   27  C   UNL     1     -44.194  61.279 -56.854  1.00  0.00     0.014 A 
HETATM   28  C   UNL     1     -45.508  60.928 -56.536  1.00  0.00    -0.061 A 
HETATM   29  C   UNL     1     -46.531  61.993 -56.253  1.00  0.00     0.048 C 
HETATM   30  C   UNL     1     -45.877  59.585 -56.579  1.00  0.00     0.007 A 
HETATM   31  C   UNL     1     -44.943  58.603 -56.920  1.00  0.00     0.011 A 
ENDBRANCH   6  24
BRANCH   9  32
HETATM   32  C   UNL     1     -42.707  57.843 -60.144  1.00  0.00     0.293 C 
HETATM   33  O   UNL     1     -41.673  57.686 -60.762  1.00  0.00    -0.259 OA
BRANCH  32  34
HETATM   34  O   UNL     1     -43.814  58.504 -60.555  1.00  0.00    -0.323 OA
HETATM   35  C   UNL     1     -43.620  59.871 -60.930  1.00  0.00     0.213 C 
ENDBRANCH  32  34
ENDBRANCH   9  32
BRANCH   1  36
HETATM   36  C   UNL     1     -44.199  55.214 -60.125  1.00  0.00     0.056 C 
HETATM   37  C   UNL     1     -45.692  55.500 -60.261  1.00  0.00     0.011 C 
ENDBRANCH   1  36
TORSDOF 9
ENDMDL
MODEL 2
REMARK VINA RESULT:      -6.9      2.196      4.388
REMARK  9 active torsions:
REMARK  status: ('A' for Active; 'I' for Inactive)
REMARK    1  A    between atoms: C_2  and  C_3 
REMARK    2  A    between atoms: C_7  and  C_8 
REMARK    3  A    between atoms: C_8  and  C_9 
REMARK       I    between atoms: C_9  and  N_10 
REMARK    4  A    between atoms: N_10  and  C_11 
REMARK    5  A    between atoms: C_11  and  C_12 
REMARK    6  A    between atoms: C_12  and  C_13 
REMARK    7  A    between atoms: C_21  and  C_22 
REMARK    8  A    between atoms: C_32  and  C_33 
REMARK    9  A    between atoms: C_33  and  O_34 
ROOT
HETATM    1  C   UNL     1     -41.975  60.857 -58.102  1.00  0.00     0.051 C 
HETATM    2  N   UNL     1     -41.466  60.485 -56.879  1.00  0.00    -0.228 NA
HETATM    3  C   UNL     1     -42.253  59.935 -56.030  1.00  0.00     0.170 C 
HETATM    4  N   UNL     1     -43.690  59.404 -56.327  1.00  0.00    -0.318 N 
HETATM    5  C   UNL     1     -44.093  58.711 -55.307  1.00  0.00     0.011 C 
HETATM    6  C   UNL     1     -44.164  59.654 -57.716  1.00  0.00     0.166 C 
HETATM    7  S   UNL     1     -41.734  59.590 -54.408  1.00  0.00    -0.086 SA
HETATM    8  C   UNL     1     -43.408  59.047 -53.995  1.00  0.00     0.135 C 
HETATM    9  C   UNL     1     -43.252  60.604 -58.453  1.00  0.00     0.069 C 
ENDROOT
BRANCH   5  10
HETATM   10  C   UNL     1     -44.956  57.478 -55.414  1.00  0.00     0.156 C 
BRANCH  10  11
HETATM   11  C   UNL     1     -44.053  56.266 -55.180  1.00  0.00     0.222 C 
HETATM   12  N   UNL     1     -44.322  55.491 -54.084  1.00  0.00    -0.361 N 
HETATM   13  H   UNL     1     -45.129  55.711 -53.505  1.00  0.00     0.162 HD
HETATM   14  O   UNL     1     -43.083  56.054 -55.913  1.00  0.00    -0.273 OA
BRANCH  12  15
HETATM   15  C   UNL     1     -43.274  54.696 -53.455  1.00  0.00     0.124 C 
BRANCH  15  16
HETATM   16  C   UNL     1     -42.145  55.460 -52.750  1.00  0.00     0.053 C 
BRANCH  16  17
HETATM   17  C   UNL     1     -40.972  54.649 -52.207  1.00  0.00     0.189 C 
HETATM   18  N   UNL     1     -40.770  54.682 -50.704  1.00  0.00    -0.071 N 
HETATM   19  H   UNL     1     -40.289  55.580 -50.503  1.00  0.00     0.279 HD
HETATM   20  C   UNL     1     -41.985  54.600 -49.823  1.00  0.00     0.270 C 
HETATM   21  C   UNL     1     -39.813  53.534 -50.414  1.00  0.00     0.235 C 
HETATM   22  C   UNL     1     -39.904  52.611 -51.623  1.00  0.00     0.030 C 
HETATM   23  C   UNL     1     -41.034  53.155 -52.485  1.00  0.00     0.035 C 
ENDBRANCH  16  17
ENDBRANCH  15  16
ENDBRANCH  12  15
ENDBRANCH  10  11
ENDBRANCH   5  10
BRANCH   6  24
HETATM   24  C   UNL     1     -44.394  58.351 -58.486  1.00  0.00    -0.024 A 
HETATM   25  C   UNL     1     -45.697  57.906 -58.830  1.00  0.00    -0.053 A 
HETATM   26  C   UNL     1     -46.952  58.670 -58.480  1.00  0.00     0.049 C 
HETATM   27  C   UNL     1     -45.851  56.719 -59.568  1.00  0.00     0.014 A 
HETATM   28  C   UNL     1     -44.749  55.956 -59.965  1.00  0.00    -0.061 A 
HETATM   29  C   UNL     1     -44.939  54.736 -60.821  1.00  0.00     0.048 C 
HETATM   30  C   UNL     1     -43.469  56.398 -59.635  1.00  0.00     0.007 A 
HETATM   31  C   UNL     1     -43.290  57.576 -58.905  1.00  0.00     0.011 A 
ENDBRANCH   6  24
BRANCH   9  32
HETATM   32  C   UNL     1     -43.919  61.383 -59.522  1.00  0.00     0.293 C 
HETATM   33  O   UNL     1     -44.467  62.451 -59.337  1.00  0.00    -0.259 OA
BRANCH  32  34
HETATM   34  O   UNL     1     -43.620  60.812 -60.712  1.00  0.00    -0.323 OA
HETATM   35  C   UNL     1     -44.739  60.400 -61.503  1.00  0.00     0.213 C 
ENDBRANCH  32  34
ENDBRANCH   9  32
BRANCH   1  36
HETATM   36  C   UNL     1     -40.956  61.601 -58.963  1.00  0.00     0.056 C 
HETATM   37  C   UNL     1     -40.609  63.005 -58.472  1.00  0.00     0.011 C 
ENDBRANCH   1  36
TORSDOF 9
ENDMDL
MODEL 3
REMARK VINA RESULT:      -6.8      3.020      8.358
REMARK  9 active torsions:
REMARK  status: ('A' for Active; 'I' for Inactive)
REMARK    1  A    between atoms: C_2  and  C_3 
REMARK    2  A    between atoms: C_7  and  C_8 
REMARK    3  A    between atoms: C_8  and  C_9 
REMARK       I    between atoms: C_9  and  N_10 
REMARK    4  A    between atoms: N_10  and  C_11 
REMARK    5  A    between atoms: C_11  and  C_12 
REMARK    6  A    between atoms: C_12  and  C_13 
REMARK    7  A    between atoms: C_21  and  C_22 
REMARK    8  A    between atoms: C_32  and  C_33 
REMARK    9  A    between atoms: C_33  and  O_34 
ROOT
HETATM    1  C   UNL     1     -42.143  54.125 -54.128  1.00  0.00     0.051 C 
HETATM    2  N   UNL     1     -42.155  54.536 -55.440  1.00  0.00    -0.228 NA
HETATM    3  C   UNL     1     -42.821  55.588 -55.747  1.00  0.00     0.170 C 
HETATM    4  N   UNL     1     -43.426  56.613 -54.737  1.00  0.00    -0.318 N 
HETATM    5  C   UNL     1     -43.824  57.656 -55.397  1.00  0.00     0.011 C 
HETATM    6  C   UNL     1     -43.248  56.245 -53.306  1.00  0.00     0.166 C 
HETATM    7  S   UNL     1     -43.025  56.078 -57.401  1.00  0.00    -0.086 SA
HETATM    8  C   UNL     1     -44.123  57.410 -56.864  1.00  0.00     0.135 C 
HETATM    9  C   UNL     1     -42.756  54.826 -53.152  1.00  0.00     0.069 C 
ENDROOT
BRANCH   5  10
HETATM   10  C   UNL     1     -43.739  59.068 -54.871  1.00  0.00     0.156 C 
BRANCH  10  11
HETATM   11  C   UNL     1     -42.571  59.752 -55.582  1.00  0.00     0.222 C 
HETATM   12  N   UNL     1     -42.839  60.360 -56.779  1.00  0.00    -0.361 N 
HETATM   13  H   UNL     1     -43.797  60.382 -57.121  1.00  0.00     0.162 HD
HETATM   14  O   UNL     1     -41.428  59.685 -55.120  1.00  0.00    -0.273 OA
BRANCH  12  15
HETATM   15  C   UNL     1     -41.793  60.540 -57.778  1.00  0.00     0.124 C 
BRANCH  15  16
HETATM   16  C   UNL     1     -41.321  61.975 -58.046  1.00  0.00     0.053 C 
BRANCH  16  17
HETATM   17  C   UNL     1     -40.430  62.213 -59.262  1.00  0.00     0.189 C 
HETATM   18  N   UNL     1     -41.128  62.253 -60.608  1.00  0.00    -0.071 N 
HETATM   19  H   UNL     1     -41.288  61.262 -60.873  1.00  0.00     0.279 HD
HETATM   20  C   UNL     1     -42.441  62.977 -60.705  1.00  0.00     0.270 C 
HETATM   21  C   UNL     1     -40.105  62.859 -61.559  1.00  0.00     0.235 C 
HETATM   22  C   UNL     1     -39.101  63.585 -60.671  1.00  0.00     0.030 C 
HETATM   23  C   UNL     1     -39.669  63.529 -59.261  1.00  0.00     0.035 C 
ENDBRANCH  16  17
ENDBRANCH  15  16
ENDBRANCH  12  15
ENDBRANCH  10  11
ENDBRANCH   5  10
BRANCH   6  24
HETATM   24  C   UNL     1     -42.368  57.251 -52.561  1.00  0.00    -0.024 A 
HETATM   25  C   UNL     1     -42.890  58.092 -51.544  1.00  0.00    -0.053 A 
HETATM   26  C   UNL     1     -44.336  58.063 -51.108  1.00  0.00     0.049 C 
HETATM   27  C   UNL     1     -42.031  58.976 -50.867  1.00  0.00     0.014 A 
HETATM   28  C   UNL     1     -40.671  59.056 -51.178  1.00  0.00    -0.061 A 
HETATM   29  C   UNL     1     -39.762  59.950 -50.383  1.00  0.00     0.048 C 
HETATM   30  C   UNL     1     -40.156  58.223 -52.170  1.00  0.00     0.007 A 
HETATM   31  C   UNL     1     -40.989  57.334 -52.854  1.00  0.00     0.011 A 
ENDBRANCH   6  24
BRANCH   9  32
HETATM   32  C   UNL     1     -43.142  54.181 -51.876  1.00  0.00     0.293 C 
HETATM   33  O   UNL     1     -44.238  53.701 -51.666  1.00  0.00    -0.259 OA
BRANCH  32  34
HETATM   34  O   UNL     1     -42.030  54.043 -51.117  1.00  0.00    -0.323 OA
HETATM   35  C   UNL     1     -42.056  54.705 -49.849  1.00  0.00     0.213 C 
ENDBRANCH  32  34
ENDBRANCH   9  32
BRANCH   1  36
HETATM   36  C   UNL     1     -41.408  52.801 -53.931  1.00  0.00     0.056 C 
HETATM   37  C   UNL     1     -39.971  52.786 -54.448  1.00  0.00     0.011 C 
ENDBRANCH   1  36
TORSDOF 9
ENDMDL
MODEL 4
REMARK VINA RESULT:      -6.7      2.348      3.892
REMARK  9 active torsions:
REMARK  status: ('A' for Active; 'I' for Inactive)
REMARK    1  A    between atoms: C_2  and  C_3 
REMARK    2  A    between atoms: C_7  and  C_8 
REMARK    3  A    between atoms: C_8  and  C_9 
REMARK       I    between atoms: C_9  and  N_10 
REMARK    4  A    between atoms: N_10  and  C_11 
REMARK    5  A    between atoms: C_11  and  C_12 
REMARK    6  A    between atoms: C_12  and  C_13 
REMARK    7  A    between atoms: C_21  and  C_22 
REMARK    8  A    between atoms: C_32  and  C_33 
REMARK    9  A    between atoms: C_33  and  O_34 
ROOT
HETATM    1  C   UNL     1     -43.845  60.062 -58.531  1.00  0.00     0.051 C 
HETATM    2  N   UNL     1     -44.282  58.871 -59.062  1.00  0.00    -0.228 NA
HETATM    3  C   UNL     1     -43.848  57.777 -58.555  1.00  0.00     0.170 C 
HETATM    4  N   UNL     1     -43.057  57.642 -57.216  1.00  0.00    -0.318 N 
HETATM    5  C   UNL     1     -42.985  56.384 -56.905  1.00  0.00     0.011 C 
HETATM    6  C   UNL     1     -42.742  58.937 -56.553  1.00  0.00     0.166 C 
HETATM    7  S   UNL     1     -44.218  56.237 -59.272  1.00  0.00    -0.086 SA
HETATM    8  C   UNL     1     -43.137  55.426 -58.071  1.00  0.00     0.135 C 
HETATM    9  C   UNL     1     -43.027  60.110 -57.460  1.00  0.00     0.069 C 
ENDROOT
BRANCH   5  10
HETATM   10  C   UNL     1     -43.033  55.864 -55.489  1.00  0.00     0.156 C 
BRANCH  10  11
HETATM   11  C   UNL     1     -41.607  55.479 -55.095  1.00  0.00     0.222 C 
HETATM   12  N   UNL     1     -41.138  54.274 -55.547  1.00  0.00    -0.361 N 
HETATM   13  H   UNL     1     -41.722  53.713 -56.162  1.00  0.00     0.162 HD
HETATM   14  O   UNL     1     -40.948  56.199 -54.339  1.00  0.00    -0.273 OA
BRANCH  12  15
HETATM   15  C   UNL     1     -40.088  53.563 -54.829  1.00  0.00     0.124 C 
BRANCH  15  16
HETATM   16  C   UNL     1     -40.504  52.775 -53.580  1.00  0.00     0.053 C 
BRANCH  16  17
HETATM   17  C   UNL     1     -40.268  53.427 -52.220  1.00  0.00     0.189 C 
HETATM   18  N   UNL     1     -41.347  54.376 -51.734  1.00  0.00    -0.071 N 
HETATM   19  H   UNL     1     -41.182  55.271 -52.232  1.00  0.00     0.279 HD
HETATM   20  C   UNL     1     -42.783  53.986 -51.945  1.00  0.00     0.270 C 
HETATM   21  C   UNL     1     -41.052  54.574 -50.253  1.00  0.00     0.235 C 
HETATM   22  C   UNL     1     -40.179  53.393 -49.848  1.00  0.00     0.030 C 
HETATM   23  C   UNL     1     -40.145  52.462 -51.051  1.00  0.00     0.035 C 
ENDBRANCH  16  17
ENDBRANCH  15  16
ENDBRANCH  12  15
ENDBRANCH  10  11
ENDBRANCH   5  10
BRANCH   6  24
HETATM   24  C   UNL     1     -43.436  59.068 -55.195  1.00  0.00    -0.024 A 
HETATM   25  C   UNL     1     -42.702  59.269 -53.998  1.00  0.00    -0.053 A 
HETATM   26  C   UNL     1     -41.196  59.378 -53.958  1.00  0.00     0.049 C 
HETATM   27  C   UNL     1     -43.391  59.417 -52.780  1.00  0.00     0.014 A 
HETATM   28  C   UNL     1     -44.786  59.361 -52.717  1.00  0.00    -0.061 A 
HETATM   29  C   UNL     1     -45.497  59.603 -51.416  1.00  0.00     0.048 C 
HETATM   30  C   UNL     1     -45.507  59.172 -53.895  1.00  0.00     0.007 A 
HETATM   31  C   UNL     1     -44.846  59.027 -55.117  1.00  0.00     0.011 A 
ENDBRANCH   6  24
BRANCH   9  32
HETATM   32  C   UNL     1     -42.202  61.309 -57.183  1.00  0.00     0.293 C 
HETATM   33  O   UNL     1     -42.547  62.210 -56.445  1.00  0.00    -0.259 OA
BRANCH  32  34
HETATM   34  O   UNL     1     -40.970  61.107 -57.707  1.00  0.00    -0.323 OA
HETATM   35  C   UNL     1     -40.483  62.142 -58.566  1.00  0.00     0.213 C 
ENDBRANCH  32  34
ENDBRANCH   9  32
BRANCH   1  36
HETATM   36  C   UNL     1     -44.354  61.275 -59.305  1.00  0.00     0.056 C 
HETATM   37  C   UNL     1     -44.534  61.046 -60.805  1.00  0.00     0.011 C 
ENDBRANCH   1  36
TORSDOF 9
ENDMDL
MODEL 5
REMARK VINA RESULT:      -6.6      2.716      7.773
REMARK  9 active torsions:
REMARK  status: ('A' for Active; 'I' for Inactive)
REMARK    1  A    between atoms: C_2  and  C_3 
REMARK    2  A    between atoms: C_7  and  C_8 
REMARK    3  A    between atoms: C_8  and  C_9 
REMARK       I    between atoms: C_9  and  N_10 
REMARK    4  A    between atoms: N_10  and  C_11 
REMARK    5  A    between atoms: C_11  and  C_12 
REMARK    6  A    between atoms: C_12  and  C_13 
REMARK    7  A    between atoms: C_21  and  C_22 
REMARK    8  A    between atoms: C_32  and  C_33 
REMARK    9  A    between atoms: C_33  and  O_34 
ROOT
HETATM    1  C   UNL     1     -41.223  59.075 -51.068  1.00  0.00     0.051 C 
HETATM    2  N   UNL     1     -40.916  57.755 -51.304  1.00  0.00    -0.228 NA
HETATM    3  C   UNL     1     -41.798  57.011 -51.863  1.00  0.00     0.170 C 
HETATM    4  N   UNL     1     -43.112  57.507 -52.544  1.00  0.00    -0.318 N 
HETATM    5  C   UNL     1     -43.638  56.517 -53.197  1.00  0.00     0.011 C 
HETATM    6  C   UNL     1     -43.346  58.973 -52.437  1.00  0.00     0.166 C 
HETATM    7  S   UNL     1     -41.556  55.300 -52.045  1.00  0.00    -0.086 SA
HETATM    8  C   UNL     1     -43.229  55.140 -52.709  1.00  0.00     0.135 C 
HETATM    9  C   UNL     1     -42.392  59.619 -51.461  1.00  0.00     0.069 C 
ENDROOT
BRANCH   5  10
HETATM   10  C   UNL     1     -44.368  56.666 -54.509  1.00  0.00     0.156 C 
BRANCH  10  11
HETATM   11  C   UNL     1     -43.341  56.488 -55.627  1.00  0.00     0.222 C 
HETATM   12  N   UNL     1     -43.818  56.437 -56.910  1.00  0.00    -0.361 N 
HETATM   13  H   UNL     1     -44.813  56.571 -57.075  1.00  0.00     0.162 HD
HETATM   14  O   UNL     1     -42.147  56.324 -55.364  1.00  0.00    -0.273 OA
BRANCH  12  15
HETATM   15  C   UNL     1     -43.078  55.744 -57.957  1.00  0.00     0.124 C 
BRANCH  15  16
HETATM   16  C   UNL     1     -43.574  55.921 -59.398  1.00  0.00     0.053 C 
BRANCH  16  17
HETATM   17  C   UNL     1     -43.121  57.167 -60.155  1.00  0.00     0.189 C 
HETATM   18  N   UNL     1     -44.212  58.134 -60.571  1.00  0.00    -0.071 N 
HETATM   19  H   UNL     1     -44.640  57.727 -61.425  1.00  0.00     0.279 HD
HETATM   20  C   UNL     1     -45.315  58.424 -59.592  1.00  0.00     0.270 C 
HETATM   21  C   UNL     1     -43.477  59.413 -60.950  1.00  0.00     0.235 C 
HETATM   22  C   UNL     1     -42.111  59.312 -60.280  1.00  0.00     0.030 C 
HETATM   23  C   UNL     1     -42.166  58.075 -59.395  1.00  0.00     0.035 C 
ENDBRANCH  16  17
ENDBRANCH  15  16
ENDBRANCH  12  15
ENDBRANCH  10  11
ENDBRANCH   5  10
BRANCH   6  24
HETATM   24  C   UNL     1     -43.330  59.657 -53.806  1.00  0.00    -0.024 A 
HETATM   25  C   UNL     1     -44.463  60.347 -54.310  1.00  0.00    -0.053 A 
HETATM   26  C   UNL     1     -45.761  60.474 -53.548  1.00  0.00     0.049 C 
HETATM   27  C   UNL     1     -44.385  60.988 -55.559  1.00  0.00     0.014 A 
HETATM   28  C   UNL     1     -43.218  60.953 -56.328  1.00  0.00    -0.061 A 
HETATM   29  C   UNL     1     -43.139  61.714 -57.621  1.00  0.00     0.048 C 
HETATM   30  C   UNL     1     -42.103  60.283 -55.829  1.00  0.00     0.007 A 
HETATM   31  C   UNL     1     -42.154  59.642 -54.588  1.00  0.00     0.011 A 
ENDBRANCH   6  24
BRANCH   9  32
HETATM   32  C   UNL     1     -42.913  60.851 -50.824  1.00  0.00     0.293 C 
HETATM   33  O   UNL     1     -42.808  61.959 -51.310  1.00  0.00    -0.259 OA
BRANCH  32  34
HETATM   34  O   UNL     1     -43.677  60.491 -49.766  1.00  0.00    -0.323 OA
HETATM   35  C   UNL     1     -44.728  61.397 -49.420  1.00  0.00     0.213 C 
ENDBRANCH  32  34
ENDBRANCH   9  32
BRANCH   1  36
HETATM   36  C   UNL     1     -40.126  59.806 -50.297  1.00  0.00     0.056 C 
HETATM   37  C   UNL     1     -38.702  59.414 -50.687  1.00  0.00     0.011 C 
ENDBRANCH   1  36
TORSDOF 9
ENDMDL
MODEL 6
REMARK VINA RESULT:      -6.3      3.260      6.530
REMARK  9 active torsions:
REMARK  status: ('A' for Active; 'I' for Inactive)
REMARK    1  A    between atoms: C_2  and  C_3 
REMARK    2  A    between atoms: C_7  and  C_8 
REMARK    3  A    between atoms: C_8  and  C_9 
REMARK       I    between atoms: C_9  and  N_10 
REMARK    4  A    between atoms: N_10  and  C_11 
REMARK    5  A    between atoms: C_11  and  C_12 
REMARK    6  A    between atoms: C_12  and  C_13 
REMARK    7  A    between atoms: C_21  and  C_22 
REMARK    8  A    between atoms: C_32  and  C_33 
REMARK    9  A    between atoms: C_33  and  O_34 
ROOT
HETATM    1  C   UNL     1     -40.938  59.220 -50.587  1.00  0.00     0.051 C 
HETATM    2  N   UNL     1     -40.538  57.905 -50.541  1.00  0.00    -0.228 NA
HETATM    3  C   UNL     1     -41.352  57.001 -50.944  1.00  0.00     0.170 C 
HETATM    4  N   UNL     1     -42.677  57.251 -51.730  1.00  0.00    -0.318 N 
HETATM    5  C   UNL     1     -43.117  56.113 -52.169  1.00  0.00     0.011 C 
HETATM    6  C   UNL     1     -43.012  58.687 -51.932  1.00  0.00     0.166 C 
HETATM    7  S   UNL     1     -40.990  55.311 -50.763  1.00  0.00    -0.086 SA
HETATM    8  C   UNL     1     -42.631  54.899 -51.401  1.00  0.00     0.135 C 
HETATM    9  C   UNL     1     -42.131  59.587 -51.100  1.00  0.00     0.069 C 
ENDROOT
BRANCH   5  10
HETATM   10  C   UNL     1     -43.820  55.936 -53.493  1.00  0.00     0.156 C 
BRANCH  10  11
HETATM   11  C   UNL     1     -42.836  55.259 -54.447  1.00  0.00     0.222 C 
HETATM   12  N   UNL     1     -42.847  53.890 -54.486  1.00  0.00    -0.361 N 
HETATM   13  H   UNL     1     -43.532  53.382 -53.931  1.00  0.00     0.162 HD
HETATM   14  O   UNL     1     -42.023  55.928 -55.091  1.00  0.00    -0.273 OA
BRANCH  12  15
HETATM   15  C   UNL     1     -41.661  53.144 -54.886  1.00  0.00     0.124 C 
BRANCH  15  16
HETATM   16  C   UNL     1     -40.512  53.060 -53.873  1.00  0.00     0.053 C 
BRANCH  16  17
HETATM   17  C   UNL     1     -40.465  51.842 -52.954  1.00  0.00     0.189 C 
HETATM   18  N   UNL     1     -40.198  50.507 -53.620  1.00  0.00    -0.071 N 
HETATM   19  H   UNL     1     -41.104  50.208 -54.030  1.00  0.00     0.279 HD
HETATM   20  C   UNL     1     -39.158  50.451 -54.704  1.00  0.00     0.270 C 
HETATM   21  C   UNL     1     -39.839  49.566 -52.478  1.00  0.00     0.235 C 
HETATM   22  C   UNL     1     -39.429  50.467 -51.319  1.00  0.00     0.030 C 
HETATM   23  C   UNL     1     -39.389  51.881 -51.880  1.00  0.00     0.035 C 
ENDBRANCH  16  17
ENDBRANCH  15  16
ENDBRANCH  12  15
ENDBRANCH  10  11
ENDBRANCH   5  10
BRANCH   6  24
HETATM   24  C   UNL     1     -43.005  59.074 -53.413  1.00  0.00    -0.024 A 
HETATM   25  C   UNL     1     -44.172  59.549 -54.066  1.00  0.00    -0.053 A 
HETATM   26  C   UNL     1     -45.500  59.721 -53.368  1.00  0.00     0.049 C 
HETATM   27  C   UNL     1     -44.103  59.923 -55.421  1.00  0.00     0.014 A 
HETATM   28  C   UNL     1     -42.913  59.828 -56.147  1.00  0.00    -0.061 A 
HETATM   29  C   UNL     1     -42.850  60.310 -57.569  1.00  0.00     0.048 C 
HETATM   30  C   UNL     1     -41.765  59.369 -55.503  1.00  0.00     0.007 A 
HETATM   31  C   UNL     1     -41.807  58.996 -54.157  1.00  0.00     0.011 A 
ENDBRANCH   6  24
BRANCH   9  32
HETATM   32  C   UNL     1     -42.751  60.883 -50.738  1.00  0.00     0.293 C 
HETATM   33  O   UNL     1     -42.778  61.847 -51.477  1.00  0.00    -0.259 OA
BRANCH  32  34
HETATM   34  O   UNL     1     -43.433  60.720 -49.581  1.00  0.00    -0.323 OA
HETATM   35  C   UNL     1     -44.831  61.017 -49.635  1.00  0.00     0.213 C 
ENDBRANCH  32  34
ENDBRANCH   9  32
BRANCH   1  36
HETATM   36  C   UNL     1     -39.915  60.171 -49.970  1.00  0.00     0.056 C 
HETATM   37  C   UNL     1     -38.457  59.782 -50.210  1.00  0.00     0.011 C 
ENDBRANCH   1  36
TORSDOF 9
ENDMDL
MODEL 7
REMARK VINA RESULT:      -6.2      3.448      6.393
REMARK  9 active torsions:
REMARK  status: ('A' for Active; 'I' for Inactive)
REMARK    1  A    between atoms: C_2  and  C_3 
REMARK    2  A    between atoms: C_7  and  C_8 
REMARK    3  A    between atoms: C_8  and  C_9 
REMARK       I    between atoms: C_9  and  N_10 
REMARK    4  A    between atoms: N_10  and  C_11 
REMARK    5  A    between atoms: C_11  and  C_12 
REMARK    6  A    between atoms: C_12  and  C_13 
REMARK    7  A    between atoms: C_21  and  C_22 
REMARK    8  A    between atoms: C_32  and  C_33 
REMARK    9  A    between atoms: C_33  and  O_34 
ROOT
HETATM    1  C   UNL     1     -43.893  60.964 -50.058  1.00  0.00     0.051 C 
HETATM    2  N   UNL     1     -42.548  60.777 -49.837  1.00  0.00    -0.228 NA
HETATM    3  C   UNL     1     -41.912  59.953 -50.586  1.00  0.00     0.170 C 
HETATM    4  N   UNL     1     -42.451  59.316 -51.905  1.00  0.00    -0.318 N 
HETATM    5  C   UNL     1     -41.467  58.725 -52.509  1.00  0.00     0.011 C 
HETATM    6  C   UNL     1     -43.859  59.671 -52.230  1.00  0.00     0.166 C 
HETATM    7  S   UNL     1     -40.256  59.534 -50.268  1.00  0.00    -0.086 SA
HETATM    8  C   UNL     1     -40.311  58.326 -51.611  1.00  0.00     0.135 C 
HETATM    9  C   UNL     1     -44.542  60.357 -51.072  1.00  0.00     0.069 C 
ENDROOT
BRANCH   5  10
HETATM   10  C   UNL     1     -41.310  58.672 -54.009  1.00  0.00     0.156 C 
BRANCH  10  11
HETATM   11  C   UNL     1     -41.877  57.333 -54.482  1.00  0.00     0.222 C 
HETATM   12  N   UNL     1     -42.003  56.344 -53.544  1.00  0.00    -0.361 N 
HETATM   13  H   UNL     1     -41.771  56.546 -52.574  1.00  0.00     0.162 HD
HETATM   14  O   UNL     1     -42.133  57.145 -55.674  1.00  0.00    -0.273 OA
BRANCH  12  15
HETATM   15  C   UNL     1     -41.986  54.939 -53.932  1.00  0.00     0.124 C 
BRANCH  15  16
HETATM   16  C   UNL     1     -41.812  53.906 -52.810  1.00  0.00     0.053 C 
BRANCH  16  17
HETATM   17  C   UNL     1     -41.051  54.339 -51.560  1.00  0.00     0.189 C 
HETATM   18  N   UNL     1     -41.847  55.107 -50.522  1.00  0.00    -0.071 N 
HETATM   19  H   UNL     1     -41.900  56.083 -50.872  1.00  0.00     0.279 HD
HETATM   20  C   UNL     1     -43.244  54.646 -50.216  1.00  0.00     0.270 C 
HETATM   21  C   UNL     1     -40.982  55.078 -49.269  1.00  0.00     0.235 C 
HETATM   22  C   UNL     1     -40.014  53.918 -49.466  1.00  0.00     0.030 C 
HETATM   23  C   UNL     1     -40.464  53.206 -50.734  1.00  0.00     0.035 C 
ENDBRANCH  16  17
ENDBRANCH  15  16
ENDBRANCH  12  15
ENDBRANCH  10  11
ENDBRANCH   5  10
BRANCH   6  24
HETATM   24  C   UNL     1     -43.961  60.477 -53.527  1.00  0.00    -0.024 A 
HETATM   25  C   UNL     1     -44.601  59.957 -54.682  1.00  0.00    -0.053 A 
HETATM   26  C   UNL     1     -45.237  58.588 -54.730  1.00  0.00     0.049 C 
HETATM   27  C   UNL     1     -44.698  60.753 -55.838  1.00  0.00     0.014 A 
HETATM   28  C   UNL     1     -44.167  62.045 -55.883  1.00  0.00    -0.061 A 
HETATM   29  C   UNL     1     -44.355  62.901 -57.104  1.00  0.00     0.048 C 
HETATM   30  C   UNL     1     -43.545  62.559 -54.746  1.00  0.00     0.007 A 
HETATM   31  C   UNL     1     -43.441  61.789 -53.584  1.00  0.00     0.011 A 
ENDBRANCH   6  24
BRANCH   9  32
HETATM   32  C   UNL     1     -46.012  60.178 -51.038  1.00  0.00     0.293 C 
HETATM   33  O   UNL     1     -46.561  59.173 -50.632  1.00  0.00    -0.259 OA
BRANCH  32  34
HETATM   34  O   UNL     1     -46.591  61.368 -51.324  1.00  0.00    -0.323 OA
HETATM   35  C   UNL     1     -47.372  61.409 -52.522  1.00  0.00     0.213 C 
ENDBRANCH  32  34
ENDBRANCH   9  32
BRANCH   1  36
HETATM   36  C   UNL     1     -44.538  61.881 -49.021  1.00  0.00     0.056 C 
HETATM   37  C   UNL     1     -44.751  61.244 -47.650  1.00  0.00     0.011 C 
ENDBRANCH   1  36
TORSDOF 9
ENDMDL
MODEL 8
REMARK VINA RESULT:      -6.2      3.391      7.638
REMARK  9 active torsions:
REMARK  status: ('A' for Active; 'I' for Inactive)
REMARK    1  A    between atoms: C_2  and  C_3 
REMARK    2  A    between atoms: C_7  and  C_8 
REMARK    3  A    between atoms: C_8  and  C_9 
REMARK       I    between atoms: C_9  and  N_10 
REMARK    4  A    between atoms: N_10  and  C_11 
REMARK    5  A    between atoms: C_11  and  C_12 
REMARK    6  A    between atoms: C_12  and  C_13 
REMARK    7  A    between atoms: C_21  and  C_22 
REMARK    8  A    between atoms: C_32  and  C_33 
REMARK    9  A    between atoms: C_33  and  O_34 
ROOT
HETATM    1  C   UNL     1     -43.823  60.654 -50.287  1.00  0.00     0.051 C 
HETATM    2  N   UNL     1     -42.458  60.574 -50.136  1.00  0.00    -0.228 NA
HETATM    3  C   UNL     1     -41.808  59.743 -50.864  1.00  0.00     0.170 C 
HETATM    4  N   UNL     1     -42.373  58.976 -52.101  1.00  0.00    -0.318 N 
HETATM    5  C   UNL     1     -41.384  58.410 -52.722  1.00  0.00     0.011 C 
HETATM    6  C   UNL     1     -43.819  59.212 -52.363  1.00  0.00     0.166 C 
HETATM    7  S   UNL     1     -40.111  59.460 -50.620  1.00  0.00    -0.086 SA
HETATM    8  C   UNL     1     -40.155  58.156 -51.871  1.00  0.00     0.135 C 
HETATM    9  C   UNL     1     -44.483  59.933 -51.216  1.00  0.00     0.069 C 
ENDROOT
BRANCH   5  10
HETATM   10  C   UNL     1     -41.309  58.259 -54.222  1.00  0.00     0.156 C 
BRANCH  10  11
HETATM   11  C   UNL     1     -41.787  56.848 -54.564  1.00  0.00     0.222 C 
HETATM   12  N   UNL     1     -41.709  56.464 -55.876  1.00  0.00    -0.361 N 
HETATM   13  H   UNL     1     -41.294  57.098 -56.555  1.00  0.00     0.162 HD
HETATM   14  O   UNL     1     -42.288  56.126 -53.697  1.00  0.00    -0.273 OA
BRANCH  12  15
HETATM   15  C   UNL     1     -42.595  55.438 -56.410  1.00  0.00     0.124 C 
BRANCH  15  16
HETATM   16  C   UNL     1     -43.197  55.687 -57.799  1.00  0.00     0.053 C 
BRANCH  16  17
HETATM   17  C   UNL     1     -43.653  57.105 -58.130  1.00  0.00     0.189 C 
HETATM   18  N   UNL     1     -42.690  57.948 -58.943  1.00  0.00    -0.071 N 
HETATM   19  H   UNL     1     -41.980  58.295 -58.270  1.00  0.00     0.279 HD
HETATM   20  C   UNL     1     -41.966  57.294 -60.087  1.00  0.00     0.270 C 
HETATM   21  C   UNL     1     -43.522  59.126 -59.433  1.00  0.00     0.235 C 
HETATM   22  C   UNL     1     -44.974  58.674 -59.326  1.00  0.00     0.030 C 
HETATM   23  C   UNL     1     -44.929  57.200 -58.952  1.00  0.00     0.035 C 
ENDBRANCH  16  17
ENDBRANCH  15  16
ENDBRANCH  12  15
ENDBRANCH  10  11
ENDBRANCH   5  10
BRANCH   6  24
HETATM   24  C   UNL     1     -44.051  59.912 -53.704  1.00  0.00    -0.024 A 
HETATM   25  C   UNL     1     -44.700  59.262 -54.785  1.00  0.00    -0.053 A 
HETATM   26  C   UNL     1     -45.220  57.846 -54.707  1.00  0.00     0.049 C 
HETATM   27  C   UNL     1     -44.918  59.962 -55.985  1.00  0.00     0.014 A 
HETATM   28  C   UNL     1     -44.501  61.286 -56.146  1.00  0.00    -0.061 A 
HETATM   29  C   UNL     1     -44.819  62.035 -57.409  1.00  0.00     0.048 C 
HETATM   30  C   UNL     1     -43.870  61.928 -55.081  1.00  0.00     0.007 A 
HETATM   31  C   UNL     1     -43.646  61.254 -53.877  1.00  0.00     0.011 A 
ENDBRANCH   6  24
BRANCH   9  32
HETATM   32  C   UNL     1     -45.933  59.659 -51.080  1.00  0.00     0.293 C 
HETATM   33  O   UNL     1     -46.426  59.087 -50.128  1.00  0.00    -0.259 OA
BRANCH  32  34
HETATM   34  O   UNL     1     -46.585  60.326 -52.061  1.00  0.00    -0.323 OA
HETATM   35  C   UNL     1     -46.976  61.666 -51.748  1.00  0.00     0.213 C 
ENDBRANCH  32  34
ENDBRANCH   9  32
BRANCH   1  36
HETATM   36  C   UNL     1     -44.473  61.599 -49.279  1.00  0.00     0.056 C 
HETATM   37  C   UNL     1     -44.216  63.082 -49.537  1.00  0.00     0.011 C 
ENDBRANCH   1  36
TORSDOF 9
ENDMDL
MODEL 9
REMARK VINA RESULT:      -6.1      3.483      6.182
REMARK  9 active torsions:
REMARK  status: ('A' for Active; 'I' for Inactive)
REMARK    1  A    between atoms: C_2  and  C_3 
REMARK    2  A    between atoms: C_7  and  C_8 
REMARK    3  A    between atoms: C_8  and  C_9 
REMARK       I    between atoms: C_9  and  N_10 
REMARK    4  A    between atoms: N_10  and  C_11 
REMARK    5  A    between atoms: C_11  and  C_12 
REMARK    6  A    between atoms: C_12  and  C_13 
REMARK    7  A    between atoms: C_21  and  C_22 
REMARK    8  A    between atoms: C_32  and  C_33 
REMARK    9  A    between atoms: C_33  and  O_34 
ROOT
HETATM    1  C   UNL     1     -42.536  55.270 -52.787  1.00  0.00     0.051 C 
HETATM    2  N   UNL     1     -42.355  56.216 -51.806  1.00  0.00    -0.228 NA
HETATM    3  C   UNL     1     -41.929  57.377 -52.144  1.00  0.00     0.170 C 
HETATM    4  N   UNL     1     -41.830  57.923 -53.603  1.00  0.00    -0.318 N 
HETATM    5  C   UNL     1     -41.581  59.196 -53.550  1.00  0.00     0.011 C 
HETATM    6  C   UNL     1     -42.203  56.940 -54.656  1.00  0.00     0.166 C 
HETATM    7  S   UNL     1     -41.515  58.572 -50.952  1.00  0.00    -0.086 SA
HETATM    8  C   UNL     1     -40.929  59.668 -52.265  1.00  0.00     0.135 C 
HETATM    9  C   UNL     1     -42.340  55.546 -54.092  1.00  0.00     0.069 C 
ENDROOT
BRANCH   5  10
HETATM   10  C   UNL     1     -42.130  60.202 -54.532  1.00  0.00     0.156 C 
BRANCH  10  11
HETATM   11  C   UNL     1     -43.203  61.013 -53.805  1.00  0.00     0.222 C 
HETATM   12  N   UNL     1     -44.354  60.357 -53.460  1.00  0.00    -0.361 N 
HETATM   13  H   UNL     1     -44.433  59.360 -53.647  1.00  0.00     0.162 HD
HETATM   14  O   UNL     1     -43.053  62.223 -53.611  1.00  0.00    -0.273 OA
BRANCH  12  15
HETATM   15  C   UNL     1     -45.607  61.083 -53.291  1.00  0.00     0.124 C 
BRANCH  15  16
HETATM   16  C   UNL     1     -46.182  61.165 -51.871  1.00  0.00     0.053 C 
BRANCH  16  17
HETATM   17  C   UNL     1     -45.226  61.534 -50.740  1.00  0.00     0.189 C 
HETATM   18  N   UNL     1     -44.549  62.887 -50.848  1.00  0.00    -0.071 N 
HETATM   19  H   UNL     1     -43.765  62.758 -51.517  1.00  0.00     0.279 HD
HETATM   20  C   UNL     1     -45.370  64.056 -51.314  1.00  0.00     0.270 C 
HETATM   21  C   UNL     1     -43.976  63.147 -49.461  1.00  0.00     0.235 C 
HETATM   22  C   UNL     1     -44.748  62.229 -48.521  1.00  0.00     0.030 C 
HETATM   23  C   UNL     1     -45.855  61.605 -49.358  1.00  0.00     0.035 C 
ENDBRANCH  16  17
ENDBRANCH  15  16
ENDBRANCH  12  15
ENDBRANCH  10  11
ENDBRANCH   5  10
BRANCH   6  24
HETATM   24  C   UNL     1     -43.446  57.378 -55.434  1.00  0.00    -0.024 A 
HETATM   25  C   UNL     1     -43.385  57.717 -56.810  1.00  0.00    -0.053 A 
HETATM   26  C   UNL     1     -42.111  57.667 -57.619  1.00  0.00     0.049 C 
HETATM   27  C   UNL     1     -44.563  58.081 -57.487  1.00  0.00     0.014 A 
HETATM   28  C   UNL     1     -45.798  58.128 -56.833  1.00  0.00    -0.061 A 
HETATM   29  C   UNL     1     -47.051  58.442 -57.600  1.00  0.00     0.048 C 
HETATM   30  C   UNL     1     -45.859  57.787 -55.483  1.00  0.00     0.007 A 
HETATM   31  C   UNL     1     -44.703  57.418 -54.790  1.00  0.00     0.011 A 
ENDBRANCH   6  24
BRANCH   9  32
HETATM   32  C   UNL     1     -42.078  54.465 -55.070  1.00  0.00     0.293 C 
HETATM   33  O   UNL     1     -42.934  53.976 -55.781  1.00  0.00    -0.259 OA
BRANCH  32  34
HETATM   34  O   UNL     1     -40.739  54.294 -55.167  1.00  0.00    -0.323 OA
HETATM   35  C   UNL     1     -40.235  53.043 -54.689  1.00  0.00     0.213 C 
ENDBRANCH  32  34
ENDBRANCH   9  32
BRANCH   1  36
HETATM   36  C   UNL     1     -42.935  53.907 -52.225  1.00  0.00     0.056 C 
HETATM   37  C   UNL     1     -43.801  53.963 -50.969  1.00  0.00     0.011 C 
ENDBRANCH   1  36
TORSDOF 9
ENDMDL
MODEL 10
REMARK VINA RESULT:      -6.1      3.684      6.651
REMARK  9 active torsions:
REMARK  status: ('A' for Active; 'I' for Inactive)
REMARK    1  A    between atoms: C_2  and  C_3 
REMARK    2  A    between atoms: C_7  and  C_8 
REMARK    3  A    between atoms: C_8  and  C_9 
REMARK       I    between atoms: C_9  and  N_10 
REMARK    4  A    between atoms: N_10  and  C_11 
REMARK    5  A    between atoms: C_11  and  C_12 
REMARK    6  A    between atoms: C_12  and  C_13 
REMARK    7  A    between atoms: C_21  and  C_22 
REMARK    8  A    between atoms: C_32  and  C_33 
REMARK    9  A    between atoms: C_33  and  O_34 
ROOT
HETATM    1  C   UNL     1     -43.791  60.766 -50.353  1.00  0.00     0.051 C 
HETATM    2  N   UNL     1     -42.438  60.840 -50.115  1.00  0.00    -0.228 NA
HETATM    3  C   UNL     1     -41.676  59.943 -50.624  1.00  0.00     0.170 C 
HETATM    4  N   UNL     1     -42.091  58.901 -51.709  1.00  0.00    -0.318 N 
HETATM    5  C   UNL     1     -41.020  58.315 -52.149  1.00  0.00     0.011 C 
HETATM    6  C   UNL     1     -43.528  58.951 -52.093  1.00  0.00     0.166 C 
HETATM    7  S   UNL     1     -39.984  59.867 -50.235  1.00  0.00    -0.086 SA
HETATM    8  C   UNL     1     -39.838  58.344 -51.198  1.00  0.00     0.135 C 
HETATM    9  C   UNL     1     -44.326  59.821 -51.152  1.00  0.00     0.069 C 
ENDROOT
BRANCH   5  10
HETATM   10  C   UNL     1     -40.826  57.880 -53.580  1.00  0.00     0.156 C 
BRANCH  10  11
HETATM   11  C   UNL     1     -40.821  56.351 -53.597  1.00  0.00     0.222 C 
HETATM   12  N   UNL     1     -41.331  55.714 -52.498  1.00  0.00    -0.361 N 
HETATM   13  H   UNL     1     -41.736  56.267 -51.746  1.00  0.00     0.162 HD
HETATM   14  O   UNL     1     -40.309  55.735 -54.536  1.00  0.00    -0.273 OA
BRANCH  12  15
HETATM   15  C   UNL     1     -40.898  54.367 -52.147  1.00  0.00     0.124 C 
BRANCH  15  16
HETATM   16  C   UNL     1     -41.475  53.209 -52.973  1.00  0.00     0.053 C 
BRANCH  16  17
HETATM   17  C   UNL     1     -40.488  52.253 -53.637  1.00  0.00     0.189 C 
HETATM   18  N   UNL     1     -39.437  51.638 -52.733  1.00  0.00    -0.071 N 
HETATM   19  H   UNL     1     -38.707  52.365 -52.612  1.00  0.00     0.279 HD
HETATM   20  C   UNL     1     -39.859  51.174 -51.367  1.00  0.00     0.270 C 
HETATM   21  C   UNL     1     -38.856  50.484 -53.540  1.00  0.00     0.235 C 
HETATM   22  C   UNL     1     -39.894  50.171 -54.611  1.00  0.00     0.030 C 
HETATM   23  C   UNL     1     -41.110  51.024 -54.280  1.00  0.00     0.035 C 
ENDBRANCH  16  17
ENDBRANCH  15  16
ENDBRANCH  12  15
ENDBRANCH  10  11
ENDBRANCH   5  10
BRANCH   6  24
HETATM   24  C   UNL     1     -43.716  59.351 -53.558  1.00  0.00    -0.024 A 
HETATM   25  C   UNL     1     -44.263  58.456 -54.513  1.00  0.00    -0.053 A 
HETATM   26  C   UNL     1     -44.711  57.054 -54.172  1.00  0.00     0.049 C 
HETATM   27  C   UNL     1     -44.447  58.885 -55.840  1.00  0.00     0.014 A 
HETATM   28  C   UNL     1     -44.092  60.174 -56.247  1.00  0.00    -0.061 A 
HETATM   29  C   UNL     1     -44.373  60.631 -57.651  1.00  0.00     0.048 C 
HETATM   30  C   UNL     1     -43.561  61.057 -55.307  1.00  0.00     0.007 A 
HETATM   31  C   UNL     1     -43.374  60.654 -53.982  1.00  0.00     0.011 A 
ENDBRANCH   6  24
BRANCH   9  32
HETATM   32  C   UNL     1     -45.756  59.450 -51.044  1.00  0.00     0.293 C 
HETATM   33  O   UNL     1     -46.264  59.010 -50.033  1.00  0.00    -0.259 OA
BRANCH  32  34
HETATM   34  O   UNL     1     -46.392  59.882 -52.158  1.00  0.00    -0.323 OA
HETATM   35  C   UNL     1     -47.014  61.167 -52.062  1.00  0.00     0.213 C 
ENDBRANCH  32  34
ENDBRANCH   9  32
BRANCH   1  36
HETATM   36  C   UNL     1     -44.582  61.828 -49.593  1.00  0.00     0.056 C 
HETATM   37  C   UNL     1     -44.669  61.602 -48.086  1.00  0.00     0.011 C 
ENDBRANCH   1  36
TORSDOF 9
ENDMDL
