MODEL 1
REMARK VINA RESULT:      -8.3      0.000      0.000
REMARK  1 active torsions:
REMARK  status: ('A' for Active; 'I' for Inactive)
REMARK    1  A    between atoms: C_10  and  N_11 
ROOT
HETATM    1  C   UNL     1     -44.748  55.049 -60.787  1.00  0.00     0.015 C 
HETATM    2  C   UNL     1     -44.432  56.178 -59.789  1.00  0.00    -0.036 C 
HETATM    3  C   UNL     1     -45.772  56.767 -59.301  1.00  0.00     0.015 C 
HETATM    4  C   UNL     1     -43.593  57.256 -60.502  1.00  0.00     0.093 C 
HETATM    5  C   UNL     1     -43.019  58.297 -59.563  1.00  0.00     0.163 C 
HETATM    6  O   UNL     1     -42.692  59.414 -59.953  1.00  0.00    -0.292 OA
HETATM    7  C   UNL     1     -42.795  57.916 -58.162  1.00  0.00     0.053 A 
HETATM    8  C   UNL     1     -43.084  56.655 -57.691  1.00  0.00     0.069 A 
HETATM    9  N   UNL     1     -42.879  56.297 -56.401  1.00  0.00    -0.066 NA
HETATM   10  C   UNL     1     -42.415  57.235 -55.551  1.00  0.00     0.728 A 
HETATM   11  N   UNL     1     -42.116  58.483 -55.939  1.00  0.00    -0.074 NA
HETATM   12  C   UNL     1     -42.307  58.804 -57.236  1.00  0.00     0.153 A 
HETATM   13  C   UNL     1     -43.625  55.594 -58.611  1.00  0.00     0.070 C 
ENDROOT
BRANCH  10  14
HETATM   14  N   UNL     1     -42.248  56.803 -54.244  1.00  0.00    -0.164 N 
HETATM   15  C   UNL     1     -41.699  55.652 -53.818  1.00  0.00     0.187 A 
HETATM   16  S   UNL     1     -41.568  55.387 -52.113  1.00  0.00    -0.049 SA
HETATM   17  N   UNL     1     -41.208  54.680 -54.551  1.00  0.00    -0.223 NA
HETATM   18  C   UNL     1     -40.793  53.879 -52.388  1.00  0.00     0.037 A 
HETATM   19  C   UNL     1     -40.685  53.674 -53.762  1.00  0.00     0.076 A 
HETATM   20  C   UNL     1     -40.308  52.944 -51.457  1.00  0.00     0.021 A 
HETATM   21  C   UNL     1     -40.065  52.496 -54.228  1.00  0.00     0.033 A 
HETATM   22  C   UNL     1     -39.572  51.561 -53.311  1.00  0.00     0.002 A 
HETATM   23  C   UNL     1     -39.695  51.784 -51.943  1.00  0.00     0.002 A 
HETATM   24  H   UNL     1     -42.431  57.551 -53.594  1.00  0.00     0.186 HD
ENDBRANCH  10  14
TORSDOF 1
ENDMDL
MODEL 2
REMARK VINA RESULT:      -8.2      3.019      7.951
REMARK  1 active torsions:
REMARK  status: ('A' for Active; 'I' for Inactive)
REMARK    1  A    between atoms: C_10  and  N_11 
ROOT
HETATM    1  C   UNL     1     -41.007  54.997 -48.975  1.00  0.00     0.015 C 
HETATM    2  C   UNL     1     -41.225  54.456 -50.400  1.00  0.00    -0.036 C 
HETATM    3  C   UNL     1     -42.648  53.866 -50.471  1.00  0.00     0.015 C 
HETATM    4  C   UNL     1     -40.172  53.367 -50.688  1.00  0.00     0.093 C 
HETATM    5  C   UNL     1     -40.131  52.931 -52.139  1.00  0.00     0.163 C 
HETATM    6  O   UNL     1     -39.684  51.840 -52.476  1.00  0.00    -0.292 OA
HETATM    7  C   UNL     1     -40.587  53.884 -53.160  1.00  0.00     0.053 A 
HETATM    8  C   UNL     1     -41.036  55.145 -52.836  1.00  0.00     0.069 A 
HETATM    9  N   UNL     1     -41.456  56.028 -53.774  1.00  0.00    -0.066 NA
HETATM   10  C   UNL     1     -41.469  55.627 -55.061  1.00  0.00     0.728 A 
HETATM   11  N   UNL     1     -41.050  54.413 -55.447  1.00  0.00    -0.074 NA
HETATM   12  C   UNL     1     -40.613  53.563 -54.494  1.00  0.00     0.153 A 
HETATM   13  C   UNL     1     -41.056  55.613 -51.407  1.00  0.00     0.070 C 
ENDROOT
BRANCH  10  14
HETATM   14  N   UNL     1     -41.929  56.575 -55.961  1.00  0.00    -0.164 N 
HETATM   15  C   UNL     1     -42.639  56.374 -57.085  1.00  0.00     0.187 A 
HETATM   16  S   UNL     1     -43.131  57.754 -58.003  1.00  0.00    -0.049 SA
HETATM   17  N   UNL     1     -43.045  55.227 -57.578  1.00  0.00    -0.223 NA
HETATM   18  C   UNL     1     -43.949  56.741 -59.123  1.00  0.00     0.037 A 
HETATM   19  C   UNL     1     -43.793  55.414 -58.725  1.00  0.00     0.076 A 
HETATM   20  C   UNL     1     -44.682  57.090 -60.270  1.00  0.00     0.021 A 
HETATM   21  C   UNL     1     -44.395  54.397 -59.495  1.00  0.00     0.033 A 
HETATM   22  C   UNL     1     -45.133  54.733 -60.634  1.00  0.00     0.002 A 
HETATM   23  C   UNL     1     -45.272  56.064 -61.017  1.00  0.00     0.002 A 
HETATM   24  H   UNL     1     -41.824  57.504 -55.585  1.00  0.00     0.186 HD
ENDBRANCH  10  14
TORSDOF 1
ENDMDL
MODEL 3
REMARK VINA RESULT:      -8.2      1.611      2.082
REMARK  1 active torsions:
REMARK  status: ('A' for Active; 'I' for Inactive)
REMARK    1  A    between atoms: C_10  and  N_11 
ROOT
HETATM    1  C   UNL     1     -42.223  57.701 -60.265  1.00  0.00     0.015 C 
HETATM    2  C   UNL     1     -43.152  57.388 -59.078  1.00  0.00    -0.036 C 
HETATM    3  C   UNL     1     -43.663  55.942 -59.245  1.00  0.00     0.015 C 
HETATM    4  C   UNL     1     -44.328  58.384 -59.088  1.00  0.00     0.093 C 
HETATM    5  C   UNL     1     -45.178  58.331 -57.835  1.00  0.00     0.163 C 
HETATM    6  O   UNL     1     -46.342  58.720 -57.823  1.00  0.00    -0.292 OA
HETATM    7  C   UNL     1     -44.551  57.856 -56.594  1.00  0.00     0.053 A 
HETATM    8  C   UNL     1     -43.230  57.471 -56.542  1.00  0.00     0.069 A 
HETATM    9  N   UNL     1     -42.646  57.033 -55.401  1.00  0.00    -0.066 NA
HETATM   10  C   UNL     1     -43.412  56.938 -54.295  1.00  0.00     0.728 A 
HETATM   11  N   UNL     1     -44.705  57.292 -54.274  1.00  0.00    -0.074 NA
HETATM   12  C   UNL     1     -45.253  57.748 -55.420  1.00  0.00     0.153 A 
HETATM   13  C   UNL     1     -42.357  57.545 -57.765  1.00  0.00     0.070 C 
ENDROOT
BRANCH  10  14
HETATM   14  N   UNL     1     -42.752  56.465 -53.171  1.00  0.00    -0.164 N 
HETATM   15  C   UNL     1     -42.058  55.321 -53.039  1.00  0.00     0.187 A 
HETATM   16  S   UNL     1     -41.284  55.000 -51.526  1.00  0.00    -0.049 SA
HETATM   17  N   UNL     1     -41.861  54.397 -53.950  1.00  0.00    -0.223 NA
HETATM   18  C   UNL     1     -40.638  53.534 -52.146  1.00  0.00     0.037 A 
HETATM   19  C   UNL     1     -41.055  53.384 -53.467  1.00  0.00     0.076 A 
HETATM   20  C   UNL     1     -39.816  52.585 -51.514  1.00  0.00     0.021 A 
HETATM   21  C   UNL     1     -40.632  52.248 -54.189  1.00  0.00     0.033 A 
HETATM   22  C   UNL     1     -39.809  51.300 -53.573  1.00  0.00     0.002 A 
HETATM   23  C   UNL     1     -39.408  51.468 -52.250  1.00  0.00     0.002 A 
HETATM   24  H   UNL     1     -42.691  57.182 -52.465  1.00  0.00     0.186 HD
ENDBRANCH  10  14
TORSDOF 1
ENDMDL
MODEL 4
REMARK VINA RESULT:      -8.1      4.287      5.305
REMARK  1 active torsions:
REMARK  status: ('A' for Active; 'I' for Inactive)
REMARK    1  A    between atoms: C_10  and  N_11 
ROOT
HETATM    1  C   UNL     1     -46.277  60.226 -51.363  1.00  0.00     0.015 C 
HETATM    2  C   UNL     1     -44.837  59.877 -51.781  1.00  0.00    -0.036 C 
HETATM    3  C   UNL     1     -43.876  60.737 -50.934  1.00  0.00     0.015 C 
HETATM    4  C   UNL     1     -44.663  60.188 -53.281  1.00  0.00     0.093 C 
HETATM    5  C   UNL     1     -43.366  59.663 -53.862  1.00  0.00     0.163 C 
HETATM    6  O   UNL     1     -42.869  60.142 -54.877  1.00  0.00    -0.292 OA
HETATM    7  C   UNL     1     -42.736  58.505 -53.214  1.00  0.00     0.053 A 
HETATM    8  C   UNL     1     -43.291  57.891 -52.113  1.00  0.00     0.069 A 
HETATM    9  N   UNL     1     -42.716  56.823 -51.511  1.00  0.00    -0.066 NA
HETATM   10  C   UNL     1     -41.536  56.383 -51.995  1.00  0.00     0.728 A 
HETATM   11  N   UNL     1     -40.938  56.935 -53.061  1.00  0.00    -0.074 NA
HETATM   12  C   UNL     1     -41.547  57.982 -53.655  1.00  0.00     0.153 A 
HETATM   13  C   UNL     1     -44.594  58.373 -51.536  1.00  0.00     0.070 C 
ENDROOT
BRANCH  10  14
HETATM   14  N   UNL     1     -40.998  55.300 -51.318  1.00  0.00    -0.164 N 
HETATM   15  C   UNL     1     -40.723  54.076 -51.802  1.00  0.00     0.187 A 
HETATM   16  S   UNL     1     -39.999  52.917 -50.741  1.00  0.00    -0.049 SA
HETATM   17  N   UNL     1     -40.912  53.639 -53.026  1.00  0.00    -0.223 NA
HETATM   18  C   UNL     1     -39.930  51.766 -52.015  1.00  0.00     0.037 A 
HETATM   19  C   UNL     1     -40.464  52.340 -53.167  1.00  0.00     0.076 A 
HETATM   20  C   UNL     1     -39.434  50.451 -52.001  1.00  0.00     0.021 A 
HETATM   21  C   UNL     1     -40.499  51.577 -54.353  1.00  0.00     0.033 A 
HETATM   22  C   UNL     1     -40.003  50.270 -54.354  1.00  0.00     0.002 A 
HETATM   23  C   UNL     1     -39.478  49.715 -53.190  1.00  0.00     0.002 A 
HETATM   24  H   UNL     1     -40.651  55.579 -50.415  1.00  0.00     0.186 HD
ENDBRANCH  10  14
TORSDOF 1
ENDMDL
MODEL 5
REMARK VINA RESULT:      -8.1      2.039      2.990
REMARK  1 active torsions:
REMARK  status: ('A' for Active; 'I' for Inactive)
REMARK    1  A    between atoms: C_10  and  N_11 
ROOT
HETATM    1  C   UNL     1     -44.496  57.110 -58.079  1.00  0.00     0.015 C 
HETATM    2  C   UNL     1     -43.900  57.625 -56.756  1.00  0.00    -0.036 C 
HETATM    3  C   UNL     1     -45.070  58.044 -55.841  1.00  0.00     0.015 C 
HETATM    4  C   UNL     1     -42.986  58.830 -57.055  1.00  0.00     0.093 C 
HETATM    5  C   UNL     1     -42.157  59.271 -55.866  1.00  0.00     0.163 C 
HETATM    6  O   UNL     1     -41.705  60.408 -55.776  1.00  0.00    -0.292 OA
HETATM    7  C   UNL     1     -41.843  58.273 -54.833  1.00  0.00     0.053 A 
HETATM    8  C   UNL     1     -42.272  56.968 -54.923  1.00  0.00     0.069 A 
HETATM    9  N   UNL     1     -41.985  56.044 -53.975  1.00  0.00    -0.066 NA
HETATM   10  C   UNL     1     -41.289  56.444 -52.891  1.00  0.00     0.728 A 
HETATM   11  N   UNL     1     -40.843  57.699 -52.737  1.00  0.00    -0.074 NA
HETATM   12  C   UNL     1     -41.123  58.592 -53.710  1.00  0.00     0.153 A 
HETATM   13  C   UNL     1     -43.069  56.497 -56.109  1.00  0.00     0.070 C 
ENDROOT
BRANCH  10  14
HETATM   14  N   UNL     1     -41.049  55.450 -51.955  1.00  0.00    -0.164 N 
HETATM   15  C   UNL     1     -40.741  54.160 -52.179  1.00  0.00     0.187 A 
HETATM   16  S   UNL     1     -40.438  53.140 -50.816  1.00  0.00    -0.049 SA
HETATM   17  N   UNL     1     -40.607  53.560 -53.339  1.00  0.00    -0.223 NA
HETATM   18  C   UNL     1     -40.097  51.817 -51.857  1.00  0.00     0.037 A 
HETATM   19  C   UNL     1     -40.237  52.239 -53.178  1.00  0.00     0.076 A 
HETATM   20  C   UNL     1     -39.727  50.501 -51.533  1.00  0.00     0.021 A 
HETATM   21  C   UNL     1     -39.992  51.316 -54.216  1.00  0.00     0.033 A 
HETATM   22  C   UNL     1     -39.616  50.005 -53.907  1.00  0.00     0.002 A 
HETATM   23  C   UNL     1     -39.488  49.604 -52.580  1.00  0.00     0.002 A 
HETATM   24  H   UNL     1     -40.952  55.843 -51.033  1.00  0.00     0.186 HD
ENDBRANCH  10  14
TORSDOF 1
ENDMDL
MODEL 6
REMARK VINA RESULT:      -7.9     15.021     16.811
REMARK  1 active torsions:
REMARK  status: ('A' for Active; 'I' for Inactive)
REMARK    1  A    between atoms: C_10  and  N_11 
ROOT
HETATM    1  C   UNL     1     -37.205  37.694 -60.584  1.00  0.00     0.015 C 
HETATM    2  C   UNL     1     -37.575  38.899 -59.700  1.00  0.00    -0.036 C 
HETATM    3  C   UNL     1     -39.108  38.913 -59.534  1.00  0.00     0.015 C 
HETATM    4  C   UNL     1     -37.092  40.191 -60.390  1.00  0.00     0.093 C 
HETATM    5  C   UNL     1     -37.183  41.419 -59.508  1.00  0.00     0.163 C 
HETATM    6  O   UNL     1     -37.243  42.552 -59.976  1.00  0.00    -0.292 OA
HETATM    7  C   UNL     1     -37.130  41.230 -58.051  1.00  0.00     0.053 A 
HETATM    8  C   UNL     1     -36.996  39.985 -57.480  1.00  0.00     0.069 A 
HETATM    9  N   UNL     1     -36.946  39.804 -56.138  1.00  0.00    -0.066 NA
HETATM   10  C   UNL     1     -37.076  40.889 -55.348  1.00  0.00     0.728 A 
HETATM   11  N   UNL     1     -37.213  42.130 -55.837  1.00  0.00    -0.074 NA
HETATM   12  C   UNL     1     -37.235  42.283 -57.177  1.00  0.00     0.153 A 
HETATM   13  C   UNL     1     -36.872  38.753 -58.334  1.00  0.00     0.070 C 
ENDROOT
BRANCH  10  14
HETATM   14  N   UNL     1     -37.034  40.626 -53.988  1.00  0.00    -0.164 N 
HETATM   15  C   UNL     1     -35.949  40.473 -53.208  1.00  0.00     0.187 A 
HETATM   16  S   UNL     1     -36.187  40.201 -51.516  1.00  0.00    -0.049 SA
HETATM   17  N   UNL     1     -34.689  40.533 -53.571  1.00  0.00    -0.223 NA
HETATM   18  C   UNL     1     -34.488  40.175 -51.263  1.00  0.00     0.037 A 
HETATM   19  C   UNL     1     -33.849  40.375 -52.486  1.00  0.00     0.076 A 
HETATM   20  C   UNL     1     -33.768  39.997 -50.069  1.00  0.00     0.021 A 
HETATM   21  C   UNL     1     -32.439  40.405 -52.520  1.00  0.00     0.033 A 
HETATM   22  C   UNL     1     -31.712  40.236 -51.337  1.00  0.00     0.002 A 
HETATM   23  C   UNL     1     -32.371  40.032 -50.128  1.00  0.00     0.002 A 
HETATM   24  H   UNL     1     -37.947  40.735 -53.575  1.00  0.00     0.186 HD
ENDBRANCH  10  14
TORSDOF 1
ENDMDL
MODEL 7
REMARK VINA RESULT:      -7.8      3.141      8.006
REMARK  1 active torsions:
REMARK  status: ('A' for Active; 'I' for Inactive)
REMARK    1  A    between atoms: C_10  and  N_11 
ROOT
HETATM    1  C   UNL     1     -40.479  55.225 -49.474  1.00  0.00     0.015 C 
HETATM    2  C   UNL     1     -41.151  54.601 -50.711  1.00  0.00    -0.036 C 
HETATM    3  C   UNL     1     -42.448  53.906 -50.247  1.00  0.00     0.015 C 
HETATM    4  C   UNL     1     -40.184  53.579 -51.343  1.00  0.00     0.093 C 
HETATM    5  C   UNL     1     -40.634  53.077 -52.700  1.00  0.00     0.163 C 
HETATM    6  O   UNL     1     -40.247  52.006 -53.156  1.00  0.00    -0.292 OA
HETATM    7  C   UNL     1     -41.509  53.943 -53.502  1.00  0.00     0.053 A 
HETATM    8  C   UNL     1     -41.916  55.182 -53.061  1.00  0.00     0.069 A 
HETATM    9  N   UNL     1     -42.721  55.986 -53.797  1.00  0.00    -0.066 NA
HETATM   10  C   UNL     1     -43.164  55.522 -54.983  1.00  0.00     0.728 A 
HETATM   11  N   UNL     1     -42.810  54.325 -55.473  1.00  0.00    -0.074 NA
HETATM   12  C   UNL     1     -41.987  53.557 -54.729  1.00  0.00     0.153 A 
HETATM   13  C   UNL     1     -41.457  55.717 -51.732  1.00  0.00     0.070 C 
ENDROOT
BRANCH  10  14
HETATM   14  N   UNL     1     -43.998  56.390 -55.671  1.00  0.00    -0.164 N 
HETATM   15  C   UNL     1     -43.734  57.067 -56.803  1.00  0.00     0.187 A 
HETATM   16  S   UNL     1     -44.986  58.050 -57.482  1.00  0.00    -0.049 SA
HETATM   17  N   UNL     1     -42.622  57.057 -57.500  1.00  0.00    -0.223 NA
HETATM   18  C   UNL     1     -43.965  58.474 -58.796  1.00  0.00     0.037 A 
HETATM   19  C   UNL     1     -42.735  57.839 -58.633  1.00  0.00     0.076 A 
HETATM   20  C   UNL     1     -44.232  59.304 -59.899  1.00  0.00     0.021 A 
HETATM   21  C   UNL     1     -41.735  58.034 -59.607  1.00  0.00     0.033 A 
HETATM   22  C   UNL     1     -41.990  58.852 -60.713  1.00  0.00     0.002 A 
HETATM   23  C   UNL     1     -43.224  59.480 -60.853  1.00  0.00     0.002 A 
HETATM   24  H   UNL     1     -44.940  56.334 -55.319  1.00  0.00     0.186 HD
ENDBRANCH  10  14
TORSDOF 1
ENDMDL
MODEL 8
REMARK VINA RESULT:      -7.8      4.692      6.646
REMARK  1 active torsions:
REMARK  status: ('A' for Active; 'I' for Inactive)
REMARK    1  A    between atoms: C_10  and  N_11 
ROOT
HETATM    1  C   UNL     1     -42.539  62.806 -50.295  1.00  0.00     0.015 C 
HETATM    2  C   UNL     1     -43.389  61.660 -50.874  1.00  0.00    -0.036 C 
HETATM    3  C   UNL     1     -44.163  62.210 -52.090  1.00  0.00     0.015 C 
HETATM    4  C   UNL     1     -44.365  61.165 -49.788  1.00  0.00     0.093 C 
HETATM    5  C   UNL     1     -45.085  59.884 -50.159  1.00  0.00     0.163 C 
HETATM    6  O   UNL     1     -46.154  59.569 -49.646  1.00  0.00    -0.292 OA
HETATM    7  C   UNL     1     -44.434  58.976 -51.114  1.00  0.00     0.053 A 
HETATM    8  C   UNL     1     -43.204  59.255 -51.665  1.00  0.00     0.069 A 
HETATM    9  N   UNL     1     -42.598  58.422 -52.545  1.00  0.00    -0.066 NA
HETATM   10  C   UNL     1     -43.256  57.305 -52.916  1.00  0.00     0.728 A 
HETATM   11  N   UNL     1     -44.458  56.974 -52.421  1.00  0.00    -0.074 NA
HETATM   12  C   UNL     1     -45.026  57.810 -51.527  1.00  0.00     0.153 A 
HETATM   13  C   UNL     1     -42.454  60.505 -51.290  1.00  0.00     0.070 C 
ENDROOT
BRANCH  10  14
HETATM   14  N   UNL     1     -42.585  56.511 -53.832  1.00  0.00    -0.164 N 
HETATM   15  C   UNL     1     -41.859  55.405 -53.593  1.00  0.00     0.187 A 
HETATM   16  S   UNL     1     -41.165  54.571 -54.940  1.00  0.00    -0.049 SA
HETATM   17  N   UNL     1     -41.624  54.839 -52.432  1.00  0.00    -0.223 NA
HETATM   18  C   UNL     1     -40.521  53.373 -53.891  1.00  0.00     0.037 A 
HETATM   19  C   UNL     1     -40.876  53.687 -52.581  1.00  0.00     0.076 A 
HETATM   20  C   UNL     1     -39.761  52.232 -54.202  1.00  0.00     0.021 A 
HETATM   21  C   UNL     1     -40.464  52.828 -51.540  1.00  0.00     0.033 A 
HETATM   22  C   UNL     1     -39.712  51.687 -51.837  1.00  0.00     0.002 A 
HETATM   23  C   UNL     1     -39.365  51.395 -53.154  1.00  0.00     0.002 A 
HETATM   24  H   UNL     1     -42.845  56.755 -54.774  1.00  0.00     0.186 HD
ENDBRANCH  10  14
TORSDOF 1
ENDMDL
MODEL 9
REMARK VINA RESULT:      -7.2      2.990      7.985
REMARK  1 active torsions:
REMARK  status: ('A' for Active; 'I' for Inactive)
REMARK    1  A    between atoms: C_10  and  N_11 
ROOT
HETATM    1  C   UNL     1     -41.217  54.942 -49.389  1.00  0.00     0.015 C 
HETATM    2  C   UNL     1     -41.563  54.706 -50.870  1.00  0.00    -0.036 C 
HETATM    3  C   UNL     1     -43.035  54.250 -50.947  1.00  0.00     0.015 C 
HETATM    4  C   UNL     1     -40.628  53.618 -51.435  1.00  0.00     0.093 C 
HETATM    5  C   UNL     1     -40.709  53.470 -52.940  1.00  0.00     0.163 C 
HETATM    6  O   UNL     1     -40.379  52.434 -53.509  1.00  0.00    -0.292 OA
HETATM    7  C   UNL     1     -41.137  54.634 -53.728  1.00  0.00     0.053 A 
HETATM    8  C   UNL     1     -41.455  55.838 -53.140  1.00  0.00     0.069 A 
HETATM    9  N   UNL     1     -41.849  56.916 -53.860  1.00  0.00    -0.066 NA
HETATM   10  C   UNL     1     -41.970  56.774 -55.196  1.00  0.00     0.728 A 
HETATM   11  N   UNL     1     -41.681  55.630 -55.833  1.00  0.00    -0.074 NA
HETATM   12  C   UNL     1     -41.267  54.581 -55.093  1.00  0.00     0.153 A 
HETATM   13  C   UNL     1     -41.351  56.021 -51.650  1.00  0.00     0.070 C 
ENDROOT
BRANCH  10  14
HETATM   14  N   UNL     1     -42.396  57.911 -55.864  1.00  0.00    -0.164 N 
HETATM   15  C   UNL     1     -43.255  57.991 -56.896  1.00  0.00     0.187 A 
HETATM   16  S   UNL     1     -43.654  59.558 -57.511  1.00  0.00    -0.049 SA
HETATM   17  N   UNL     1     -43.873  57.003 -57.500  1.00  0.00    -0.223 NA
HETATM   18  C   UNL     1     -44.732  58.856 -58.650  1.00  0.00     0.037 A 
HETATM   19  C   UNL     1     -44.717  57.472 -58.488  1.00  0.00     0.076 A 
HETATM   20  C   UNL     1     -45.539  59.482 -59.615  1.00  0.00     0.021 A 
HETATM   21  C   UNL     1     -45.542  56.682 -59.314  1.00  0.00     0.033 A 
HETATM   22  C   UNL     1     -46.355  57.293 -60.274  1.00  0.00     0.002 A 
HETATM   23  C   UNL     1     -46.350  58.678 -60.422  1.00  0.00     0.002 A 
HETATM   24  H   UNL     1     -42.118  58.742 -55.367  1.00  0.00     0.186 HD
ENDBRANCH  10  14
TORSDOF 1
ENDMDL
MODEL 10
REMARK VINA RESULT:      -7.2      3.475      8.026
REMARK  1 active torsions:
REMARK  status: ('A' for Active; 'I' for Inactive)
REMARK    1  A    between atoms: C_10  and  N_11 
ROOT
HETATM    1  C   UNL     1     -40.492  59.128 -50.589  1.00  0.00     0.015 C 
HETATM    2  C   UNL     1     -41.281  57.965 -51.218  1.00  0.00    -0.036 C 
HETATM    3  C   UNL     1     -42.778  58.336 -51.186  1.00  0.00     0.015 C 
HETATM    4  C   UNL     1     -41.022  56.685 -50.399  1.00  0.00     0.093 C 
HETATM    5  C   UNL     1     -41.551  55.427 -51.057  1.00  0.00     0.163 C 
HETATM    6  O   UNL     1     -41.808  54.415 -50.412  1.00  0.00    -0.292 OA
HETATM    7  C   UNL     1     -41.690  55.418 -52.520  1.00  0.00     0.053 A 
HETATM    8  C   UNL     1     -41.352  56.505 -53.294  1.00  0.00     0.069 A 
HETATM    9  N   UNL     1     -41.477  56.503 -54.642  1.00  0.00    -0.066 NA
HETATM   10  C   UNL     1     -41.993  55.403 -55.228  1.00  0.00     0.728 A 
HETATM   11  N   UNL     1     -42.347  54.311 -54.536  1.00  0.00    -0.074 NA
HETATM   12  C   UNL     1     -42.188  54.333 -53.196  1.00  0.00     0.153 A 
HETATM   13  C   UNL     1     -40.795  57.755 -52.667  1.00  0.00     0.070 C 
ENDROOT
BRANCH  10  14
HETATM   14  N   UNL     1     -42.109  55.480 -56.607  1.00  0.00    -0.164 N 
HETATM   15  C   UNL     1     -42.985  56.207 -57.324  1.00  0.00     0.187 A 
HETATM   16  S   UNL     1     -42.874  56.157 -59.050  1.00  0.00    -0.049 SA
HETATM   17  N   UNL     1     -43.928  56.999 -56.869  1.00  0.00    -0.223 NA
HETATM   18  C   UNL     1     -44.167  57.279 -59.184  1.00  0.00     0.037 A 
HETATM   19  C   UNL     1     -44.601  57.618 -57.904  1.00  0.00     0.076 A 
HETATM   20  C   UNL     1     -44.755  57.826 -60.338  1.00  0.00     0.021 A 
HETATM   21  C   UNL     1     -45.657  58.544 -57.767  1.00  0.00     0.033 A 
HETATM   22  C   UNL     1     -46.246  59.100 -58.907  1.00  0.00     0.002 A 
HETATM   23  C   UNL     1     -45.800  58.743 -60.177  1.00  0.00     0.002 A 
HETATM   24  H   UNL     1     -41.319  55.048 -57.057  1.00  0.00     0.186 HD
ENDBRANCH  10  14
TORSDOF 1
ENDMDL
