MODEL 1
REMARK VINA RESULT:      -8.0      0.000      0.000
REMARK  3 active torsions:
REMARK  status: ('A' for Active; 'I' for Inactive)
REMARK    1  A    between atoms: C_2  and  N_3 
REMARK       I    between atoms: N_3  and  C_4 
REMARK    2  A    between atoms: C_4  and  C_5 
REMARK    3  A    between atoms: C_5  and  C_6 
ROOT
HETATM    1  C   UNL     1     -42.278  55.231 -50.353  1.00  0.00     0.286 C 
HETATM    2  N   UNL     1     -41.509  56.039 -51.409  1.00  0.00    -0.056 N 
HETATM    3  H   UNL     1     -40.504  56.060 -51.164  1.00  0.00     0.278 HD
HETATM    4  H   UNL     1     -41.546  55.540 -52.310  1.00  0.00     0.278 HD
HETATM    5  C   UNL     1     -42.083  57.418 -51.541  1.00  0.00     0.209 C 
HETATM    6  C   UNL     1     -43.535  57.270 -52.045  1.00  0.00     0.115 C 
HETATM    7  N   UNL     1     -44.322  56.400 -51.172  1.00  0.00    -0.353 N 
HETATM    8  C   UNL     1     -43.805  55.260 -50.591  1.00  0.00     0.249 C 
HETATM    9  O   UNL     1     -44.553  54.369 -50.205  1.00  0.00    -0.271 OA
HETATM   10  C   UNL     1     -41.239  58.258 -52.486  1.00  0.00     0.035 C 
HETATM   11  C   UNL     1     -41.873  59.639 -52.653  1.00  0.00     0.002 C 
HETATM   12  C   UNL     1     -43.326  59.545 -53.121  1.00  0.00     0.002 C 
HETATM   13  C   UNL     1     -44.178  58.646 -52.221  1.00  0.00     0.027 C 
HETATM   14  H   UNL     1     -45.327  56.338 -51.333  1.00  0.00     0.163 HD
ENDROOT
BRANCH   1  15
HETATM   15  C   UNL     1     -41.743  53.806 -50.311  1.00  0.00     0.146 C 
BRANCH  15  16
HETATM   16  C   UNL     1     -40.246  53.888 -50.299  1.00  0.00     0.224 C 
HETATM   17  N   UNL     1     -39.421  53.078 -51.005  1.00  0.00    -0.327 N 
HETATM   18  H   UNL     1     -38.454  53.213 -50.715  1.00  0.00     0.169 HD
HETATM   19  O   UNL     1     -39.736  54.589 -49.412  1.00  0.00    -0.273 OA
BRANCH  17  20
HETATM   20  C   UNL     1     -39.608  52.063 -51.958  1.00  0.00     0.034 A 
HETATM   21  C   UNL     1     -39.460  50.694 -51.735  1.00  0.00     0.032 A 
HETATM   22  C   UNL     1     -39.653  49.781 -52.779  1.00  0.00     0.044 A 
HETATM   23  C   UNL     1     -40.006  50.234 -54.042  1.00  0.00     0.116 A 
HETATM   24  C   UNL     1     -40.188  51.586 -54.280  1.00  0.00     0.044 A 
HETATM   25  F   UNL     1     -40.183  49.356 -55.037  1.00  0.00    -0.206 F 
HETATM   26  C   UNL     1     -40.003  52.495 -53.237  1.00  0.00     0.032 A 
ENDBRANCH  17  20
ENDBRANCH  15  16
ENDBRANCH   1  15
TORSDOF 3
ENDMDL
MODEL 2
REMARK VINA RESULT:      -7.8      2.175      2.567
REMARK  3 active torsions:
REMARK  status: ('A' for Active; 'I' for Inactive)
REMARK    1  A    between atoms: C_2  and  N_3 
REMARK       I    between atoms: N_3  and  C_4 
REMARK    2  A    between atoms: C_4  and  C_5 
REMARK    3  A    between atoms: C_5  and  C_6 
ROOT
HETATM    1  C   UNL     1     -42.989  55.344 -51.999  1.00  0.00     0.286 C 
HETATM    2  N   UNL     1     -43.005  54.907 -53.471  1.00  0.00    -0.056 N 
HETATM    3  H   UNL     1     -42.178  54.315 -53.666  1.00  0.00     0.278 HD
HETATM    4  H   UNL     1     -43.811  54.286 -53.631  1.00  0.00     0.278 HD
HETATM    5  C   UNL     1     -43.065  56.101 -54.376  1.00  0.00     0.209 C 
HETATM    6  C   UNL     1     -44.399  56.827 -54.099  1.00  0.00     0.115 C 
HETATM    7  N   UNL     1     -44.542  57.169 -52.685  1.00  0.00    -0.353 N 
HETATM    8  C   UNL     1     -44.131  56.331 -51.668  1.00  0.00     0.249 C 
HETATM    9  O   UNL     1     -44.601  56.449 -50.542  1.00  0.00    -0.271 OA
HETATM   10  C   UNL     1     -42.944  55.674 -55.830  1.00  0.00     0.035 C 
HETATM   11  C   UNL     1     -43.067  56.897 -56.738  1.00  0.00     0.002 C 
HETATM   12  C   UNL     1     -44.361  57.671 -56.479  1.00  0.00     0.002 C 
HETATM   13  C   UNL     1     -44.535  58.050 -55.006  1.00  0.00     0.027 C 
HETATM   14  H   UNL     1     -45.321  57.768 -52.410  1.00  0.00     0.163 HD
ENDROOT
BRANCH   1  15
HETATM   15  C   UNL     1     -43.031  54.115 -51.101  1.00  0.00     0.146 C 
BRANCH  15  16
HETATM   16  C   UNL     1     -41.755  54.089 -50.313  1.00  0.00     0.224 C 
HETATM   17  N   UNL     1     -40.669  53.344 -50.625  1.00  0.00    -0.327 N 
HETATM   18  H   UNL     1     -39.991  53.364 -49.865  1.00  0.00     0.169 HD
HETATM   19  O   UNL     1     -41.789  54.606 -49.186  1.00  0.00    -0.273 OA
BRANCH  17  20
HETATM   20  C   UNL     1     -40.318  52.505 -51.697  1.00  0.00     0.034 A 
HETATM   21  C   UNL     1     -40.338  52.852 -53.048  1.00  0.00     0.032 A 
HETATM   22  C   UNL     1     -39.986  51.913 -54.026  1.00  0.00     0.044 A 
HETATM   23  C   UNL     1     -39.603  50.633 -53.655  1.00  0.00     0.116 A 
HETATM   24  C   UNL     1     -39.546  50.274 -52.317  1.00  0.00     0.044 A 
HETATM   25  F   UNL     1     -39.274  49.739 -54.595  1.00  0.00    -0.206 F 
HETATM   26  C   UNL     1     -39.890  51.213 -51.342  1.00  0.00     0.032 A 
ENDBRANCH  17  20
ENDBRANCH  15  16
ENDBRANCH   1  15
TORSDOF 3
ENDMDL
MODEL 3
REMARK VINA RESULT:      -7.7      2.275      3.032
REMARK  3 active torsions:
REMARK  status: ('A' for Active; 'I' for Inactive)
REMARK    1  A    between atoms: C_2  and  N_3 
REMARK       I    between atoms: N_3  and  C_4 
REMARK    2  A    between atoms: C_4  and  C_5 
REMARK    3  A    between atoms: C_5  and  C_6 
ROOT
HETATM    1  C   UNL     1     -43.205  55.772 -52.658  1.00  0.00     0.286 C 
HETATM    2  N   UNL     1     -44.176  56.640 -53.471  1.00  0.00    -0.056 N 
HETATM    3  H   UNL     1     -43.824  56.738 -54.440  1.00  0.00     0.278 HD
HETATM    4  H   UNL     1     -45.073  56.141 -53.572  1.00  0.00     0.278 HD
HETATM    5  C   UNL     1     -44.378  57.970 -52.810  1.00  0.00     0.209 C 
HETATM    6  C   UNL     1     -45.035  57.711 -51.437  1.00  0.00     0.115 C 
HETATM    7  N   UNL     1     -44.248  56.780 -50.630  1.00  0.00    -0.353 N 
HETATM    8  C   UNL     1     -43.607  55.683 -51.168  1.00  0.00     0.249 C 
HETATM    9  O   UNL     1     -43.300  54.735 -50.453  1.00  0.00    -0.271 OA
HETATM   10  C   UNL     1     -45.231  58.876 -53.685  1.00  0.00     0.035 C 
HETATM   11  C   UNL     1     -45.474  60.203 -52.967  1.00  0.00     0.002 C 
HETATM   12  C   UNL     1     -46.096  59.998 -51.585  1.00  0.00     0.002 C 
HETATM   13  C   UNL     1     -45.288  59.033 -50.713  1.00  0.00     0.027 C 
HETATM   14  H   UNL     1     -44.516  56.641 -49.656  1.00  0.00     0.163 HD
ENDROOT
BRANCH   1  15
HETATM   15  C   UNL     1     -43.097  54.393 -53.294  1.00  0.00     0.146 C 
BRANCH  15  16
HETATM   16  C   UNL     1     -42.056  54.474 -54.370  1.00  0.00     0.224 C 
HETATM   17  N   UNL     1     -40.946  53.701 -54.432  1.00  0.00    -0.327 N 
HETATM   18  H   UNL     1     -40.312  54.044 -55.152  1.00  0.00     0.169 HD
HETATM   19  O   UNL     1     -42.104  55.465 -55.114  1.00  0.00    -0.273 OA
BRANCH  17  20
HETATM   20  C   UNL     1     -40.452  52.616 -53.688  1.00  0.00     0.034 A 
HETATM   21  C   UNL     1     -40.190  51.338 -54.181  1.00  0.00     0.032 A 
HETATM   22  C   UNL     1     -39.720  50.332 -53.328  1.00  0.00     0.044 A 
HETATM   23  C   UNL     1     -39.501  50.605 -51.985  1.00  0.00     0.116 A 
HETATM   24  C   UNL     1     -39.725  51.875 -51.479  1.00  0.00     0.044 A 
HETATM   25  F   UNL     1     -39.057  49.637 -51.175  1.00  0.00    -0.206 F 
HETATM   26  C   UNL     1     -40.187  52.880 -52.332  1.00  0.00     0.032 A 
ENDBRANCH  17  20
ENDBRANCH  15  16
ENDBRANCH   1  15
TORSDOF 3
ENDMDL
MODEL 4
REMARK VINA RESULT:      -7.6      2.834      6.387
REMARK  3 active torsions:
REMARK  status: ('A' for Active; 'I' for Inactive)
REMARK    1  A    between atoms: C_2  and  N_3 
REMARK       I    between atoms: N_3  and  C_4 
REMARK    2  A    between atoms: C_4  and  C_5 
REMARK    3  A    between atoms: C_5  and  C_6 
ROOT
HETATM    1  C   UNL     1     -41.310  54.005 -51.730  1.00  0.00     0.286 C 
HETATM    2  N   UNL     1     -40.639  53.505 -53.017  1.00  0.00    -0.056 N 
HETATM    3  H   UNL     1     -41.132  53.895 -53.839  1.00  0.00     0.278 HD
HETATM    4  H   UNL     1     -39.687  53.898 -53.077  1.00  0.00     0.278 HD
HETATM    5  C   UNL     1     -40.598  52.007 -53.046  1.00  0.00     0.209 C 
HETATM    6  C   UNL     1     -39.722  51.543 -51.863  1.00  0.00     0.115 C 
HETATM    7  N   UNL     1     -40.205  52.082 -50.592  1.00  0.00    -0.353 N 
HETATM    8  C   UNL     1     -40.699  53.364 -50.464  1.00  0.00     0.249 C 
HETATM    9  O   UNL     1     -40.724  53.909 -49.366  1.00  0.00    -0.271 OA
HETATM   10  C   UNL     1     -40.057  51.514 -54.379  1.00  0.00     0.035 C 
HETATM   11  C   UNL     1     -39.968  49.988 -54.366  1.00  0.00     0.002 C 
HETATM   12  C   UNL     1     -39.134  49.476 -53.190  1.00  0.00     0.002 C 
HETATM   13  C   UNL     1     -39.622  50.018 -51.843  1.00  0.00     0.027 C 
HETATM   14  H   UNL     1     -39.785  51.733 -49.730  1.00  0.00     0.163 HD
ENDROOT
BRANCH   1  15
HETATM   15  C   UNL     1     -41.247  55.525 -51.677  1.00  0.00     0.146 C 
BRANCH  15  16
HETATM   16  C   UNL     1     -42.658  56.034 -51.682  1.00  0.00     0.224 C 
HETATM   17  N   UNL     1     -43.373  56.320 -52.796  1.00  0.00    -0.327 N 
HETATM   18  H   UNL     1     -44.238  56.800 -52.552  1.00  0.00     0.169 HD
HETATM   19  O   UNL     1     -43.107  56.433 -50.597  1.00  0.00    -0.273 OA
BRANCH  17  20
HETATM   20  C   UNL     1     -43.152  56.181 -54.177  1.00  0.00     0.034 A 
HETATM   21  C   UNL     1     -42.742  57.192 -55.046  1.00  0.00     0.032 A 
HETATM   22  C   UNL     1     -42.579  56.929 -56.412  1.00  0.00     0.044 A 
HETATM   23  C   UNL     1     -42.815  55.655 -56.908  1.00  0.00     0.116 A 
HETATM   24  C   UNL     1     -43.194  54.628 -56.059  1.00  0.00     0.044 A 
HETATM   25  F   UNL     1     -42.664  55.414 -58.216  1.00  0.00    -0.206 F 
HETATM   26  C   UNL     1     -43.349  54.888 -54.696  1.00  0.00     0.032 A 
ENDBRANCH  17  20
ENDBRANCH  15  16
ENDBRANCH   1  15
TORSDOF 3
ENDMDL
MODEL 5
REMARK VINA RESULT:      -7.4      3.557      7.036
REMARK  3 active torsions:
REMARK  status: ('A' for Active; 'I' for Inactive)
REMARK    1  A    between atoms: C_2  and  N_3 
REMARK       I    between atoms: N_3  and  C_4 
REMARK    2  A    between atoms: C_4  and  C_5 
REMARK    3  A    between atoms: C_5  and  C_6 
ROOT
HETATM    1  C   UNL     1     -43.249  54.706 -53.679  1.00  0.00     0.286 C 
HETATM    2  N   UNL     1     -42.045  54.090 -54.407  1.00  0.00    -0.056 N 
HETATM    3  H   UNL     1     -42.335  53.771 -55.347  1.00  0.00     0.278 HD
HETATM    4  H   UNL     1     -41.347  54.827 -54.589  1.00  0.00     0.278 HD
HETATM    5  C   UNL     1     -41.447  52.980 -53.597  1.00  0.00     0.209 C 
HETATM    6  C   UNL     1     -40.922  53.595 -52.281  1.00  0.00     0.115 C 
HETATM    7  N   UNL     1     -41.971  54.325 -51.572  1.00  0.00    -0.353 N 
HETATM    8  C   UNL     1     -42.915  55.095 -52.221  1.00  0.00     0.249 C 
HETATM    9  O   UNL     1     -43.512  55.980 -51.617  1.00  0.00    -0.271 OA
HETATM   10  C   UNL     1     -40.343  52.285 -54.378  1.00  0.00     0.035 C 
HETATM   11  C   UNL     1     -39.708  51.197 -53.513  1.00  0.00     0.002 C 
HETATM   12  C   UNL     1     -39.199  51.751 -52.181  1.00  0.00     0.002 C 
HETATM   13  C   UNL     1     -40.280  52.515 -51.411  1.00  0.00     0.027 C 
HETATM   14  H   UNL     1     -41.773  54.658 -50.629  1.00  0.00     0.163 HD
ENDROOT
BRANCH   1  15
HETATM   15  C   UNL     1     -43.773  55.895 -54.472  1.00  0.00     0.146 C 
BRANCH  15  16
HETATM   16  C   UNL     1     -42.617  56.474 -55.231  1.00  0.00     0.224 C 
HETATM   17  N   UNL     1     -41.874  57.529 -54.821  1.00  0.00    -0.327 N 
HETATM   18  H   UNL     1     -41.255  57.843 -55.568  1.00  0.00     0.169 HD
HETATM   19  O   UNL     1     -42.486  56.107 -56.409  1.00  0.00    -0.273 OA
BRANCH  17  20
HETATM   20  C   UNL     1     -41.829  58.317 -53.658  1.00  0.00     0.034 A 
HETATM   21  C   UNL     1     -42.779  59.265 -53.275  1.00  0.00     0.032 A 
HETATM   22  C   UNL     1     -42.607  60.004 -52.099  1.00  0.00     0.044 A 
HETATM   23  C   UNL     1     -41.494  59.789 -51.299  1.00  0.00     0.116 A 
HETATM   24  C   UNL     1     -40.553  58.832 -51.643  1.00  0.00     0.044 A 
HETATM   25  F   UNL     1     -41.333  60.504 -50.179  1.00  0.00    -0.206 F 
HETATM   26  C   UNL     1     -40.729  58.090 -52.812  1.00  0.00     0.032 A 
ENDBRANCH  17  20
ENDBRANCH  15  16
ENDBRANCH   1  15
TORSDOF 3
ENDMDL
MODEL 6
REMARK VINA RESULT:      -7.4      2.540      3.050
REMARK  3 active torsions:
REMARK  status: ('A' for Active; 'I' for Inactive)
REMARK    1  A    between atoms: C_2  and  N_3 
REMARK       I    between atoms: N_3  and  C_4 
REMARK    2  A    between atoms: C_4  and  C_5 
REMARK    3  A    between atoms: C_5  and  C_6 
ROOT
HETATM    1  C   UNL     1     -43.245  55.827 -52.854  1.00  0.00     0.286 C 
HETATM    2  N   UNL     1     -41.895  56.338 -52.330  1.00  0.00    -0.056 N 
HETATM    3  H   UNL     1     -41.381  55.562 -51.879  1.00  0.00     0.278 HD
HETATM    4  H   UNL     1     -41.303  56.609 -53.130  1.00  0.00     0.278 HD
HETATM    5  C   UNL     1     -42.093  57.496 -51.399  1.00  0.00     0.209 C 
HETATM    6  C   UNL     1     -42.734  58.642 -52.211  1.00  0.00     0.115 C 
HETATM    7  N   UNL     1     -43.968  58.212 -52.867  1.00  0.00    -0.353 N 
HETATM    8  C   UNL     1     -44.117  56.963 -53.434  1.00  0.00     0.249 C 
HETATM    9  O   UNL     1     -44.974  56.771 -54.289  1.00  0.00    -0.271 OA
HETATM   10  C   UNL     1     -40.769  57.913 -50.778  1.00  0.00     0.035 C 
HETATM   11  C   UNL     1     -40.983  59.131 -49.879  1.00  0.00     0.002 C 
HETATM   12  C   UNL     1     -41.646  60.286 -50.632  1.00  0.00     0.002 C 
HETATM   13  C   UNL     1     -42.947  59.867 -51.322  1.00  0.00     0.027 C 
HETATM   14  H   UNL     1     -44.545  58.921 -53.319  1.00  0.00     0.163 HD
ENDROOT
BRANCH   1  15
HETATM   15  C   UNL     1     -43.011  54.721 -53.874  1.00  0.00     0.146 C 
BRANCH  15  16
HETATM   16  C   UNL     1     -41.682  54.977 -54.519  1.00  0.00     0.224 C 
HETATM   17  N   UNL     1     -40.542  54.303 -54.235  1.00  0.00    -0.327 N 
HETATM   18  H   UNL     1     -39.741  54.756 -54.673  1.00  0.00     0.169 HD
HETATM   19  O   UNL     1     -41.578  56.021 -55.180  1.00  0.00    -0.273 OA
BRANCH  17  20
HETATM   20  C   UNL     1     -40.219  53.201 -53.426  1.00  0.00     0.034 A 
HETATM   21  C   UNL     1     -40.225  53.180 -52.031  1.00  0.00     0.032 A 
HETATM   22  C   UNL     1     -39.859  52.020 -51.338  1.00  0.00     0.044 A 
HETATM   23  C   UNL     1     -39.498  50.877 -52.037  1.00  0.00     0.116 A 
HETATM   24  C   UNL     1     -39.513  50.865 -53.422  1.00  0.00     0.044 A 
HETATM   25  F   UNL     1     -39.143  49.774 -51.367  1.00  0.00    -0.206 F 
HETATM   26  C   UNL     1     -39.886  52.020 -54.112  1.00  0.00     0.032 A 
ENDBRANCH  17  20
ENDBRANCH  15  16
ENDBRANCH   1  15
TORSDOF 3
ENDMDL
MODEL 7
REMARK VINA RESULT:      -7.4      4.961      6.994
REMARK  3 active torsions:
REMARK  status: ('A' for Active; 'I' for Inactive)
REMARK    1  A    between atoms: C_2  and  N_3 
REMARK       I    between atoms: N_3  and  C_4 
REMARK    2  A    between atoms: C_4  and  C_5 
REMARK    3  A    between atoms: C_5  and  C_6 
ROOT
HETATM    1  C   UNL     1     -43.339  54.937 -54.086  1.00  0.00     0.286 C 
HETATM    2  N   UNL     1     -42.104  54.269 -54.709  1.00  0.00    -0.056 N 
HETATM    3  H   UNL     1     -42.343  53.905 -55.647  1.00  0.00     0.278 HD
HETATM    4  H   UNL     1     -41.385  54.987 -54.886  1.00  0.00     0.278 HD
HETATM    5  C   UNL     1     -41.572  53.195 -53.808  1.00  0.00     0.209 C 
HETATM    6  C   UNL     1     -41.116  53.871 -52.497  1.00  0.00     0.115 C 
HETATM    7  N   UNL     1     -42.194  54.650 -51.890  1.00  0.00    -0.353 N 
HETATM    8  C   UNL     1     -43.086  55.397 -52.633  1.00  0.00     0.249 C 
HETATM    9  O   UNL     1     -43.704  56.319 -52.112  1.00  0.00    -0.271 OA
HETATM   10  C   UNL     1     -40.435  52.447 -54.485  1.00  0.00     0.035 C 
HETATM   11  C   UNL     1     -39.869  51.397 -53.529  1.00  0.00     0.002 C 
HETATM   12  C   UNL     1     -39.431  52.014 -52.200  1.00  0.00     0.002 C 
HETATM   13  C   UNL     1     -40.543  52.830 -51.535  1.00  0.00     0.027 C 
HETATM   14  H   UNL     1     -42.047  55.029 -50.955  1.00  0.00     0.163 HD
ENDROOT
BRANCH   1  15
HETATM   15  C   UNL     1     -43.797  56.089 -54.969  1.00  0.00     0.146 C 
BRANCH  15  16
HETATM   16  C   UNL     1     -42.580  56.650 -55.644  1.00  0.00     0.224 C 
HETATM   17  N   UNL     1     -42.363  56.638 -56.981  1.00  0.00    -0.327 N 
HETATM   18  H   UNL     1     -41.407  56.923 -57.190  1.00  0.00     0.169 HD
HETATM   19  O   UNL     1     -41.619  56.929 -54.912  1.00  0.00    -0.273 OA
BRANCH  17  20
HETATM   20  C   UNL     1     -43.115  56.250 -58.103  1.00  0.00     0.034 A 
HETATM   21  C   UNL     1     -43.452  54.941 -58.449  1.00  0.00     0.032 A 
HETATM   22  C   UNL     1     -44.189  54.683 -59.611  1.00  0.00     0.044 A 
HETATM   23  C   UNL     1     -44.601  55.732 -60.420  1.00  0.00     0.116 A 
HETATM   24  C   UNL     1     -44.304  57.042 -60.081  1.00  0.00     0.044 A 
HETATM   25  F   UNL     1     -45.300  55.477 -61.533  1.00  0.00    -0.206 F 
HETATM   26  C   UNL     1     -43.575  57.299 -58.918  1.00  0.00     0.032 A 
ENDBRANCH  17  20
ENDBRANCH  15  16
ENDBRANCH   1  15
TORSDOF 3
ENDMDL
MODEL 8
REMARK VINA RESULT:      -7.3      4.663      7.539
REMARK  3 active torsions:
REMARK  status: ('A' for Active; 'I' for Inactive)
REMARK    1  A    between atoms: C_2  and  N_3 
REMARK       I    between atoms: N_3  and  C_4 
REMARK    2  A    between atoms: C_4  and  C_5 
REMARK    3  A    between atoms: C_5  and  C_6 
ROOT
HETATM    1  C   UNL     1     -41.864  54.630 -54.008  1.00  0.00     0.286 C 
HETATM    2  N   UNL     1     -41.009  53.511 -54.621  1.00  0.00    -0.056 N 
HETATM    3  H   UNL     1     -41.430  53.202 -55.514  1.00  0.00     0.278 HD
HETATM    4  H   UNL     1     -40.090  53.896 -54.888  1.00  0.00     0.278 HD
HETATM    5  C   UNL     1     -40.849  52.377 -53.654  1.00  0.00     0.209 C 
HETATM    6  C   UNL     1     -40.086  52.917 -52.425  1.00  0.00     0.115 C 
HETATM    7  N   UNL     1     -40.756  54.080 -51.844  1.00  0.00    -0.353 N 
HETATM    8  C   UNL     1     -41.359  55.056 -52.611  1.00  0.00     0.249 C 
HETATM    9  O   UNL     1     -41.555  56.173 -52.147  1.00  0.00    -0.271 OA
HETATM   10  C   UNL     1     -40.118  51.216 -54.309  1.00  0.00     0.035 C 
HETATM   11  C   UNL     1     -39.914  50.096 -53.290  1.00  0.00     0.002 C 
HETATM   12  C   UNL     1     -39.188  50.589 -52.038  1.00  0.00     0.002 C 
HETATM   13  C   UNL     1     -39.872  51.803 -51.401  1.00  0.00     0.027 C 
HETATM   14  H   UNL     1     -40.414  54.437 -50.952  1.00  0.00     0.163 HD
ENDROOT
BRANCH   1  15
HETATM   15  C   UNL     1     -41.926  55.810 -54.968  1.00  0.00     0.146 C 
BRANCH  15  16
HETATM   16  C   UNL     1     -43.369  56.049 -55.295  1.00  0.00     0.224 C 
HETATM   17  N   UNL     1     -43.822  56.583 -56.455  1.00  0.00    -0.327 N 
HETATM   18  H   UNL     1     -44.815  56.799 -56.386  1.00  0.00     0.169 HD
HETATM   19  O   UNL     1     -44.173  55.966 -54.354  1.00  0.00    -0.273 OA
BRANCH  17  20
HETATM   20  C   UNL     1     -43.223  56.972 -57.666  1.00  0.00     0.034 A 
HETATM   21  C   UNL     1     -43.073  56.171 -58.798  1.00  0.00     0.032 A 
HETATM   22  C   UNL     1     -42.434  56.671 -59.940  1.00  0.00     0.044 A 
HETATM   23  C   UNL     1     -41.956  57.974 -59.955  1.00  0.00     0.116 A 
HETATM   24  C   UNL     1     -42.120  58.797 -58.853  1.00  0.00     0.044 A 
HETATM   25  F   UNL     1     -41.341  58.443 -61.047  1.00  0.00    -0.206 F 
HETATM   26  C   UNL     1     -42.764  58.300 -57.717  1.00  0.00     0.032 A 
ENDBRANCH  17  20
ENDBRANCH  15  16
ENDBRANCH   1  15
TORSDOF 3
ENDMDL
MODEL 9
REMARK VINA RESULT:      -7.3      4.479      5.436
REMARK  3 active torsions:
REMARK  status: ('A' for Active; 'I' for Inactive)
REMARK    1  A    between atoms: C_2  and  N_3 
REMARK       I    between atoms: N_3  and  C_4 
REMARK    2  A    between atoms: C_4  and  C_5 
REMARK    3  A    between atoms: C_5  and  C_6 
ROOT
HETATM    1  C   UNL     1     -43.625  57.387 -55.112  1.00  0.00     0.286 C 
HETATM    2  N   UNL     1     -43.592  56.235 -56.126  1.00  0.00    -0.056 N 
HETATM    3  H   UNL     1     -42.833  55.577 -55.879  1.00  0.00     0.278 HD
HETATM    4  H   UNL     1     -44.456  55.679 -56.035  1.00  0.00     0.278 HD
HETATM    5  C   UNL     1     -43.445  56.763 -57.522  1.00  0.00     0.209 C 
HETATM    6  C   UNL     1     -44.697  57.612 -57.833  1.00  0.00     0.115 C 
HETATM    7  N   UNL     1     -44.894  58.664 -56.836  1.00  0.00    -0.353 N 
HETATM    8  C   UNL     1     -44.659  58.472 -55.490  1.00  0.00     0.249 C 
HETATM    9  O   UNL     1     -45.187  59.204 -54.660  1.00  0.00    -0.271 OA
HETATM   10  C   UNL     1     -43.277  55.619 -58.509  1.00  0.00     0.035 C 
HETATM   11  C   UNL     1     -43.188  56.175 -59.930  1.00  0.00     0.002 C 
HETATM   12  C   UNL     1     -44.393  57.051 -60.276  1.00  0.00     0.002 C 
HETATM   13  C   UNL     1     -44.620  58.169 -59.254  1.00  0.00     0.027 C 
HETATM   14  H   UNL     1     -45.611  59.367 -57.014  1.00  0.00     0.163 HD
ENDROOT
BRANCH   1  15
HETATM   15  C   UNL     1     -43.878  56.832 -53.717  1.00  0.00     0.146 C 
BRANCH  15  16
HETATM   16  C   UNL     1     -42.696  57.194 -52.868  1.00  0.00     0.224 C 
HETATM   17  N   UNL     1     -41.579  56.440 -52.736  1.00  0.00    -0.327 N 
HETATM   18  H   UNL     1     -40.988  56.803 -51.989  1.00  0.00     0.169 HD
HETATM   19  O   UNL     1     -42.854  58.125 -52.064  1.00  0.00    -0.273 OA
BRANCH  17  20
HETATM   20  C   UNL     1     -41.110  55.254 -53.325  1.00  0.00     0.034 A 
HETATM   21  C   UNL     1     -40.576  55.133 -54.608  1.00  0.00     0.032 A 
HETATM   22  C   UNL     1     -40.164  53.885 -55.090  1.00  0.00     0.044 A 
HETATM   23  C   UNL     1     -40.273  52.759 -54.287  1.00  0.00     0.116 A 
HETATM   24  C   UNL     1     -40.773  52.859 -52.999  1.00  0.00     0.044 A 
HETATM   25  F   UNL     1     -39.883  51.568 -54.756  1.00  0.00    -0.206 F 
HETATM   26  C   UNL     1     -41.176  54.105 -52.516  1.00  0.00     0.032 A 
ENDBRANCH  17  20
ENDBRANCH  15  16
ENDBRANCH   1  15
TORSDOF 3
ENDMDL
MODEL 10
REMARK VINA RESULT:      -7.2     14.395     16.478
REMARK  3 active torsions:
REMARK  status: ('A' for Active; 'I' for Inactive)
REMARK    1  A    between atoms: C_2  and  N_3 
REMARK       I    between atoms: N_3  and  C_4 
REMARK    2  A    between atoms: C_4  and  C_5 
REMARK    3  A    between atoms: C_5  and  C_6 
ROOT
HETATM    1  C   UNL     1     -34.186  40.543 -54.124  1.00  0.00     0.286 C 
HETATM    2  N   UNL     1     -33.930  41.167 -52.744  1.00  0.00    -0.056 N 
HETATM    3  H   UNL     1     -33.192  41.888 -52.822  1.00  0.00     0.278 HD
HETATM    4  H   UNL     1     -34.770  41.687 -52.447  1.00  0.00     0.278 HD
HETATM    5  C   UNL     1     -33.578  40.109 -51.742  1.00  0.00     0.209 C 
HETATM    6  C   UNL     1     -34.800  39.174 -51.604  1.00  0.00     0.115 C 
HETATM    7  N   UNL     1     -35.209  38.629 -52.897  1.00  0.00    -0.353 N 
HETATM    8  C   UNL     1     -35.193  39.372 -54.060  1.00  0.00     0.249 C 
HETATM    9  O   UNL     1     -35.885  39.040 -55.016  1.00  0.00    -0.271 OA
HETATM   10  C   UNL     1     -33.195  40.740 -50.414  1.00  0.00     0.035 C 
HETATM   11  C   UNL     1     -32.897  39.644 -49.390  1.00  0.00     0.002 C 
HETATM   12  C   UNL     1     -34.068  38.672 -49.240  1.00  0.00     0.002 C 
HETATM   13  C   UNL     1     -34.514  38.077 -50.579  1.00  0.00     0.027 C 
HETATM   14  H   UNL     1     -35.920  37.897 -52.908  1.00  0.00     0.163 HD
ENDROOT
BRANCH   1  15
HETATM   15  C   UNL     1     -34.641  41.623 -55.097  1.00  0.00     0.146 C 
BRANCH  15  16
HETATM   16  C   UNL     1     -36.016  42.052 -54.681  1.00  0.00     0.224 C 
HETATM   17  N   UNL     1     -37.111  42.019 -55.478  1.00  0.00    -0.327 N 
HETATM   18  H   UNL     1     -37.889  42.506 -55.037  1.00  0.00     0.169 HD
HETATM   19  O   UNL     1     -36.101  42.690 -53.621  1.00  0.00    -0.273 OA
BRANCH  17  20
HETATM   20  C   UNL     1     -37.377  41.548 -56.775  1.00  0.00     0.034 A 
HETATM   21  C   UNL     1     -38.159  40.439 -57.099  1.00  0.00     0.032 A 
HETATM   22  C   UNL     1     -38.328  40.058 -58.435  1.00  0.00     0.044 A 
HETATM   23  C   UNL     1     -37.728  40.791 -59.449  1.00  0.00     0.116 A 
HETATM   24  C   UNL     1     -36.972  41.914 -59.154  1.00  0.00     0.044 A 
HETATM   25  F   UNL     1     -37.889  40.417 -60.724  1.00  0.00    -0.206 F 
HETATM   26  C   UNL     1     -36.809  42.297 -57.821  1.00  0.00     0.032 A 
ENDBRANCH  17  20
ENDBRANCH  15  16
ENDBRANCH   1  15
TORSDOF 3
ENDMDL
