MODEL 1
REMARK VINA RESULT:      -7.7      0.000      0.000
REMARK  9 active torsions:
REMARK  status: ('A' for Active; 'I' for Inactive)
REMARK    1  A    between atoms: C_2  and  C_3 
REMARK    2  A    between atoms: C_3  and  C_4 
REMARK    3  A    between atoms: C_4  and  N_5 
REMARK       I    between atoms: N_5  and  C_6 
REMARK    4  A    between atoms: C_6  and  C_7 
REMARK    5  A    between atoms: C_14  and  S_15 
REMARK    6  A    between atoms: S_15  and  N_16 
REMARK    7  A    between atoms: N_16  and  C_17 
REMARK    8  A    between atoms: C_20  and  O_21 
REMARK    9  A    between atoms: O_21  and  C_22 
ROOT
HETATM    1  C   UNL     1     -41.245  55.595 -51.014  1.00  0.00     0.098 A 
HETATM    2  C   UNL     1     -41.523  55.920 -52.442  1.00  0.00     0.201 A 
HETATM    3  O   UNL     1     -41.540  55.050 -53.311  1.00  0.00    -0.286 OA
HETATM    4  C   UNL     1     -41.778  57.341 -52.801  1.00  0.00     0.043 A 
HETATM    5  C   UNL     1     -41.753  58.312 -51.782  1.00  0.00     0.046 A 
HETATM    6  N   UNL     1     -41.463  57.934 -50.467  1.00  0.00    -0.364 N 
HETATM    7  C   UNL     1     -42.023  57.699 -54.130  1.00  0.00     0.043 A 
HETATM    8  C   UNL     1     -42.194  59.048 -54.447  1.00  0.00     0.081 A 
HETATM    9  C   UNL     1     -42.173  60.026 -53.445  1.00  0.00     0.027 A 
HETATM   10  C   UNL     1     -41.949  59.655 -52.116  1.00  0.00     0.032 A 
HETATM   11  C   UNL     1     -41.250  56.619 -50.144  1.00  0.00     0.109 A 
HETATM   12  H   UNL     1     -41.586  58.604 -49.714  1.00  0.00     0.165 HD
ENDROOT
BRANCH   8  13
HETATM   13  S   UNL     1     -42.475  59.531 -56.139  1.00  0.00     0.263 S 
HETATM   14  O   UNL     1     -43.901  59.510 -56.373  1.00  0.00    -0.200 OA
HETATM   15  O   UNL     1     -41.691  60.725 -56.379  1.00  0.00    -0.200 OA
BRANCH  13  16
HETATM   16  N   UNL     1     -41.722  58.299 -57.015  1.00  0.00    -0.281 N 
HETATM   17  H   UNL     1     -41.094  57.739 -56.443  1.00  0.00     0.179 HD
BRANCH  16  18
HETATM   18  C   UNL     1     -42.431  57.654 -58.064  1.00  0.00     0.042 A 
HETATM   19  C   UNL     1     -42.974  56.387 -57.874  1.00  0.00     0.033 A 
HETATM   20  C   UNL     1     -43.622  55.744 -58.930  1.00  0.00     0.039 A 
HETATM   21  C   UNL     1     -43.721  56.355 -60.183  1.00  0.00     0.068 A 
HETATM   22  C   UNL     1     -43.176  57.626 -60.369  1.00  0.00     0.039 A 
HETATM   23  C   UNL     1     -42.533  58.277 -59.308  1.00  0.00     0.033 A 
BRANCH  21  24
HETATM   24  O   UNL     1     -44.374  55.612 -61.125  1.00  0.00    -0.352 OA
BRANCH  24  25
HETATM   25  C   UNL     1     -45.652  55.086 -60.772  1.00  0.00     0.171 C 
HETATM   26  C   UNL     1     -46.653  56.226 -60.811  1.00  0.00     0.034 C 
ENDBRANCH  24  25
ENDBRANCH  21  24
ENDBRANCH  16  18
ENDBRANCH  13  16
ENDBRANCH   8  13
BRANCH   1  27
HETATM   27  C   UNL     1     -40.961  54.226 -50.495  1.00  0.00     0.257 C 
HETATM   28  N   UNL     1     -40.316  53.392 -51.370  1.00  0.00    -0.357 N 
HETATM   29  H   UNL     1     -40.129  53.731 -52.315  1.00  0.00     0.162 HD
HETATM   30  O   UNL     1     -41.284  53.889 -49.359  1.00  0.00    -0.267 OA
BRANCH  28  31
HETATM   31  C   UNL     1     -40.008  52.013 -51.058  1.00  0.00     0.123 C 
BRANCH  31  32
HETATM   32  C   UNL     1     -39.286  51.298 -52.199  1.00  0.00     0.019 C 
BRANCH  32  33
HETATM   33  C   UNL     1     -39.953  51.535 -53.556  1.00  0.00    -0.003 C 
HETATM   34  C   UNL     1     -40.108  50.237 -54.331  1.00  0.00     0.005 C 
ENDBRANCH  32  33
ENDBRANCH  31  32
ENDBRANCH  28  31
ENDBRANCH   1  27
TORSDOF 9
ENDMDL
MODEL 2
REMARK VINA RESULT:      -7.6      2.511      7.825
REMARK  9 active torsions:
REMARK  status: ('A' for Active; 'I' for Inactive)
REMARK    1  A    between atoms: C_2  and  C_3 
REMARK    2  A    between atoms: C_3  and  C_4 
REMARK    3  A    between atoms: C_4  and  N_5 
REMARK       I    between atoms: N_5  and  C_6 
REMARK    4  A    between atoms: C_6  and  C_7 
REMARK    5  A    between atoms: C_14  and  S_15 
REMARK    6  A    between atoms: S_15  and  N_16 
REMARK    7  A    between atoms: N_16  and  C_17 
REMARK    8  A    between atoms: C_20  and  O_21 
REMARK    9  A    between atoms: O_21  and  C_22 
ROOT
HETATM    1  C   UNL     1     -44.227  57.784 -56.650  1.00  0.00     0.098 A 
HETATM    2  C   UNL     1     -43.102  57.636 -55.683  1.00  0.00     0.201 A 
HETATM    3  O   UNL     1     -42.036  57.119 -56.008  1.00  0.00    -0.286 OA
HETATM    4  C   UNL     1     -43.302  58.130 -54.294  1.00  0.00     0.043 A 
HETATM    5  C   UNL     1     -44.534  58.719 -53.954  1.00  0.00     0.046 A 
HETATM    6  N   UNL     1     -45.552  58.803 -54.911  1.00  0.00    -0.364 N 
HETATM    7  C   UNL     1     -42.284  57.995 -53.345  1.00  0.00     0.043 A 
HETATM    8  C   UNL     1     -42.523  58.408 -52.033  1.00  0.00     0.081 A 
HETATM    9  C   UNL     1     -43.744  58.997 -51.680  1.00  0.00     0.027 A 
HETATM   10  C   UNL     1     -44.747  59.146 -52.641  1.00  0.00     0.032 A 
HETATM   11  C   UNL     1     -45.350  58.363 -56.193  1.00  0.00     0.109 A 
HETATM   12  H   UNL     1     -46.382  59.352 -54.712  1.00  0.00     0.165 HD
ENDROOT
BRANCH   8  13
HETATM   13  S   UNL     1     -41.252  58.216 -50.799  1.00  0.00     0.263 S 
HETATM   14  O   UNL     1     -39.998  58.001 -51.487  1.00  0.00    -0.200 OA
HETATM   15  O   UNL     1     -41.412  59.295 -49.848  1.00  0.00    -0.200 OA
BRANCH  13  16
HETATM   16  N   UNL     1     -41.719  56.810 -49.988  1.00  0.00    -0.281 N 
HETATM   17  H   UNL     1     -42.650  56.884 -49.581  1.00  0.00     0.179 HD
BRANCH  16  18
HETATM   18  C   UNL     1     -41.300  55.546 -50.481  1.00  0.00     0.042 A 
HETATM   19  C   UNL     1     -40.192  54.906 -49.933  1.00  0.00     0.033 A 
HETATM   20  C   UNL     1     -39.760  53.689 -50.464  1.00  0.00     0.039 A 
HETATM   21  C   UNL     1     -40.422  53.110 -51.551  1.00  0.00     0.068 A 
HETATM   22  C   UNL     1     -41.533  53.755 -52.096  1.00  0.00     0.039 A 
HETATM   23  C   UNL     1     -41.973  54.972 -51.560  1.00  0.00     0.033 A 
BRANCH  21  24
HETATM   24  O   UNL     1     -39.890  51.925 -51.971  1.00  0.00    -0.352 OA
BRANCH  24  25
HETATM   25  C   UNL     1     -39.627  51.785 -53.366  1.00  0.00     0.171 C 
HETATM   26  C   UNL     1     -39.970  50.361 -53.766  1.00  0.00     0.034 C 
ENDBRANCH  24  25
ENDBRANCH  21  24
ENDBRANCH  16  18
ENDBRANCH  13  16
ENDBRANCH   8  13
BRANCH   1  27
HETATM   27  C   UNL     1     -44.190  57.333 -58.071  1.00  0.00     0.257 C 
HETATM   28  N   UNL     1     -43.843  56.020 -58.258  1.00  0.00    -0.357 N 
HETATM   29  H   UNL     1     -43.582  55.466 -57.440  1.00  0.00     0.162 HD
HETATM   30  O   UNL     1     -44.460  58.095 -58.995  1.00  0.00    -0.267 OA
BRANCH  28  31
HETATM   31  C   UNL     1     -43.704  55.425 -59.569  1.00  0.00     0.123 C 
BRANCH  31  32
HETATM   32  C   UNL     1     -44.972  54.705 -60.026  1.00  0.00     0.019 C 
BRANCH  32  33
HETATM   33  C   UNL     1     -45.770  55.516 -61.049  1.00  0.00    -0.003 C 
HETATM   34  C   UNL     1     -46.974  56.185 -60.408  1.00  0.00     0.005 C 
ENDBRANCH  32  33
ENDBRANCH  31  32
ENDBRANCH  28  31
ENDBRANCH   1  27
TORSDOF 9
ENDMDL
MODEL 3
REMARK VINA RESULT:      -7.6      2.713      4.382
REMARK  9 active torsions:
REMARK  status: ('A' for Active; 'I' for Inactive)
REMARK    1  A    between atoms: C_2  and  C_3 
REMARK    2  A    between atoms: C_3  and  C_4 
REMARK    3  A    between atoms: C_4  and  N_5 
REMARK       I    between atoms: N_5  and  C_6 
REMARK    4  A    between atoms: C_6  and  C_7 
REMARK    5  A    between atoms: C_14  and  S_15 
REMARK    6  A    between atoms: S_15  and  N_16 
REMARK    7  A    between atoms: N_16  and  C_17 
REMARK    8  A    between atoms: C_20  and  O_21 
REMARK    9  A    between atoms: O_21  and  C_22 
ROOT
HETATM    1  C   UNL     1     -41.582  55.585 -53.698  1.00  0.00     0.098 A 
HETATM    2  C   UNL     1     -42.257  55.014 -54.899  1.00  0.00     0.201 A 
HETATM    3  O   UNL     1     -42.483  53.810 -55.000  1.00  0.00    -0.286 OA
HETATM    4  C   UNL     1     -42.650  55.944 -55.991  1.00  0.00     0.043 A 
HETATM    5  C   UNL     1     -42.378  57.317 -55.844  1.00  0.00     0.046 A 
HETATM    6  N   UNL     1     -41.721  57.776 -54.697  1.00  0.00    -0.364 N 
HETATM    7  C   UNL     1     -43.267  55.453 -57.146  1.00  0.00     0.043 A 
HETATM    8  C   UNL     1     -43.566  56.340 -58.182  1.00  0.00     0.081 A 
HETATM    9  C   UNL     1     -43.302  57.709 -58.050  1.00  0.00     0.027 A 
HETATM   10  C   UNL     1     -42.705  58.192 -56.883  1.00  0.00     0.032 A 
HETATM   11  C   UNL     1     -41.381  56.914 -53.688  1.00  0.00     0.109 A 
HETATM   12  H   UNL     1     -41.653  58.774 -54.524  1.00  0.00     0.165 HD
ENDROOT
BRANCH   8  13
HETATM   13  S   UNL     1     -44.322  55.732 -59.677  1.00  0.00     0.263 S 
HETATM   14  O   UNL     1     -43.913  56.596 -60.762  1.00  0.00    -0.200 OA
HETATM   15  O   UNL     1     -44.087  54.304 -59.725  1.00  0.00    -0.200 OA
BRANCH  13  16
HETATM   16  N   UNL     1     -45.972  55.921 -59.372  1.00  0.00    -0.281 N 
HETATM   17  H   UNL     1     -46.196  55.860 -58.381  1.00  0.00     0.179 HD
BRANCH  16  18
HETATM   18  C   UNL     1     -46.736  56.804 -60.181  1.00  0.00     0.042 A 
HETATM   19  C   UNL     1     -47.468  56.318 -61.260  1.00  0.00     0.033 A 
HETATM   20  C   UNL     1     -48.171  57.205 -62.078  1.00  0.00     0.039 A 
HETATM   21  C   UNL     1     -48.138  58.580 -61.832  1.00  0.00     0.068 A 
HETATM   22  C   UNL     1     -47.403  59.062 -60.748  1.00  0.00     0.039 A 
HETATM   23  C   UNL     1     -46.704  58.174 -59.921  1.00  0.00     0.033 A 
BRANCH  21  24
HETATM   24  O   UNL     1     -48.864  59.331 -62.712  1.00  0.00    -0.352 OA
BRANCH  24  25
HETATM   25  C   UNL     1     -50.185  58.885 -63.017  1.00  0.00     0.171 C 
HETATM   26  C   UNL     1     -51.134  59.522 -62.019  1.00  0.00     0.034 C 
ENDBRANCH  24  25
ENDBRANCH  21  24
ENDBRANCH  16  18
ENDBRANCH  13  16
ENDBRANCH   8  13
BRANCH   1  27
HETATM   27  C   UNL     1     -41.118  54.789 -52.526  1.00  0.00     0.257 C 
HETATM   28  N   UNL     1     -40.436  53.640 -52.833  1.00  0.00    -0.357 N 
HETATM   29  H   UNL     1     -40.343  53.379 -53.817  1.00  0.00     0.162 HD
HETATM   30  O   UNL     1     -41.334  55.154 -51.374  1.00  0.00    -0.267 OA
BRANCH  28  31
HETATM   31  C   UNL     1     -39.959  52.718 -51.826  1.00  0.00     0.123 C 
BRANCH  31  32
HETATM   32  C   UNL     1     -39.522  51.377 -52.416  1.00  0.00     0.019 C 
BRANCH  32  33
HETATM   33  C   UNL     1     -39.729  51.307 -53.930  1.00  0.00    -0.003 C 
HETATM   34  C   UNL     1     -39.919  49.873 -54.397  1.00  0.00     0.005 C 
ENDBRANCH  32  33
ENDBRANCH  31  32
ENDBRANCH  28  31
ENDBRANCH   1  27
TORSDOF 9
ENDMDL
MODEL 4
REMARK VINA RESULT:      -7.5      2.649      4.336
REMARK  9 active torsions:
REMARK  status: ('A' for Active; 'I' for Inactive)
REMARK    1  A    between atoms: C_2  and  C_3 
REMARK    2  A    between atoms: C_3  and  C_4 
REMARK    3  A    between atoms: C_4  and  N_5 
REMARK       I    between atoms: N_5  and  C_6 
REMARK    4  A    between atoms: C_6  and  C_7 
REMARK    5  A    between atoms: C_14  and  S_15 
REMARK    6  A    between atoms: S_15  and  N_16 
REMARK    7  A    between atoms: N_16  and  C_17 
REMARK    8  A    between atoms: C_20  and  O_21 
REMARK    9  A    between atoms: O_21  and  C_22 
ROOT
HETATM    1  C   UNL     1     -42.434  54.818 -52.953  1.00  0.00     0.098 A 
HETATM    2  C   UNL     1     -42.356  54.655 -54.433  1.00  0.00     0.201 A 
HETATM    3  O   UNL     1     -41.721  53.738 -54.949  1.00  0.00    -0.286 OA
HETATM    4  C   UNL     1     -43.070  55.643 -55.287  1.00  0.00     0.043 A 
HETATM    5  C   UNL     1     -43.790  56.681 -54.665  1.00  0.00     0.046 A 
HETATM    6  N   UNL     1     -43.799  56.782 -53.270  1.00  0.00    -0.364 N 
HETATM    7  C   UNL     1     -43.009  55.544 -56.680  1.00  0.00     0.043 A 
HETATM    8  C   UNL     1     -43.633  56.523 -57.455  1.00  0.00     0.081 A 
HETATM    9  C   UNL     1     -44.355  57.561 -56.852  1.00  0.00     0.027 A 
HETATM   10  C   UNL     1     -44.427  57.638 -55.459  1.00  0.00     0.032 A 
HETATM   11  C   UNL     1     -43.156  55.854 -52.493  1.00  0.00     0.109 A 
HETATM   12  H   UNL     1     -44.430  57.437 -52.819  1.00  0.00     0.165 HD
ENDROOT
BRANCH   8  13
HETATM   13  S   UNL     1     -43.541  56.436 -59.233  1.00  0.00     0.263 S 
HETATM   14  O   UNL     1     -43.589  55.040 -59.610  1.00  0.00    -0.200 OA
HETATM   15  O   UNL     1     -44.496  57.389 -59.758  1.00  0.00    -0.200 OA
BRANCH  13  16
HETATM   16  N   UNL     1     -42.015  57.078 -59.567  1.00  0.00    -0.281 N 
HETATM   17  H   UNL     1     -41.480  56.499 -60.210  1.00  0.00     0.179 HD
BRANCH  16  18
HETATM   18  C   UNL     1     -41.849  58.487 -59.632  1.00  0.00     0.042 A 
HETATM   19  C   UNL     1     -41.673  59.233 -58.470  1.00  0.00     0.033 A 
HETATM   20  C   UNL     1     -41.564  60.622 -58.547  1.00  0.00     0.039 A 
HETATM   21  C   UNL     1     -41.641  61.276 -59.779  1.00  0.00     0.068 A 
HETATM   22  C   UNL     1     -41.817  60.524 -60.942  1.00  0.00     0.039 A 
HETATM   23  C   UNL     1     -41.918  59.130 -60.869  1.00  0.00     0.033 A 
BRANCH  21  24
HETATM   24  O   UNL     1     -41.525  62.635 -59.707  1.00  0.00    -0.352 OA
BRANCH  24  25
HETATM   25  C   UNL     1     -40.501  63.246 -60.490  1.00  0.00     0.171 C 
HETATM   26  C   UNL     1     -39.282  63.427 -59.604  1.00  0.00     0.034 C 
ENDBRANCH  24  25
ENDBRANCH  21  24
ENDBRANCH  16  18
ENDBRANCH  13  16
ENDBRANCH   8  13
BRANCH   1  27
HETATM   27  C   UNL     1     -41.770  53.922 -51.964  1.00  0.00     0.257 C 
HETATM   28  N   UNL     1     -40.498  53.533 -52.291  1.00  0.00    -0.357 N 
HETATM   29  H   UNL     1     -40.118  53.824 -53.194  1.00  0.00     0.162 HD
HETATM   30  O   UNL     1     -42.335  53.572 -50.931  1.00  0.00    -0.267 OA
BRANCH  28  31
HETATM   31  C   UNL     1     -39.722  52.622 -51.478  1.00  0.00     0.123 C 
BRANCH  31  32
HETATM   32  C   UNL     1     -39.488  51.275 -52.162  1.00  0.00     0.019 C 
BRANCH  32  33
HETATM   33  C   UNL     1     -39.443  51.392 -53.687  1.00  0.00    -0.003 C 
HETATM   34  C   UNL     1     -40.263  50.298 -54.351  1.00  0.00     0.005 C 
ENDBRANCH  32  33
ENDBRANCH  31  32
ENDBRANCH  28  31
ENDBRANCH   1  27
TORSDOF 9
ENDMDL
MODEL 5
REMARK VINA RESULT:      -7.3      3.784      7.895
REMARK  9 active torsions:
REMARK  status: ('A' for Active; 'I' for Inactive)
REMARK    1  A    between atoms: C_2  and  C_3 
REMARK    2  A    between atoms: C_3  and  C_4 
REMARK    3  A    between atoms: C_4  and  N_5 
REMARK       I    between atoms: N_5  and  C_6 
REMARK    4  A    between atoms: C_6  and  C_7 
REMARK    5  A    between atoms: C_14  and  S_15 
REMARK    6  A    between atoms: S_15  and  N_16 
REMARK    7  A    between atoms: N_16  and  C_17 
REMARK    8  A    between atoms: C_20  and  O_21 
REMARK    9  A    between atoms: O_21  and  C_22 
ROOT
HETATM    1  C   UNL     1     -43.261  60.518 -50.401  1.00  0.00     0.098 A 
HETATM    2  C   UNL     1     -43.888  59.743 -51.509  1.00  0.00     0.201 A 
HETATM    3  O   UNL     1     -45.107  59.706 -51.662  1.00  0.00    -0.286 OA
HETATM    4  C   UNL     1     -42.995  58.998 -52.437  1.00  0.00     0.043 A 
HETATM    5  C   UNL     1     -41.603  59.061 -52.235  1.00  0.00     0.046 A 
HETATM    6  N   UNL     1     -41.089  59.793 -51.159  1.00  0.00    -0.364 N 
HETATM    7  C   UNL     1     -43.536  58.240 -53.479  1.00  0.00     0.043 A 
HETATM    8  C   UNL     1     -42.678  57.499 -54.294  1.00  0.00     0.081 A 
HETATM    9  C   UNL     1     -41.291  57.552 -54.107  1.00  0.00     0.027 A 
HETATM   10  C   UNL     1     -40.759  58.330 -53.076  1.00  0.00     0.032 A 
HETATM   11  C   UNL     1     -41.919  60.491 -50.323  1.00  0.00     0.109 A 
HETATM   12  H   UNL     1     -40.089  59.957 -51.097  1.00  0.00     0.165 HD
ENDROOT
BRANCH   8  13
HETATM   13  S   UNL     1     -43.348  56.499 -55.608  1.00  0.00     0.263 S 
HETATM   14  O   UNL     1     -44.564  57.132 -56.068  1.00  0.00    -0.200 OA
HETATM   15  O   UNL     1     -42.262  56.207 -56.520  1.00  0.00    -0.200 OA
BRANCH  13  16
HETATM   16  N   UNL     1     -43.707  55.043 -54.832  1.00  0.00    -0.281 N 
HETATM   17  H   UNL     1     -44.256  54.414 -55.415  1.00  0.00     0.179 HD
BRANCH  16  18
HETATM   18  C   UNL     1     -42.760  54.475 -53.938  1.00  0.00     0.042 A 
HETATM   19  C   UNL     1     -41.630  53.825 -54.425  1.00  0.00     0.033 A 
HETATM   20  C   UNL     1     -40.736  53.227 -53.535  1.00  0.00     0.039 A 
HETATM   21  C   UNL     1     -40.970  53.262 -52.158  1.00  0.00     0.068 A 
HETATM   22  C   UNL     1     -42.105  53.915 -51.674  1.00  0.00     0.039 A 
HETATM   23  C   UNL     1     -42.998  54.524 -52.564  1.00  0.00     0.033 A 
BRANCH  21  24
HETATM   24  O   UNL     1     -40.020  52.632 -51.405  1.00  0.00    -0.352 OA
BRANCH  24  25
HETATM   25  C   UNL     1     -39.355  51.515 -51.993  1.00  0.00     0.171 C 
HETATM   26  C   UNL     1     -39.660  50.293 -51.146  1.00  0.00     0.034 C 
ENDBRANCH  24  25
ENDBRANCH  21  24
ENDBRANCH  16  18
ENDBRANCH  13  16
ENDBRANCH   8  13
BRANCH   1  27
HETATM   27  C   UNL     1     -44.014  61.306 -49.384  1.00  0.00     0.257 C 
HETATM   28  N   UNL     1     -44.834  60.573 -48.566  1.00  0.00    -0.357 N 
HETATM   29  H   UNL     1     -44.920  59.570 -48.739  1.00  0.00     0.162 HD
HETATM   30  O   UNL     1     -43.892  62.525 -49.295  1.00  0.00    -0.267 OA
BRANCH  28  31
HETATM   31  C   UNL     1     -45.681  61.176 -47.560  1.00  0.00     0.123 C 
BRANCH  31  32
HETATM   32  C   UNL     1     -45.131  60.997 -46.145  1.00  0.00     0.019 C 
BRANCH  32  33
HETATM   33  C   UNL     1     -45.131  62.302 -45.346  1.00  0.00    -0.003 C 
HETATM   34  C   UNL     1     -45.398  63.500 -46.243  1.00  0.00     0.005 C 
ENDBRANCH  32  33
ENDBRANCH  31  32
ENDBRANCH  28  31
ENDBRANCH   1  27
TORSDOF 9
ENDMDL
MODEL 6
REMARK VINA RESULT:      -7.3      1.704      1.915
REMARK  9 active torsions:
REMARK  status: ('A' for Active; 'I' for Inactive)
REMARK    1  A    between atoms: C_2  and  C_3 
REMARK    2  A    between atoms: C_3  and  C_4 
REMARK    3  A    between atoms: C_4  and  N_5 
REMARK       I    between atoms: N_5  and  C_6 
REMARK    4  A    between atoms: C_6  and  C_7 
REMARK    5  A    between atoms: C_14  and  S_15 
REMARK    6  A    between atoms: S_15  and  N_16 
REMARK    7  A    between atoms: N_16  and  C_17 
REMARK    8  A    between atoms: C_20  and  O_21 
REMARK    9  A    between atoms: O_21  and  C_22 
ROOT
HETATM    1  C   UNL     1     -42.177  55.038 -52.325  1.00  0.00     0.098 A 
HETATM    2  C   UNL     1     -41.802  56.046 -53.357  1.00  0.00     0.201 A 
HETATM    3  O   UNL     1     -40.771  55.940 -54.019  1.00  0.00    -0.286 OA
HETATM    4  C   UNL     1     -42.711  57.204 -53.570  1.00  0.00     0.043 A 
HETATM    5  C   UNL     1     -43.884  57.296 -52.797  1.00  0.00     0.046 A 
HETATM    6  N   UNL     1     -44.158  56.322 -51.832  1.00  0.00    -0.364 N 
HETATM    7  C   UNL     1     -42.392  58.187 -54.511  1.00  0.00     0.043 A 
HETATM    8  C   UNL     1     -43.230  59.296 -54.643  1.00  0.00     0.081 A 
HETATM    9  C   UNL     1     -44.401  59.401 -53.883  1.00  0.00     0.027 A 
HETATM   10  C   UNL     1     -44.722  58.403 -52.960  1.00  0.00     0.032 A 
HETATM   11  C   UNL     1     -43.325  55.249 -51.658  1.00  0.00     0.109 A 
HETATM   12  H   UNL     1     -45.067  56.308 -51.378  1.00  0.00     0.165 HD
ENDROOT
BRANCH   8  13
HETATM   13  S   UNL     1     -42.826  60.577 -55.814  1.00  0.00     0.263 S 
HETATM   14  O   UNL     1     -43.126  61.850 -55.197  1.00  0.00    -0.200 OA
HETATM   15  O   UNL     1     -41.504  60.285 -56.329  1.00  0.00    -0.200 OA
BRANCH  13  16
HETATM   16  N   UNL     1     -43.895  60.279 -57.087  1.00  0.00    -0.281 N 
HETATM   17  H   UNL     1     -44.211  61.134 -57.540  1.00  0.00     0.179 HD
BRANCH  16  18
HETATM   18  C   UNL     1     -43.722  59.118 -57.888  1.00  0.00     0.042 A 
HETATM   19  C   UNL     1     -44.156  57.876 -57.434  1.00  0.00     0.033 A 
HETATM   20  C   UNL     1     -43.931  56.737 -58.209  1.00  0.00     0.039 A 
HETATM   21  C   UNL     1     -43.264  56.828 -59.433  1.00  0.00     0.068 A 
HETATM   22  C   UNL     1     -42.833  58.076 -59.885  1.00  0.00     0.039 A 
HETATM   23  C   UNL     1     -43.064  59.221 -59.114  1.00  0.00     0.033 A 
BRANCH  21  24
HETATM   24  O   UNL     1     -43.108  55.636 -60.083  1.00  0.00    -0.352 OA
BRANCH  24  25
HETATM   25  C   UNL     1     -44.229  54.754 -60.109  1.00  0.00     0.171 C 
HETATM   26  C   UNL     1     -45.140  55.191 -61.243  1.00  0.00     0.034 C 
ENDBRANCH  24  25
ENDBRANCH  21  24
ENDBRANCH  16  18
ENDBRANCH  13  16
ENDBRANCH   8  13
BRANCH   1  27
HETATM   27  C   UNL     1     -41.371  53.830 -51.986  1.00  0.00     0.257 C 
HETATM   28  N   UNL     1     -40.706  53.258 -53.038  1.00  0.00    -0.357 N 
HETATM   29  H   UNL     1     -40.847  53.648 -53.972  1.00  0.00     0.162 HD
HETATM   30  O   UNL     1     -41.314  53.396 -50.838  1.00  0.00    -0.267 OA
BRANCH  28  31
HETATM   31  C   UNL     1     -39.920  52.050 -52.906  1.00  0.00     0.123 C 
BRANCH  31  32
HETATM   32  C   UNL     1     -40.012  51.151 -54.139  1.00  0.00     0.019 C 
BRANCH  32  33
HETATM   33  C   UNL     1     -39.570  49.714 -53.851  1.00  0.00    -0.003 C 
HETATM   34  C   UNL     1     -39.659  49.394 -52.368  1.00  0.00     0.005 C 
ENDBRANCH  32  33
ENDBRANCH  31  32
ENDBRANCH  28  31
ENDBRANCH   1  27
TORSDOF 9
ENDMDL
MODEL 7
REMARK VINA RESULT:      -7.2     16.149     19.894
REMARK  9 active torsions:
REMARK  status: ('A' for Active; 'I' for Inactive)
REMARK    1  A    between atoms: C_2  and  C_3 
REMARK    2  A    between atoms: C_3  and  C_4 
REMARK    3  A    between atoms: C_4  and  N_5 
REMARK       I    between atoms: N_5  and  C_6 
REMARK    4  A    between atoms: C_6  and  C_7 
REMARK    5  A    between atoms: C_14  and  S_15 
REMARK    6  A    between atoms: S_15  and  N_16 
REMARK    7  A    between atoms: N_16  and  C_17 
REMARK    8  A    between atoms: C_20  and  O_21 
REMARK    9  A    between atoms: O_21  and  C_22 
ROOT
HETATM    1  C   UNL     1     -37.793  39.671 -59.576  1.00  0.00     0.098 A 
HETATM    2  C   UNL     1     -37.576  39.420 -58.122  1.00  0.00     0.201 A 
HETATM    3  O   UNL     1     -37.986  38.399 -57.575  1.00  0.00    -0.286 OA
HETATM    4  C   UNL     1     -36.846  40.450 -57.335  1.00  0.00     0.043 A 
HETATM    5  C   UNL     1     -36.387  41.607 -57.992  1.00  0.00     0.046 A 
HETATM    6  N   UNL     1     -36.648  41.782 -59.355  1.00  0.00    -0.364 N 
HETATM    7  C   UNL     1     -36.636  40.271 -55.964  1.00  0.00     0.043 A 
HETATM    8  C   UNL     1     -36.006  41.283 -55.238  1.00  0.00     0.081 A 
HETATM    9  C   UNL     1     -35.543  42.440 -55.877  1.00  0.00     0.027 A 
HETATM   10  C   UNL     1     -35.739  42.599 -57.251  1.00  0.00     0.032 A 
HETATM   11  C   UNL     1     -37.303  40.818 -60.075  1.00  0.00     0.109 A 
HETATM   12  H   UNL     1     -36.197  42.540 -59.858  1.00  0.00     0.165 HD
ENDROOT
BRANCH   8  13
HETATM   13  S   UNL     1     -35.757  41.091 -53.484  1.00  0.00     0.263 S 
HETATM   14  O   UNL     1     -36.391  42.210 -52.822  1.00  0.00    -0.200 OA
HETATM   15  O   UNL     1     -36.105  39.725 -53.150  1.00  0.00    -0.200 OA
BRANCH  13  16
HETATM   16  N   UNL     1     -34.079  41.193 -53.325  1.00  0.00    -0.281 N 
HETATM   17  H   UNL     1     -33.712  42.095 -53.622  1.00  0.00     0.179 HD
BRANCH  16  18
HETATM   18  C   UNL     1     -33.438  40.530 -52.245  1.00  0.00     0.042 A 
HETATM   19  C   UNL     1     -33.635  40.957 -50.935  1.00  0.00     0.033 A 
HETATM   20  C   UNL     1     -32.956  40.329 -49.890  1.00  0.00     0.039 A 
HETATM   21  C   UNL     1     -32.069  39.280 -50.145  1.00  0.00     0.068 A 
HETATM   22  C   UNL     1     -31.875  38.854 -51.459  1.00  0.00     0.039 A 
HETATM   23  C   UNL     1     -32.561  39.477 -52.509  1.00  0.00     0.033 A 
BRANCH  21  24
HETATM   24  O   UNL     1     -31.470  38.761 -49.032  1.00  0.00    -0.352 OA
BRANCH  24  25
HETATM   25  C   UNL     1     -31.396  39.599 -47.879  1.00  0.00     0.171 C 
HETATM   26  C   UNL     1     -30.938  38.745 -46.711  1.00  0.00     0.034 C 
ENDBRANCH  24  25
ENDBRANCH  21  24
ENDBRANCH  16  18
ENDBRANCH  13  16
ENDBRANCH   8  13
BRANCH   1  27
HETATM   27  C   UNL     1     -38.511  38.745 -60.499  1.00  0.00     0.257 C 
HETATM   28  N   UNL     1     -39.478  37.971 -59.913  1.00  0.00    -0.357 N 
HETATM   29  H   UNL     1     -39.602  38.032 -58.901  1.00  0.00     0.162 HD
HETATM   30  O   UNL     1     -38.246  38.698 -61.697  1.00  0.00    -0.267 OA
BRANCH  28  31
HETATM   31  C   UNL     1     -40.238  36.980 -60.643  1.00  0.00     0.123 C 
BRANCH  31  32
HETATM   32  C   UNL     1     -41.722  37.333 -60.745  1.00  0.00     0.019 C 
BRANCH  32  33
HETATM   33  C   UNL     1     -42.027  38.251 -61.931  1.00  0.00    -0.003 C 
HETATM   34  C   UNL     1     -41.276  37.812 -63.177  1.00  0.00     0.005 C 
ENDBRANCH  32  33
ENDBRANCH  31  32
ENDBRANCH  28  31
ENDBRANCH   1  27
TORSDOF 9
ENDMDL
MODEL 8
REMARK VINA RESULT:      -7.1      2.271      8.863
REMARK  9 active torsions:
REMARK  status: ('A' for Active; 'I' for Inactive)
REMARK    1  A    between atoms: C_2  and  C_3 
REMARK    2  A    between atoms: C_3  and  C_4 
REMARK    3  A    between atoms: C_4  and  N_5 
REMARK       I    between atoms: N_5  and  C_6 
REMARK    4  A    between atoms: C_6  and  C_7 
REMARK    5  A    between atoms: C_14  and  S_15 
REMARK    6  A    between atoms: S_15  and  N_16 
REMARK    7  A    between atoms: N_16  and  C_17 
REMARK    8  A    between atoms: C_20  and  O_21 
REMARK    9  A    between atoms: O_21  and  C_22 
ROOT
HETATM    1  C   UNL     1     -43.892  57.173 -57.838  1.00  0.00     0.098 A 
HETATM    2  C   UNL     1     -43.932  57.835 -56.503  1.00  0.00     0.201 A 
HETATM    3  O   UNL     1     -44.711  58.754 -56.261  1.00  0.00    -0.286 OA
HETATM    4  C   UNL     1     -42.991  57.357 -55.455  1.00  0.00     0.043 A 
HETATM    5  C   UNL     1     -42.112  56.301 -55.763  1.00  0.00     0.046 A 
HETATM    6  N   UNL     1     -42.118  55.744 -57.046  1.00  0.00    -0.364 N 
HETATM    7  C   UNL     1     -42.975  57.959 -54.194  1.00  0.00     0.043 A 
HETATM    8  C   UNL     1     -42.037  57.533 -53.252  1.00  0.00     0.081 A 
HETATM    9  C   UNL     1     -41.157  56.484 -53.543  1.00  0.00     0.027 A 
HETATM   10  C   UNL     1     -41.195  55.874 -54.799  1.00  0.00     0.032 A 
HETATM   11  C   UNL     1     -43.003  56.178 -57.998  1.00  0.00     0.109 A 
HETATM   12  H   UNL     1     -41.592  54.894 -57.226  1.00  0.00     0.165 HD
ENDROOT
BRANCH   8  13
HETATM   13  S   UNL     1     -41.977  58.309 -51.649  1.00  0.00     0.263 S 
HETATM   14  O   UNL     1     -40.586  58.478 -51.291  1.00  0.00    -0.200 OA
HETATM   15  O   UNL     1     -42.885  59.437 -51.685  1.00  0.00    -0.200 OA
BRANCH  13  16
HETATM   16  N   UNL     1     -42.703  57.162 -50.644  1.00  0.00    -0.281 N 
HETATM   17  H   UNL     1     -43.719  57.228 -50.645  1.00  0.00     0.179 HD
BRANCH  16  18
HETATM   18  C   UNL     1     -42.113  55.877 -50.510  1.00  0.00     0.042 A 
HETATM   19  C   UNL     1     -40.914  55.718 -49.822  1.00  0.00     0.033 A 
HETATM   20  C   UNL     1     -40.319  54.457 -49.744  1.00  0.00     0.039 A 
HETATM   21  C   UNL     1     -40.910  53.352 -50.362  1.00  0.00     0.068 A 
HETATM   22  C   UNL     1     -42.113  53.516 -51.050  1.00  0.00     0.039 A 
HETATM   23  C   UNL     1     -42.716  54.777 -51.122  1.00  0.00     0.033 A 
BRANCH  21  24
HETATM   24  O   UNL     1     -40.219  52.183 -50.212  1.00  0.00    -0.352 OA
BRANCH  24  25
HETATM   25  C   UNL     1     -39.819  51.503 -51.400  1.00  0.00     0.171 C 
HETATM   26  C   UNL     1     -39.537  50.056 -51.037  1.00  0.00     0.034 C 
ENDBRANCH  24  25
ENDBRANCH  21  24
ENDBRANCH  16  18
ENDBRANCH  13  16
ENDBRANCH   8  13
BRANCH   1  27
HETATM   27  C   UNL     1     -44.760  57.541 -58.994  1.00  0.00     0.257 C 
HETATM   28  N   UNL     1     -46.099  57.313 -58.815  1.00  0.00    -0.357 N 
HETATM   29  H   UNL     1     -46.403  56.863 -57.949  1.00  0.00     0.162 HD
HETATM   30  O   UNL     1     -44.291  58.020 -60.024  1.00  0.00    -0.267 OA
BRANCH  28  31
HETATM   31  C   UNL     1     -47.082  57.558 -59.847  1.00  0.00     0.123 C 
BRANCH  31  32
HETATM   32  C   UNL     1     -47.326  56.334 -60.730  1.00  0.00     0.019 C 
BRANCH  32  33
HETATM   33  C   UNL     1     -48.161  56.663 -61.970  1.00  0.00    -0.003 C 
HETATM   34  C   UNL     1     -48.496  58.143 -62.036  1.00  0.00     0.005 C 
ENDBRANCH  32  33
ENDBRANCH  31  32
ENDBRANCH  28  31
ENDBRANCH   1  27
TORSDOF 9
ENDMDL
MODEL 9
REMARK VINA RESULT:      -7.1      3.368      9.611
REMARK  9 active torsions:
REMARK  status: ('A' for Active; 'I' for Inactive)
REMARK    1  A    between atoms: C_2  and  C_3 
REMARK    2  A    between atoms: C_3  and  C_4 
REMARK    3  A    between atoms: C_4  and  N_5 
REMARK       I    between atoms: N_5  and  C_6 
REMARK    4  A    between atoms: C_6  and  C_7 
REMARK    5  A    between atoms: C_14  and  S_15 
REMARK    6  A    between atoms: S_15  and  N_16 
REMARK    7  A    between atoms: N_16  and  C_17 
REMARK    8  A    between atoms: C_20  and  O_21 
REMARK    9  A    between atoms: O_21  and  C_22 
ROOT
HETATM    1  C   UNL     1     -42.119  59.579 -59.944  1.00  0.00     0.098 A 
HETATM    2  C   UNL     1     -42.050  59.492 -58.458  1.00  0.00     0.201 A 
HETATM    3  O   UNL     1     -41.733  60.459 -57.768  1.00  0.00    -0.286 OA
HETATM    4  C   UNL     1     -42.372  58.189 -57.815  1.00  0.00     0.043 A 
HETATM    5  C   UNL     1     -42.734  57.102 -58.633  1.00  0.00     0.046 A 
HETATM    6  N   UNL     1     -42.756  57.254 -60.023  1.00  0.00    -0.364 N 
HETATM    7  C   UNL     1     -42.301  58.052 -56.426  1.00  0.00     0.043 A 
HETATM    8  C   UNL     1     -42.545  56.801 -55.856  1.00  0.00     0.081 A 
HETATM    9  C   UNL     1     -42.907  55.709 -56.656  1.00  0.00     0.027 A 
HETATM   10  C   UNL     1     -42.996  55.863 -58.042  1.00  0.00     0.032 A 
HETATM   11  C   UNL     1     -42.477  58.464 -60.603  1.00  0.00     0.109 A 
HETATM   12  H   UNL     1     -43.152  56.520 -60.602  1.00  0.00     0.165 HD
ENDROOT
BRANCH   8  13
HETATM   13  S   UNL     1     -42.429  56.594 -54.091  1.00  0.00     0.263 S 
HETATM   14  O   UNL     1     -41.048  56.800 -53.712  1.00  0.00    -0.200 OA
HETATM   15  O   UNL     1     -43.494  57.374 -53.497  1.00  0.00    -0.200 OA
BRANCH  13  16
HETATM   16  N   UNL     1     -42.859  54.976 -53.867  1.00  0.00    -0.281 N 
HETATM   17  H   UNL     1     -43.602  54.679 -54.496  1.00  0.00     0.179 HD
BRANCH  16  18
HETATM   18  C   UNL     1     -41.861  54.030 -53.511  1.00  0.00     0.042 A 
HETATM   19  C   UNL     1     -41.246  53.251 -54.487  1.00  0.00     0.033 A 
HETATM   20  C   UNL     1     -40.305  52.289 -54.115  1.00  0.00     0.039 A 
HETATM   21  C   UNL     1     -39.981  52.090 -52.770  1.00  0.00     0.068 A 
HETATM   22  C   UNL     1     -40.600  52.874 -51.796  1.00  0.00     0.039 A 
HETATM   23  C   UNL     1     -41.537  53.846 -52.166  1.00  0.00     0.033 A 
BRANCH  21  24
HETATM   24  O   UNL     1     -39.052  51.114 -52.550  1.00  0.00    -0.352 OA
BRANCH  24  25
HETATM   25  C   UNL     1     -39.536  49.802 -52.269  1.00  0.00     0.171 C 
HETATM   26  C   UNL     1     -39.758  49.697 -50.771  1.00  0.00     0.034 C 
ENDBRANCH  24  25
ENDBRANCH  21  24
ENDBRANCH  16  18
ENDBRANCH  13  16
ENDBRANCH   8  13
BRANCH   1  27
HETATM   27  C   UNL     1     -41.818  60.805 -60.738  1.00  0.00     0.257 C 
HETATM   28  N   UNL     1     -41.083  61.759 -60.082  1.00  0.00    -0.357 N 
HETATM   29  H   UNL     1     -40.847  61.600 -59.101  1.00  0.00     0.162 HD
HETATM   30  O   UNL     1     -42.202  60.932 -61.897  1.00  0.00    -0.267 OA
BRANCH  28  31
HETATM   31  C   UNL     1     -40.744  63.033 -60.677  1.00  0.00     0.123 C 
BRANCH  31  32
HETATM   32  C   UNL     1     -39.641  63.764 -59.912  1.00  0.00     0.019 C 
BRANCH  32  33
HETATM   33  C   UNL     1     -38.476  64.177 -60.814  1.00  0.00    -0.003 C 
HETATM   34  C   UNL     1     -38.723  63.772 -62.258  1.00  0.00     0.005 C 
ENDBRANCH  32  33
ENDBRANCH  31  32
ENDBRANCH  28  31
ENDBRANCH   1  27
TORSDOF 9
ENDMDL
MODEL 10
REMARK VINA RESULT:      -7.0      3.973      5.748
REMARK  9 active torsions:
REMARK  status: ('A' for Active; 'I' for Inactive)
REMARK    1  A    between atoms: C_2  and  C_3 
REMARK    2  A    between atoms: C_3  and  C_4 
REMARK    3  A    between atoms: C_4  and  N_5 
REMARK       I    between atoms: N_5  and  C_6 
REMARK    4  A    between atoms: C_6  and  C_7 
REMARK    5  A    between atoms: C_14  and  S_15 
REMARK    6  A    between atoms: S_15  and  N_16 
REMARK    7  A    between atoms: N_16  and  C_17 
REMARK    8  A    between atoms: C_20  and  O_21 
REMARK    9  A    between atoms: O_21  and  C_22 
ROOT
HETATM    1  C   UNL     1     -40.611  53.607 -50.446  1.00  0.00     0.098 A 
HETATM    2  C   UNL     1     -41.066  54.183 -51.744  1.00  0.00     0.201 A 
HETATM    3  O   UNL     1     -41.304  53.472 -52.718  1.00  0.00    -0.286 OA
HETATM    4  C   UNL     1     -41.224  55.659 -51.839  1.00  0.00     0.043 A 
HETATM    5  C   UNL     1     -40.946  56.446 -50.706  1.00  0.00     0.046 A 
HETATM    6  N   UNL     1     -40.501  55.835 -49.528  1.00  0.00    -0.364 N 
HETATM    7  C   UNL     1     -41.629  56.248 -53.041  1.00  0.00     0.043 A 
HETATM    8  C   UNL     1     -41.705  57.640 -53.120  1.00  0.00     0.081 A 
HETATM    9  C   UNL     1     -41.432  58.436 -52.001  1.00  0.00     0.027 A 
HETATM   10  C   UNL     1     -41.050  57.836 -50.798  1.00  0.00     0.032 A 
HETATM   11  C   UNL     1     -40.379  54.473 -49.445  1.00  0.00     0.109 A 
HETATM   12  H   UNL     1     -40.439  56.380 -48.673  1.00  0.00     0.165 HD
ENDROOT
BRANCH   8  13
HETATM   13  S   UNL     1     -42.187  58.415 -54.651  1.00  0.00     0.263 S 
HETATM   14  O   UNL     1     -41.494  59.681 -54.743  1.00  0.00    -0.200 OA
HETATM   15  O   UNL     1     -42.067  57.416 -55.692  1.00  0.00    -0.200 OA
BRANCH  13  16
HETATM   16  N   UNL     1     -43.843  58.670 -54.443  1.00  0.00    -0.281 N 
HETATM   17  H   UNL     1     -44.410  58.046 -55.013  1.00  0.00     0.179 HD
BRANCH  16  18
HETATM   18  C   UNL     1     -44.337  59.048 -53.165  1.00  0.00     0.042 A 
HETATM   19  C   UNL     1     -44.897  58.099 -52.315  1.00  0.00     0.033 A 
HETATM   20  C   UNL     1     -45.426  58.495 -51.086  1.00  0.00     0.039 A 
HETATM   21  C   UNL     1     -45.411  59.838 -50.702  1.00  0.00     0.068 A 
HETATM   22  C   UNL     1     -44.848  60.786 -51.557  1.00  0.00     0.039 A 
HETATM   23  C   UNL     1     -44.309  60.391 -52.788  1.00  0.00     0.033 A 
BRANCH  21  24
HETATM   24  O   UNL     1     -45.966  60.085 -49.479  1.00  0.00    -0.352 OA
BRANCH  24  25
HETATM   25  C   UNL     1     -45.363  61.101 -48.679  1.00  0.00     0.171 C 
HETATM   26  C   UNL     1     -46.397  62.188 -48.449  1.00  0.00     0.034 C 
ENDBRANCH  24  25
ENDBRANCH  21  24
ENDBRANCH  16  18
ENDBRANCH  13  16
ENDBRANCH   8  13
BRANCH   1  27
HETATM   27  C   UNL     1     -40.395  52.154 -50.192  1.00  0.00     0.257 C 
HETATM   28  N   UNL     1     -39.816  51.460 -51.222  1.00  0.00    -0.357 N 
HETATM   29  H   UNL     1     -39.629  51.956 -52.096  1.00  0.00     0.162 HD
HETATM   30  O   UNL     1     -40.713  51.633 -49.126  1.00  0.00    -0.267 OA
BRANCH  28  31
HETATM   31  C   UNL     1     -39.581  50.034 -51.173  1.00  0.00     0.123 C 
BRANCH  31  32
HETATM   32  C   UNL     1     -39.533  49.397 -52.562  1.00  0.00     0.019 C 
BRANCH  32  33
HETATM   33  C   UNL     1     -39.644  50.430 -53.685  1.00  0.00    -0.003 C 
HETATM   34  C   UNL     1     -39.876  49.763 -55.031  1.00  0.00     0.005 C 
ENDBRANCH  32  33
ENDBRANCH  31  32
ENDBRANCH  28  31
ENDBRANCH   1  27
TORSDOF 9
ENDMDL
