MODEL 1
REMARK VINA RESULT:      -6.7      0.000      0.000
REMARK  5 active torsions:
REMARK  status: ('A' for Active; 'I' for Inactive)
REMARK    1  A    between atoms: C_2  and  O_3 
REMARK    2  A    between atoms: C_4  and  C_5 
REMARK    3  A    between atoms: C_5  and  O_6 
REMARK    4  A    between atoms: C_9  and  C_10 
REMARK    5  A    between atoms: C_22  and  O_23 
ROOT
HETATM    1  C   UNL     1     -42.588  57.024 -56.964  1.00  0.00     0.047 C 
HETATM    2  C   UNL     1     -43.334  57.048 -55.622  1.00  0.00     0.073 C 
HETATM    3  C   UNL     1     -43.009  55.818 -54.702  1.00  0.00     0.133 C 
HETATM    4  C   UNL     1     -43.562  55.892 -53.237  1.00  0.00     0.074 C 
HETATM    5  C   UNL     1     -44.017  57.263 -52.854  1.00  0.00     0.030 A 
HETATM    6  C   UNL     1     -43.787  58.390 -53.609  1.00  0.00     0.042 A 
HETATM    7  N   UNL     1     -44.368  59.438 -52.956  1.00  0.00    -0.279 N 
HETATM    8  H   UNL     1     -44.395  60.418 -53.220  1.00  0.00     0.189 HD
HETATM    9  N   UNL     1     -45.028  59.052 -51.843  1.00  0.00    -0.149 NA
HETATM   10  C   UNL     1     -44.802  57.745 -51.806  1.00  0.00     0.190 A 
HETATM   11  C   UNL     1     -43.108  58.423 -54.928  1.00  0.00     0.097 C 
ENDROOT
BRANCH   4  12
HETATM   12  C   UNL     1     -42.616  55.457 -52.120  1.00  0.00    -0.048 A 
HETATM   13  C   UNL     1     -41.856  56.379 -51.371  1.00  0.00     0.009 A 
HETATM   14  C   UNL     1     -40.979  55.950 -50.373  1.00  0.00     0.024 A 
HETATM   15  C   UNL     1     -40.849  54.591 -50.108  1.00  0.00     0.034 A 
HETATM   16 CL   UNL     1     -39.767  54.060 -48.882  1.00  0.00    -0.084 Cl
HETATM   17  C   UNL     1     -41.587  53.659 -50.834  1.00  0.00     0.024 A 
HETATM   18  C   UNL     1     -42.464  54.090 -51.836  1.00  0.00     0.009 A 
ENDBRANCH   4  12
BRANCH   3  19
HETATM   19  C   UNL     1     -41.535  55.467 -54.743  1.00  0.00     0.266 C 
HETATM   20  O   UNL     1     -40.627  56.199 -54.372  1.00  0.00    -0.265 OA
BRANCH  19  21
HETATM   21  O   UNL     1     -41.374  54.210 -55.248  1.00  0.00    -0.326 OA
HETATM   22  C   UNL     1     -40.224  53.518 -54.762  1.00  0.00     0.213 C 
ENDBRANCH  19  21
ENDBRANCH   3  19
BRANCH   2  23
HETATM   23  O   UNL     1     -44.730  56.947 -56.003  1.00  0.00    -0.389 OA
HETATM   24  H   UNL     1     -44.870  57.474 -56.811  1.00  0.00     0.210 HD
ENDBRANCH   2  23
BRANCH  10  25
HETATM   25  O   UNL     1     -45.385  57.090 -50.807  1.00  0.00    -0.343 OA
HETATM   26  H   UNL     1     -44.653  56.841 -50.217  1.00  0.00     0.219 HD
ENDBRANCH  10  25
TORSDOF 5
ENDMDL
MODEL 2
REMARK VINA RESULT:      -6.4      2.528      4.339
REMARK  5 active torsions:
REMARK  status: ('A' for Active; 'I' for Inactive)
REMARK    1  A    between atoms: C_2  and  O_3 
REMARK    2  A    between atoms: C_4  and  C_5 
REMARK    3  A    between atoms: C_5  and  O_6 
REMARK    4  A    between atoms: C_9  and  C_10 
REMARK    5  A    between atoms: C_22  and  O_23 
ROOT
HETATM    1  C   UNL     1     -43.878  59.258 -51.983  1.00  0.00     0.047 C 
HETATM    2  C   UNL     1     -43.462  58.757 -53.373  1.00  0.00     0.073 C 
HETATM    3  C   UNL     1     -42.244  57.767 -53.343  1.00  0.00     0.133 C 
HETATM    4  C   UNL     1     -41.911  57.049 -54.697  1.00  0.00     0.074 C 
HETATM    5  C   UNL     1     -43.008  57.166 -55.704  1.00  0.00     0.030 A 
HETATM    6  C   UNL     1     -44.262  57.657 -55.424  1.00  0.00     0.042 A 
HETATM    7  N   UNL     1     -44.974  57.633 -56.589  1.00  0.00    -0.279 N 
HETATM    8  H   UNL     1     -45.934  57.919 -56.756  1.00  0.00     0.189 HD
HETATM    9  N   UNL     1     -44.234  57.214 -57.638  1.00  0.00    -0.149 NA
HETATM   10  C   UNL     1     -43.061  56.941 -57.081  1.00  0.00     0.190 A 
HETATM   11  C   UNL     1     -44.709  58.191 -54.114  1.00  0.00     0.097 C 
ENDROOT
BRANCH   4  12
HETATM   12  C   UNL     1     -41.590  55.558 -54.625  1.00  0.00    -0.048 A 
HETATM   13  C   UNL     1     -42.587  54.577 -54.444  1.00  0.00     0.009 A 
HETATM   14  C   UNL     1     -42.260  53.223 -54.356  1.00  0.00     0.024 A 
HETATM   15  C   UNL     1     -40.930  52.827 -54.449  1.00  0.00     0.034 A 
HETATM   16 CL   UNL     1     -40.525  51.160 -54.337  1.00  0.00    -0.084 Cl
HETATM   17  C   UNL     1     -39.925  53.775 -54.627  1.00  0.00     0.024 A 
HETATM   18  C   UNL     1     -40.253  55.133 -54.713  1.00  0.00     0.009 A 
ENDBRANCH   4  12
BRANCH   3  19
HETATM   19  C   UNL     1     -42.347  56.793 -52.186  1.00  0.00     0.266 C 
HETATM   20  O   UNL     1     -43.349  56.160 -51.887  1.00  0.00    -0.265 OA
BRANCH  19  21
HETATM   21  O   UNL     1     -41.150  56.724 -51.535  1.00  0.00    -0.326 OA
HETATM   22  C   UNL     1     -40.985  55.564 -50.719  1.00  0.00     0.213 C 
ENDBRANCH  19  21
ENDBRANCH   3  19
BRANCH   2  23
HETATM   23  O   UNL     1     -43.026  59.960 -54.056  1.00  0.00    -0.389 OA
HETATM   24  H   UNL     1     -42.388  60.427 -53.486  1.00  0.00     0.210 HD
ENDBRANCH   2  23
BRANCH  10  25
HETATM   25  O   UNL     1     -42.109  56.538 -57.915  1.00  0.00    -0.343 OA
HETATM   26  H   UNL     1     -42.289  57.018 -58.742  1.00  0.00     0.219 HD
ENDBRANCH  10  25
TORSDOF 5
ENDMDL
MODEL 3
REMARK VINA RESULT:      -6.4      2.939      4.122
REMARK  5 active torsions:
REMARK  status: ('A' for Active; 'I' for Inactive)
REMARK    1  A    between atoms: C_2  and  O_3 
REMARK    2  A    between atoms: C_4  and  C_5 
REMARK    3  A    between atoms: C_5  and  O_6 
REMARK    4  A    between atoms: C_9  and  C_10 
REMARK    5  A    between atoms: C_22  and  O_23 
ROOT
HETATM    1  C   UNL     1     -43.728  54.696 -54.296  1.00  0.00     0.047 C 
HETATM    2  C   UNL     1     -43.532  56.217 -54.391  1.00  0.00     0.073 C 
HETATM    3  C   UNL     1     -43.161  56.887 -53.020  1.00  0.00     0.133 C 
HETATM    4  C   UNL     1     -42.732  58.393 -53.089  1.00  0.00     0.074 C 
HETATM    5  C   UNL     1     -42.422  58.849 -54.477  1.00  0.00     0.030 A 
HETATM    6  C   UNL     1     -42.310  58.005 -55.558  1.00  0.00     0.042 A 
HETATM    7  N   UNL     1     -42.047  58.782 -56.650  1.00  0.00    -0.279 N 
HETATM    8  H   UNL     1     -41.902  58.499 -57.614  1.00  0.00     0.189 HD
HETATM    9  N   UNL     1     -42.045  60.101 -56.358  1.00  0.00    -0.149 NA
HETATM   10  C   UNL     1     -42.273  60.113 -55.050  1.00  0.00     0.190 A 
HETATM   11  C   UNL     1     -42.527  56.538 -55.536  1.00  0.00     0.097 C 
ENDROOT
BRANCH   4  12
HETATM   12  C   UNL     1     -41.522  58.803 -52.252  1.00  0.00    -0.048 A 
HETATM   13  C   UNL     1     -40.203  58.735 -52.746  1.00  0.00     0.009 A 
HETATM   14  C   UNL     1     -39.114  59.092 -51.948  1.00  0.00     0.024 A 
HETATM   15  C   UNL     1     -39.328  59.525 -50.644  1.00  0.00     0.034 A 
HETATM   16 CL   UNL     1     -37.988  59.962 -49.659  1.00  0.00    -0.084 Cl
HETATM   17  C   UNL     1     -40.620  59.602 -50.131  1.00  0.00     0.024 A 
HETATM   18  C   UNL     1     -41.711  59.241 -50.930  1.00  0.00     0.009 A 
ENDBRANCH   4  12
BRANCH   3  19
HETATM   19  C   UNL     1     -42.175  56.043 -52.237  1.00  0.00     0.266 C 
HETATM   20  O   UNL     1     -41.108  55.627 -52.667  1.00  0.00    -0.265 OA
BRANCH  19  21
HETATM   21  O   UNL     1     -42.654  55.825 -50.979  1.00  0.00    -0.326 OA
HETATM   22  C   UNL     1     -41.647  55.680 -49.977  1.00  0.00     0.213 C 
ENDBRANCH  19  21
ENDBRANCH   3  19
BRANCH   2  23
HETATM   23  O   UNL     1     -44.841  56.709 -54.774  1.00  0.00    -0.389 OA
HETATM   24  H   UNL     1     -45.512  56.271 -54.220  1.00  0.00     0.210 HD
ENDBRANCH   2  23
BRANCH  10  25
HETATM   25  O   UNL     1     -42.364  61.317 -54.496  1.00  0.00    -0.343 OA
HETATM   26  H   UNL     1     -41.504  61.451 -54.061  1.00  0.00     0.219 HD
ENDBRANCH  10  25
TORSDOF 5
ENDMDL
MODEL 4
REMARK VINA RESULT:      -6.3     16.662     18.589
REMARK  5 active torsions:
REMARK  status: ('A' for Active; 'I' for Inactive)
REMARK    1  A    between atoms: C_2  and  O_3 
REMARK    2  A    between atoms: C_4  and  C_5 
REMARK    3  A    between atoms: C_5  and  O_6 
REMARK    4  A    between atoms: C_9  and  C_10 
REMARK    5  A    between atoms: C_22  and  O_23 
ROOT
HETATM    1  C   UNL     1     -34.915  41.141 -50.631  1.00  0.00     0.047 C 
HETATM    2  C   UNL     1     -34.557  40.292 -51.860  1.00  0.00     0.073 C 
HETATM    3  C   UNL     1     -35.685  40.266 -52.952  1.00  0.00     0.133 C 
HETATM    4  C   UNL     1     -35.298  39.604 -54.321  1.00  0.00     0.074 C 
HETATM    5  C   UNL     1     -33.825  39.412 -54.479  1.00  0.00     0.030 A 
HETATM    6  C   UNL     1     -32.882  39.942 -53.629  1.00  0.00     0.042 A 
HETATM    7  N   UNL     1     -31.660  39.534 -54.077  1.00  0.00    -0.279 N 
HETATM    8  H   UNL     1     -30.740  39.737 -53.697  1.00  0.00     0.189 HD
HETATM    9  N   UNL     1     -31.749  38.706 -55.141  1.00  0.00    -0.149 NA
HETATM   10  C   UNL     1     -33.057  38.649 -55.360  1.00  0.00     0.190 A 
HETATM   11  C   UNL     1     -33.168  40.734 -52.407  1.00  0.00     0.097 C 
ENDROOT
BRANCH   4  12
HETATM   12  C   UNL     1     -35.747  40.329 -55.587  1.00  0.00    -0.048 A 
HETATM   13  C   UNL     1     -34.960  41.320 -56.210  1.00  0.00     0.009 A 
HETATM   14  C   UNL     1     -35.408  41.984 -57.354  1.00  0.00     0.024 A 
HETATM   15  C   UNL     1     -36.650  41.667 -57.893  1.00  0.00     0.034 A 
HETATM   16 CL   UNL     1     -37.205  42.487 -59.299  1.00  0.00    -0.084 Cl
HETATM   17  C   UNL     1     -37.447  40.693 -57.297  1.00  0.00     0.024 A 
HETATM   18  C   UNL     1     -36.999  40.029 -56.150  1.00  0.00     0.009 A 
ENDBRANCH   4  12
BRANCH   3  19
HETATM   19  C   UNL     1     -36.318  41.631 -53.133  1.00  0.00     0.266 C 
HETATM   20  O   UNL     1     -35.703  42.674 -53.307  1.00  0.00    -0.265 OA
BRANCH  19  21
HETATM   21  O   UNL     1     -37.676  41.519 -53.079  1.00  0.00    -0.326 OA
HETATM   22  C   UNL     1     -38.152  40.453 -52.257  1.00  0.00     0.213 C 
ENDBRANCH  19  21
ENDBRANCH   3  19
BRANCH   2  23
HETATM   23  O   UNL     1     -34.437  38.949 -51.328  1.00  0.00    -0.389 OA
HETATM   24  H   UNL     1     -35.302  38.680 -50.966  1.00  0.00     0.210 HD
ENDBRANCH   2  23
BRANCH  10  25
HETATM   25  O   UNL     1     -33.437  37.851 -56.351  1.00  0.00    -0.343 OA
HETATM   26  H   UNL     1     -32.710  37.211 -56.443  1.00  0.00     0.219 HD
ENDBRANCH  10  25
TORSDOF 5
ENDMDL
MODEL 5
REMARK VINA RESULT:      -6.3      2.332      2.932
REMARK  5 active torsions:
REMARK  status: ('A' for Active; 'I' for Inactive)
REMARK    1  A    between atoms: C_2  and  O_3 
REMARK    2  A    between atoms: C_4  and  C_5 
REMARK    3  A    between atoms: C_5  and  O_6 
REMARK    4  A    between atoms: C_9  and  C_10 
REMARK    5  A    between atoms: C_22  and  O_23 
ROOT
HETATM    1  C   UNL     1     -42.817  53.856 -55.442  1.00  0.00     0.047 C 
HETATM    2  C   UNL     1     -43.407  55.071 -54.711  1.00  0.00     0.073 C 
HETATM    3  C   UNL     1     -42.704  55.379 -53.341  1.00  0.00     0.133 C 
HETATM    4  C   UNL     1     -43.107  56.730 -52.654  1.00  0.00     0.074 C 
HETATM    5  C   UNL     1     -43.835  57.657 -53.571  1.00  0.00     0.030 A 
HETATM    6  C   UNL     1     -43.961  57.458 -54.927  1.00  0.00     0.042 A 
HETATM    7  N   UNL     1     -44.707  58.491 -55.418  1.00  0.00    -0.279 N 
HETATM    8  H   UNL     1     -44.995  58.671 -56.375  1.00  0.00     0.189 HD
HETATM    9  N   UNL     1     -45.137  59.325 -54.447  1.00  0.00    -0.149 NA
HETATM   10  C   UNL     1     -44.602  58.802 -53.351  1.00  0.00     0.190 A 
HETATM   11  C   UNL     1     -43.448  56.288 -55.680  1.00  0.00     0.097 C 
ENDROOT
BRANCH   4  12
HETATM   12  C   UNL     1     -41.975  57.564 -52.057  1.00  0.00    -0.048 A 
HETATM   13  C   UNL     1     -41.183  58.432 -52.837  1.00  0.00     0.009 A 
HETATM   14  C   UNL     1     -40.138  59.162 -52.268  1.00  0.00     0.024 A 
HETATM   15  C   UNL     1     -39.869  59.037 -50.910  1.00  0.00     0.034 A 
HETATM   16 CL   UNL     1     -38.580  59.933 -50.208  1.00  0.00    -0.084 Cl
HETATM   17  C   UNL     1     -40.635  58.186 -50.117  1.00  0.00     0.024 A 
HETATM   18  C   UNL     1     -41.681  57.452 -50.688  1.00  0.00     0.009 A 
ENDBRANCH   4  12
BRANCH   3  19
HETATM   19  C   UNL     1     -41.201  55.209 -53.436  1.00  0.00     0.266 C 
HETATM   20  O   UNL     1     -40.495  55.672 -54.321  1.00  0.00    -0.265 OA
BRANCH  19  21
HETATM   21  O   UNL     1     -40.754  54.468 -52.382  1.00  0.00    -0.326 OA
HETATM   22  C   UNL     1     -40.472  53.103 -52.693  1.00  0.00     0.213 C 
ENDBRANCH  19  21
ENDBRANCH   3  19
BRANCH   2  23
HETATM   23  O   UNL     1     -44.769  54.668 -54.418  1.00  0.00    -0.389 OA
HETATM   24  H   UNL     1     -45.164  55.323 -53.814  1.00  0.00     0.210 HD
ENDBRANCH   2  23
BRANCH  10  25
HETATM   25  O   UNL     1     -44.906  59.418 -52.214  1.00  0.00    -0.343 OA
HETATM   26  H   UNL     1     -45.868  59.556 -52.260  1.00  0.00     0.219 HD
ENDBRANCH  10  25
TORSDOF 5
ENDMDL
MODEL 6
REMARK VINA RESULT:      -6.2      2.813      4.725
REMARK  5 active torsions:
REMARK  status: ('A' for Active; 'I' for Inactive)
REMARK    1  A    between atoms: C_2  and  O_3 
REMARK    2  A    between atoms: C_4  and  C_5 
REMARK    3  A    between atoms: C_5  and  O_6 
REMARK    4  A    between atoms: C_9  and  C_10 
REMARK    5  A    between atoms: C_22  and  O_23 
ROOT
HETATM    1  C   UNL     1     -40.324  53.514 -52.468  1.00  0.00     0.047 C 
HETATM    2  C   UNL     1     -41.415  54.245 -53.265  1.00  0.00     0.073 C 
HETATM    3  C   UNL     1     -42.453  54.998 -52.360  1.00  0.00     0.133 C 
HETATM    4  C   UNL     1     -43.457  55.941 -53.109  1.00  0.00     0.074 C 
HETATM    5  C   UNL     1     -43.048  56.229 -54.517  1.00  0.00     0.030 A 
HETATM    6  C   UNL     1     -41.825  55.891 -55.048  1.00  0.00     0.042 A 
HETATM    7  N   UNL     1     -41.829  56.288 -56.354  1.00  0.00    -0.279 N 
HETATM    8  H   UNL     1     -41.094  56.202 -57.049  1.00  0.00     0.189 HD
HETATM    9  N   UNL     1     -43.015  56.812 -56.731  1.00  0.00    -0.149 NA
HETATM   10  C   UNL     1     -43.727  56.763 -55.612  1.00  0.00     0.190 A 
HETATM   11  C   UNL     1     -40.750  55.152 -54.341  1.00  0.00     0.097 C 
ENDROOT
BRANCH   4  12
HETATM   12  C   UNL     1     -43.718  57.308 -52.480  1.00  0.00    -0.048 A 
HETATM   13  C   UNL     1     -42.967  58.452 -52.819  1.00  0.00     0.009 A 
HETATM   14  C   UNL     1     -43.212  59.683 -52.208  1.00  0.00     0.024 A 
HETATM   15  C   UNL     1     -44.213  59.790 -51.248  1.00  0.00     0.034 A 
HETATM   16 CL   UNL     1     -44.513  61.304 -50.492  1.00  0.00    -0.084 Cl
HETATM   17  C   UNL     1     -44.968  58.675 -50.894  1.00  0.00     0.024 A 
HETATM   18  C   UNL     1     -44.721  57.441 -51.505  1.00  0.00     0.009 A 
ENDBRANCH   4  12
BRANCH   3  19
HETATM   19  C   UNL     1     -41.776  55.689 -51.194  1.00  0.00     0.266 C 
HETATM   20  O   UNL     1     -40.921  56.559 -51.291  1.00  0.00    -0.265 OA
BRANCH  19  21
HETATM   21  O   UNL     1     -42.269  55.201 -50.019  1.00  0.00    -0.326 OA
HETATM   22  C   UNL     1     -41.274  54.810 -49.074  1.00  0.00     0.213 C 
ENDBRANCH  19  21
ENDBRANCH   3  19
BRANCH   2  23
HETATM   23  O   UNL     1     -42.123  53.174 -53.939  1.00  0.00    -0.389 OA
HETATM   24  H   UNL     1     -41.693  52.328 -53.716  1.00  0.00     0.210 HD
ENDBRANCH   2  23
BRANCH  10  25
HETATM   25  O   UNL     1     -44.981  57.190 -55.712  1.00  0.00    -0.343 OA
HETATM   26  H   UNL     1     -45.352  56.689 -56.459  1.00  0.00     0.219 HD
ENDBRANCH  10  25
TORSDOF 5
ENDMDL
MODEL 7
REMARK VINA RESULT:      -6.1      3.113      5.207
REMARK  5 active torsions:
REMARK  status: ('A' for Active; 'I' for Inactive)
REMARK    1  A    between atoms: C_2  and  O_3 
REMARK    2  A    between atoms: C_4  and  C_5 
REMARK    3  A    between atoms: C_5  and  O_6 
REMARK    4  A    between atoms: C_9  and  C_10 
REMARK    5  A    between atoms: C_22  and  O_23 
ROOT
HETATM    1  C   UNL     1     -41.327  53.185 -50.286  1.00  0.00     0.047 C 
HETATM    2  C   UNL     1     -40.973  54.579 -50.824  1.00  0.00     0.073 C 
HETATM    3  C   UNL     1     -41.106  54.701 -52.384  1.00  0.00     0.133 C 
HETATM    4  C   UNL     1     -40.975  56.149 -52.972  1.00  0.00     0.074 C 
HETATM    5  C   UNL     1     -41.082  57.214 -51.929  1.00  0.00     0.030 A 
HETATM    6  C   UNL     1     -41.466  56.982 -50.628  1.00  0.00     0.042 A 
HETATM    7  N   UNL     1     -41.420  58.180 -49.975  1.00  0.00    -0.279 N 
HETATM    8  H   UNL     1     -41.640  58.387 -49.006  1.00  0.00     0.189 HD
HETATM    9  N   UNL     1     -40.962  59.179 -50.760  1.00  0.00    -0.149 NA
HETATM   10  C   UNL     1     -40.766  58.573 -51.924  1.00  0.00     0.190 A 
HETATM   11  C   UNL     1     -41.781  55.656 -50.042  1.00  0.00     0.097 C 
ENDROOT
BRANCH   4  12
HETATM   12  C   UNL     1     -41.977  56.546 -54.054  1.00  0.00    -0.048 A 
HETATM   13  C   UNL     1     -41.734  56.327 -55.426  1.00  0.00     0.009 A 
HETATM   14  C   UNL     1     -42.658  56.724 -56.395  1.00  0.00     0.024 A 
HETATM   15  C   UNL     1     -43.839  57.346 -56.006  1.00  0.00     0.034 A 
HETATM   16 CL   UNL     1     -44.976  57.839 -57.199  1.00  0.00    -0.084 Cl
HETATM   17  C   UNL     1     -44.104  57.575 -54.659  1.00  0.00     0.024 A 
HETATM   18  C   UNL     1     -43.177  57.179 -53.688  1.00  0.00     0.009 A 
ENDBRANCH   4  12
BRANCH   3  19
HETATM   19  C   UNL     1     -42.339  53.983 -52.895  1.00  0.00     0.266 C 
HETATM   20  O   UNL     1     -43.464  54.096 -52.428  1.00  0.00    -0.265 OA
BRANCH  19  21
HETATM   21  O   UNL     1     -42.006  53.196 -53.959  1.00  0.00    -0.326 OA
HETATM   22  C   UNL     1     -40.706  52.612 -53.881  1.00  0.00     0.213 C 
ENDBRANCH  19  21
ENDBRANCH   3  19
BRANCH   2  23
HETATM   23  O   UNL     1     -39.568  54.728 -50.496  1.00  0.00    -0.389 OA
HETATM   24  H   UNL     1     -39.050  54.677 -51.320  1.00  0.00     0.210 HD
ENDBRANCH   2  23
BRANCH  10  25
HETATM   25  O   UNL     1     -40.266  59.335 -52.891  1.00  0.00    -0.343 OA
HETATM   26  H   UNL     1     -41.037  59.797 -53.262  1.00  0.00     0.219 HD
ENDBRANCH  10  25
TORSDOF 5
ENDMDL
MODEL 8
REMARK VINA RESULT:      -6.1      3.286      4.795
REMARK  5 active torsions:
REMARK  status: ('A' for Active; 'I' for Inactive)
REMARK    1  A    between atoms: C_2  and  O_3 
REMARK    2  A    between atoms: C_4  and  C_5 
REMARK    3  A    between atoms: C_5  and  O_6 
REMARK    4  A    between atoms: C_9  and  C_10 
REMARK    5  A    between atoms: C_22  and  O_23 
ROOT
HETATM    1  C   UNL     1     -41.911  55.449 -55.715  1.00  0.00     0.047 C 
HETATM    2  C   UNL     1     -41.682  55.499 -54.198  1.00  0.00     0.073 C 
HETATM    3  C   UNL     1     -41.362  56.939 -53.660  1.00  0.00     0.133 C 
HETATM    4  C   UNL     1     -41.337  57.097 -52.100  1.00  0.00     0.074 C 
HETATM    5  C   UNL     1     -41.950  55.938 -51.386  1.00  0.00     0.030 A 
HETATM    6  C   UNL     1     -42.656  54.934 -52.009  1.00  0.00     0.042 A 
HETATM    7  N   UNL     1     -43.035  54.048 -51.043  1.00  0.00    -0.279 N 
HETATM    8  H   UNL     1     -43.571  53.190 -51.139  1.00  0.00     0.189 HD
HETATM    9  N   UNL     1     -42.560  54.378 -49.823  1.00  0.00    -0.149 NA
HETATM   10  C   UNL     1     -41.913  55.514 -50.057  1.00  0.00     0.190 A 
HETATM   11  C   UNL     1     -42.876  54.812 -53.471  1.00  0.00     0.097 C 
ENDROOT
BRANCH   4  12
HETATM   12  C   UNL     1     -42.023  58.333 -51.522  1.00  0.00    -0.048 A 
HETATM   13  C   UNL     1     -43.426  58.442 -51.423  1.00  0.00     0.009 A 
HETATM   14  C   UNL     1     -44.026  59.595 -50.914  1.00  0.00     0.024 A 
HETATM   15  C   UNL     1     -43.233  60.657 -50.494  1.00  0.00     0.034 A 
HETATM   16 CL   UNL     1     -43.970  62.080 -49.871  1.00  0.00    -0.084 Cl
HETATM   17  C   UNL     1     -41.845  60.576 -50.582  1.00  0.00     0.024 A 
HETATM   18  C   UNL     1     -41.244  59.421 -51.095  1.00  0.00     0.009 A 
ENDBRANCH   4  12
BRANCH   3  19
HETATM   19  C   UNL     1     -42.226  57.988 -54.330  1.00  0.00     0.266 C 
HETATM   20  O   UNL     1     -43.427  57.883 -54.538  1.00  0.00    -0.265 OA
BRANCH  19  21
HETATM   21  O   UNL     1     -41.463  59.070 -54.660  1.00  0.00    -0.326 OA
HETATM   22  C   UNL     1     -42.170  60.311 -54.677  1.00  0.00     0.213 C 
ENDBRANCH  19  21
ENDBRANCH   3  19
BRANCH   2  23
HETATM   23  O   UNL     1     -40.495  54.689 -54.002  1.00  0.00    -0.389 OA
HETATM   24  H   UNL     1     -39.941  54.753 -54.801  1.00  0.00     0.210 HD
ENDBRANCH   2  23
BRANCH  10  25
HETATM   25  O   UNL     1     -41.299  56.050 -49.008  1.00  0.00    -0.343 OA
HETATM   26  H   UNL     1     -41.895  55.873 -48.259  1.00  0.00     0.219 HD
ENDBRANCH  10  25
TORSDOF 5
ENDMDL
MODEL 9
REMARK VINA RESULT:      -5.9      3.117      4.895
REMARK  5 active torsions:
REMARK  status: ('A' for Active; 'I' for Inactive)
REMARK    1  A    between atoms: C_2  and  O_3 
REMARK    2  A    between atoms: C_4  and  C_5 
REMARK    3  A    between atoms: C_5  and  O_6 
REMARK    4  A    between atoms: C_9  and  C_10 
REMARK    5  A    between atoms: C_22  and  O_23 
ROOT
HETATM    1  C   UNL     1     -42.044  53.525 -54.869  1.00  0.00     0.047 C 
HETATM    2  C   UNL     1     -41.699  54.415 -53.666  1.00  0.00     0.073 C 
HETATM    3  C   UNL     1     -42.123  55.914 -53.854  1.00  0.00     0.133 C 
HETATM    4  C   UNL     1     -42.001  56.825 -52.584  1.00  0.00     0.074 C 
HETATM    5  C   UNL     1     -41.823  56.046 -51.322  1.00  0.00     0.030 A 
HETATM    6  C   UNL     1     -41.963  54.680 -51.234  1.00  0.00     0.042 A 
HETATM    7  N   UNL     1     -41.701  54.330 -49.941  1.00  0.00    -0.279 N 
HETATM    8  H   UNL     1     -41.712  53.409 -49.514  1.00  0.00     0.189 HD
HETATM    9  N   UNL     1     -41.330  55.387 -49.185  1.00  0.00    -0.149 NA
HETATM   10  C   UNL     1     -41.411  56.401 -50.037  1.00  0.00     0.190 A 
HETATM   11  C   UNL     1     -42.256  53.766 -52.365  1.00  0.00     0.097 C 
ENDROOT
BRANCH   4  12
HETATM   12  C   UNL     1     -43.162  57.779 -52.306  1.00  0.00    -0.048 A 
HETATM   13  C   UNL     1     -44.283  57.401 -51.539  1.00  0.00     0.009 A 
HETATM   14  C   UNL     1     -45.341  58.287 -51.323  1.00  0.00     0.024 A 
HETATM   15  C   UNL     1     -45.293  59.564 -51.870  1.00  0.00     0.034 A 
HETATM   16 CL   UNL     1     -46.597  60.654 -51.608  1.00  0.00    -0.084 Cl
HETATM   17  C   UNL     1     -44.198  59.962 -52.632  1.00  0.00     0.024 A 
HETATM   18  C   UNL     1     -43.139  59.074 -52.851  1.00  0.00     0.009 A 
ENDBRANCH   4  12
BRANCH   3  19
HETATM   19  C   UNL     1     -43.482  56.029 -54.515  1.00  0.00     0.266 C 
HETATM   20  O   UNL     1     -44.468  55.370 -54.216  1.00  0.00    -0.265 OA
BRANCH  19  21
HETATM   21  O   UNL     1     -43.441  56.984 -55.489  1.00  0.00    -0.326 OA
HETATM   22  C   UNL     1     -42.371  56.834 -56.422  1.00  0.00     0.213 C 
ENDBRANCH  19  21
ENDBRANCH   3  19
BRANCH   2  23
HETATM   23  O   UNL     1     -40.250  54.377 -53.616  1.00  0.00    -0.389 OA
HETATM   24  H   UNL     1     -39.957  53.459 -53.764  1.00  0.00     0.210 HD
ENDBRANCH   2  23
BRANCH  10  25
HETATM   25  O   UNL     1     -41.053  57.585 -49.553  1.00  0.00    -0.343 OA
HETATM   26  H   UNL     1     -40.493  57.974 -50.247  1.00  0.00     0.219 HD
ENDBRANCH  10  25
TORSDOF 5
ENDMDL
MODEL 10
REMARK VINA RESULT:      -5.9      3.682      6.035
REMARK  5 active torsions:
REMARK  status: ('A' for Active; 'I' for Inactive)
REMARK    1  A    between atoms: C_2  and  O_3 
REMARK    2  A    between atoms: C_4  and  C_5 
REMARK    3  A    between atoms: C_5  and  O_6 
REMARK    4  A    between atoms: C_9  and  C_10 
REMARK    5  A    between atoms: C_22  and  O_23 
ROOT
HETATM    1  C   UNL     1     -41.170  59.410 -50.951  1.00  0.00     0.047 C 
HETATM    2  C   UNL     1     -42.006  58.317 -51.633  1.00  0.00     0.073 C 
HETATM    3  C   UNL     1     -42.872  58.847 -52.830  1.00  0.00     0.133 C 
HETATM    4  C   UNL     1     -43.574  57.751 -53.705  1.00  0.00     0.074 C 
HETATM    5  C   UNL     1     -43.036  56.378 -53.464  1.00  0.00     0.030 A 
HETATM    6  C   UNL     1     -41.907  56.113 -52.722  1.00  0.00     0.042 A 
HETATM    7  N   UNL     1     -41.747  54.757 -52.705  1.00  0.00    -0.279 N 
HETATM    8  H   UNL     1     -41.021  54.207 -52.256  1.00  0.00     0.189 HD
HETATM    9  N   UNL     1     -42.748  54.110 -53.340  1.00  0.00    -0.149 NA
HETATM   10  C   UNL     1     -43.506  55.104 -53.784  1.00  0.00     0.190 A 
HETATM   11  C   UNL     1     -41.084  57.120 -52.010  1.00  0.00     0.097 C 
ENDROOT
BRANCH   4  12
HETATM   12  C   UNL     1     -43.523  57.941 -55.220  1.00  0.00    -0.048 A 
HETATM   13  C   UNL     1     -42.453  57.466 -56.006  1.00  0.00     0.009 A 
HETATM   14  C   UNL     1     -42.422  57.678 -57.385  1.00  0.00     0.024 A 
HETATM   15  C   UNL     1     -43.461  58.367 -58.001  1.00  0.00     0.034 A 
HETATM   16 CL   UNL     1     -43.422  58.632 -59.699  1.00  0.00    -0.084 Cl
HETATM   17  C   UNL     1     -44.530  58.847 -57.248  1.00  0.00     0.024 A 
HETATM   18  C   UNL     1     -44.560  58.637 -55.865  1.00  0.00     0.009 A 
ENDBRANCH   4  12
BRANCH   3  19
HETATM   19  C   UNL     1     -42.107  59.849 -53.671  1.00  0.00     0.266 C 
HETATM   20  O   UNL     1     -40.967  59.694 -54.087  1.00  0.00    -0.265 OA
BRANCH  19  21
HETATM   21  O   UNL     1     -42.884  60.947 -53.899  1.00  0.00    -0.326 OA
HETATM   22  C   UNL     1     -43.693  61.342 -52.792  1.00  0.00     0.213 C 
ENDBRANCH  19  21
ENDBRANCH   3  19
BRANCH   2  23
HETATM   23  O   UNL     1     -42.921  57.885 -50.594  1.00  0.00    -0.389 OA
HETATM   24  H   UNL     1     -42.410  57.428 -49.900  1.00  0.00     0.210 HD
ENDBRANCH   2  23
BRANCH  10  25
HETATM   25  O   UNL     1     -44.610  54.739 -54.427  1.00  0.00    -0.343 OA
HETATM   26  H   UNL     1     -44.901  55.544 -54.889  1.00  0.00     0.219 HD
ENDBRANCH  10  25
TORSDOF 5
ENDMDL
