MODEL 1
REMARK VINA RESULT:      -9.7      0.000      0.000
REMARK  8 active torsions:
REMARK  status: ('A' for Active; 'I' for Inactive)
REMARK    1  A    between atoms: N_9  and  N_10 
REMARK    2  A    between atoms: C_11  and  C_12 
REMARK    3  A    between atoms: C_14  and  O_15 
REMARK    4  A    between atoms: C_19  and  N_20 
REMARK    5  A    between atoms: C_21  and  C_22 
REMARK       I    between atoms: C_22  and  N_23 
REMARK    6  A    between atoms: N_23  and  C_24 
REMARK    7  A    between atoms: C_24  and  C_25 
REMARK    8  A    between atoms: C_25  and  C_26 
ROOT
HETATM    1  C   UNL     1     -41.729  60.616 -50.480  1.00  0.00     0.002 A 
HETATM    2  C   UNL     1     -42.139  60.397 -51.797  1.00  0.00     0.034 A 
HETATM    3  C   UNL     1     -41.911  59.184 -52.440  1.00  0.00     0.086 A 
HETATM    4  C   UNL     1     -41.238  58.150 -51.737  1.00  0.00     0.088 A 
HETATM    5  N   UNL     1     -40.978  56.950 -52.281  1.00  0.00    -0.225 NA
HETATM    6  C   UNL     1     -41.455  56.823 -53.543  1.00  0.00     0.183 A 
HETATM    7  C   UNL     1     -42.129  57.818 -54.243  1.00  0.00     0.125 A 
HETATM    8  N   UNL     1     -42.344  59.045 -53.704  1.00  0.00    -0.242 NA
HETATM    9  N   UNL     1     -41.347  55.720 -54.372  1.00  0.00    -0.197 N 
HETATM   10  C   UNL     1     -42.019  56.000 -55.564  1.00  0.00     0.143 A 
HETATM   11  C   UNL     1     -42.460  57.313 -55.520  1.00  0.00     0.110 A 
HETATM   12  C   UNL     1     -40.834  58.384 -50.428  1.00  0.00     0.034 A 
HETATM   13  C   UNL     1     -41.072  59.604 -49.793  1.00  0.00     0.002 A 
ENDROOT
BRANCH  11  14
HETATM   14  C   UNL     1     -43.005  57.998 -56.670  1.00  0.00     0.257 C 
HETATM   15  N   UNL     1     -42.037  58.644 -57.416  1.00  0.00    -0.356 N 
HETATM   16  H   UNL     1     -41.092  58.638 -57.053  1.00  0.00     0.162 HD
HETATM   17  O   UNL     1     -44.158  57.839 -57.054  1.00  0.00    -0.267 OA
BRANCH  15  18
HETATM   18  C   UNL     1     -42.210  58.771 -58.851  1.00  0.00     0.127 C 
BRANCH  18  19
HETATM   19  C   UNL     1     -42.172  57.392 -59.556  1.00  0.00     0.053 C 
BRANCH  19  20
HETATM   20  C   UNL     1     -43.468  56.672 -59.895  1.00  0.00    -0.082 C 
HETATM   21  C   UNL     1     -44.598  57.593 -60.319  1.00  0.00     0.034 C 
HETATM   22  C   UNL     1     -45.978  56.929 -60.327  1.00  0.00     0.005 C 
HETATM   23  C   UNL     1     -45.921  55.553 -60.973  1.00  0.00     0.004 C 
HETATM   24  C   UNL     1     -44.930  54.648 -60.245  1.00  0.00     0.027 C 
HETATM   25  C   UNL     1     -43.649  55.338 -59.870  1.00  0.00    -0.024 C 
ENDBRANCH  19  20
ENDBRANCH  18  19
ENDBRANCH  15  18
ENDBRANCH  11  14
BRANCH  10  26
HETATM   26  N   UNL     1     -42.071  55.117 -56.601  1.00  0.00    -0.383 N 
HETATM   27  H   UNL     1     -41.244  54.944 -57.170  1.00  0.00     0.157 HD
HETATM   28  H   UNL     1     -42.941  55.023 -57.131  1.00  0.00     0.157 HD
ENDBRANCH  10  26
BRANCH   9  29
HETATM   29  N   UNL     1     -40.499  54.658 -54.182  1.00  0.00    -0.176 NA
HETATM   30  C   UNL     1     -40.847  53.879 -53.209  1.00  0.00     0.150 C 
BRANCH  30  31
HETATM   31  C   UNL     1     -40.282  52.520 -53.089  1.00  0.00    -0.014 A 
HETATM   32  C   UNL     1     -40.330  51.651 -54.185  1.00  0.00     0.049 A 
HETATM   33  C   UNL     1     -39.952  50.325 -54.012  1.00  0.00     0.066 A 
HETATM   34  C   UNL     1     -39.513  49.865 -52.776  1.00  0.00     0.036 A 
HETATM   35  C   UNL     1     -39.450  50.740 -51.690  1.00  0.00     0.004 A 
HETATM   36  C   UNL     1     -39.844  52.071 -51.841  1.00  0.00     0.013 A 
BRANCH  33  37
HETATM   37  O   UNL     1     -40.028  49.428 -55.036  1.00  0.00    -0.361 OA
HETATM   38  H   UNL     1     -39.699  49.852 -55.847  1.00  0.00     0.217 HD
ENDBRANCH  33  37
ENDBRANCH  30  31
ENDBRANCH   9  29
TORSDOF 8
ENDMDL
MODEL 2
REMARK VINA RESULT:      -9.5      1.961      3.493
REMARK  8 active torsions:
REMARK  status: ('A' for Active; 'I' for Inactive)
REMARK    1  A    between atoms: N_9  and  N_10 
REMARK    2  A    between atoms: C_11  and  C_12 
REMARK    3  A    between atoms: C_14  and  O_15 
REMARK    4  A    between atoms: C_19  and  N_20 
REMARK    5  A    between atoms: C_21  and  C_22 
REMARK       I    between atoms: C_22  and  N_23 
REMARK    6  A    between atoms: N_23  and  C_24 
REMARK    7  A    between atoms: C_24  and  C_25 
REMARK    8  A    between atoms: C_25  and  C_26 
ROOT
HETATM    1  C   UNL     1     -41.942  60.706 -50.780  1.00  0.00     0.002 A 
HETATM    2  C   UNL     1     -42.297  60.436 -52.103  1.00  0.00     0.034 A 
HETATM    3  C   UNL     1     -42.031  59.206 -52.695  1.00  0.00     0.086 A 
HETATM    4  C   UNL     1     -41.373  58.204 -51.931  1.00  0.00     0.088 A 
HETATM    5  N   UNL     1     -41.078  56.990 -52.422  1.00  0.00    -0.225 NA
HETATM    6  C   UNL     1     -41.504  56.814 -53.696  1.00  0.00     0.183 A 
HETATM    7  C   UNL     1     -42.162  57.775 -54.456  1.00  0.00     0.125 A 
HETATM    8  N   UNL     1     -42.412  59.017 -53.969  1.00  0.00    -0.242 NA
HETATM    9  N   UNL     1     -41.351  55.684 -54.481  1.00  0.00    -0.197 N 
HETATM   10  C   UNL     1     -41.979  55.915 -55.708  1.00  0.00     0.143 A 
HETATM   11  C   UNL     1     -42.437  57.222 -55.726  1.00  0.00     0.110 A 
HETATM   12  C   UNL     1     -41.022  58.489 -50.616  1.00  0.00     0.034 A 
HETATM   13  C   UNL     1     -41.300  59.727 -50.034  1.00  0.00     0.002 A 
ENDROOT
BRANCH  11  14
HETATM   14  C   UNL     1     -42.945  57.860 -56.920  1.00  0.00     0.257 C 
HETATM   15  N   UNL     1     -42.117  58.866 -57.382  1.00  0.00    -0.356 N 
HETATM   16  H   UNL     1     -41.310  59.098 -56.817  1.00  0.00     0.162 HD
HETATM   17  O   UNL     1     -43.887  57.412 -57.564  1.00  0.00    -0.267 OA
BRANCH  15  18
HETATM   18  C   UNL     1     -42.044  59.129 -58.808  1.00  0.00     0.127 C 
BRANCH  18  19
HETATM   19  C   UNL     1     -42.501  60.570 -59.147  1.00  0.00     0.053 C 
BRANCH  19  20
HETATM   20  C   UNL     1     -41.477  61.621 -59.549  1.00  0.00    -0.082 C 
HETATM   21  C   UNL     1     -40.715  62.224 -58.383  1.00  0.00     0.034 C 
HETATM   22  C   UNL     1     -39.947  63.502 -58.732  1.00  0.00     0.005 C 
HETATM   23  C   UNL     1     -39.199  63.351 -60.048  1.00  0.00     0.004 C 
HETATM   24  C   UNL     1     -40.161  63.015 -61.186  1.00  0.00     0.027 C 
HETATM   25  C   UNL     1     -41.203  62.000 -60.811  1.00  0.00    -0.024 C 
ENDBRANCH  19  20
ENDBRANCH  18  19
ENDBRANCH  15  18
ENDBRANCH  11  14
BRANCH  10  26
HETATM   26  N   UNL     1     -41.980  54.996 -56.715  1.00  0.00    -0.383 N 
HETATM   27  H   UNL     1     -42.859  54.667 -57.108  1.00  0.00     0.157 HD
HETATM   28  H   UNL     1     -41.246  54.283 -56.738  1.00  0.00     0.157 HD
ENDBRANCH  10  26
BRANCH   9  29
HETATM   29  N   UNL     1     -40.498  54.641 -54.223  1.00  0.00    -0.176 NA
HETATM   30  C   UNL     1     -40.880  53.884 -53.244  1.00  0.00     0.150 C 
BRANCH  30  31
HETATM   31  C   UNL     1     -40.303  52.539 -53.059  1.00  0.00    -0.014 A 
HETATM   32  C   UNL     1     -40.292  51.636 -54.129  1.00  0.00     0.049 A 
HETATM   33  C   UNL     1     -39.905  50.322 -53.901  1.00  0.00     0.066 A 
HETATM   34  C   UNL     1     -39.513  49.905 -52.634  1.00  0.00     0.036 A 
HETATM   35  C   UNL     1     -39.509  50.812 -51.573  1.00  0.00     0.004 A 
HETATM   36  C   UNL     1     -39.914  52.132 -51.781  1.00  0.00     0.013 A 
BRANCH  33  37
HETATM   37  O   UNL     1     -39.924  49.394 -54.900  1.00  0.00    -0.361 OA
HETATM   38  H   UNL     1     -40.763  49.475 -55.385  1.00  0.00     0.217 HD
ENDBRANCH  33  37
ENDBRANCH  30  31
ENDBRANCH   9  29
TORSDOF 8
ENDMDL
MODEL 3
REMARK VINA RESULT:      -9.4      2.384      7.402
REMARK  8 active torsions:
REMARK  status: ('A' for Active; 'I' for Inactive)
REMARK    1  A    between atoms: N_9  and  N_10 
REMARK    2  A    between atoms: C_11  and  C_12 
REMARK    3  A    between atoms: C_14  and  O_15 
REMARK    4  A    between atoms: C_19  and  N_20 
REMARK    5  A    between atoms: C_21  and  C_22 
REMARK       I    between atoms: C_22  and  N_23 
REMARK    6  A    between atoms: N_23  and  C_24 
REMARK    7  A    between atoms: C_24  and  C_25 
REMARK    8  A    between atoms: C_25  and  C_26 
ROOT
HETATM    1  C   UNL     1     -39.205  51.068 -52.336  1.00  0.00     0.002 A 
HETATM    2  C   UNL     1     -39.810  52.182 -51.750  1.00  0.00     0.034 A 
HETATM    3  C   UNL     1     -40.703  52.983 -52.455  1.00  0.00     0.086 A 
HETATM    4  C   UNL     1     -40.996  52.659 -53.807  1.00  0.00     0.088 A 
HETATM    5  N   UNL     1     -41.845  53.377 -54.560  1.00  0.00    -0.225 NA
HETATM    6  C   UNL     1     -42.412  54.408 -53.888  1.00  0.00     0.183 A 
HETATM    7  C   UNL     1     -42.150  54.733 -52.561  1.00  0.00     0.125 A 
HETATM    8  N   UNL     1     -41.252  54.032 -51.821  1.00  0.00    -0.242 NA
HETATM    9  N   UNL     1     -43.319  55.330 -54.379  1.00  0.00    -0.197 N 
HETATM   10  C   UNL     1     -43.679  56.189 -53.338  1.00  0.00     0.143 A 
HETATM   11  C   UNL     1     -42.923  55.865 -52.222  1.00  0.00     0.110 A 
HETATM   12  C   UNL     1     -40.384  51.549 -54.377  1.00  0.00     0.034 A 
HETATM   13  C   UNL     1     -39.493  50.751 -53.656  1.00  0.00     0.002 A 
ENDROOT
BRANCH  11  14
HETATM   14  C   UNL     1     -42.885  56.686 -51.033  1.00  0.00     0.257 C 
HETATM   15  N   UNL     1     -41.600  56.896 -50.569  1.00  0.00    -0.356 N 
HETATM   16  H   UNL     1     -40.850  56.408 -51.044  1.00  0.00     0.162 HD
HETATM   17  O   UNL     1     -43.861  57.301 -50.618  1.00  0.00    -0.267 OA
BRANCH  15  18
HETATM   18  C   UNL     1     -41.278  58.143 -49.900  1.00  0.00     0.127 C 
BRANCH  18  19
HETATM   19  C   UNL     1     -40.644  59.167 -50.873  1.00  0.00     0.053 C 
BRANCH  19  20
HETATM   20  C   UNL     1     -41.395  59.596 -52.125  1.00  0.00    -0.082 C 
HETATM   21  C   UNL     1     -42.539  60.559 -51.865  1.00  0.00     0.034 C 
HETATM   22  C   UNL     1     -43.500  60.723 -53.045  1.00  0.00     0.005 C 
HETATM   23  C   UNL     1     -42.740  60.881 -54.354  1.00  0.00     0.004 C 
HETATM   24  C   UNL     1     -41.832  59.681 -54.607  1.00  0.00     0.027 C 
HETATM   25  C   UNL     1     -41.097  59.214 -53.382  1.00  0.00    -0.024 C 
ENDBRANCH  19  20
ENDBRANCH  18  19
ENDBRANCH  15  18
ENDBRANCH  11  14
BRANCH  10  26
HETATM   26  N   UNL     1     -44.541  57.230 -53.511  1.00  0.00    -0.383 N 
HETATM   27  H   UNL     1     -45.379  57.304 -52.936  1.00  0.00     0.157 HD
HETATM   28  H   UNL     1     -44.671  57.617 -54.449  1.00  0.00     0.157 HD
ENDBRANCH  10  26
BRANCH   9  29
HETATM   29  N   UNL     1     -43.598  55.549 -55.705  1.00  0.00    -0.176 NA
HETATM   30  C   UNL     1     -43.145  56.675 -56.155  1.00  0.00     0.150 C 
BRANCH  30  31
HETATM   31  C   UNL     1     -43.028  56.917 -57.607  1.00  0.00    -0.014 A 
HETATM   32  C   UNL     1     -43.628  56.028 -58.507  1.00  0.00     0.049 A 
HETATM   33  C   UNL     1     -43.371  56.168 -59.865  1.00  0.00     0.066 A 
HETATM   34  C   UNL     1     -42.548  57.185 -60.334  1.00  0.00     0.036 A 
HETATM   35  C   UNL     1     -41.966  58.080 -59.434  1.00  0.00     0.004 A 
HETATM   36  C   UNL     1     -42.197  57.942 -58.064  1.00  0.00     0.013 A 
BRANCH  33  37
HETATM   37  O   UNL     1     -43.892  55.299 -60.778  1.00  0.00    -0.361 OA
HETATM   38  H   UNL     1     -44.843  55.194 -60.601  1.00  0.00     0.217 HD
ENDBRANCH  33  37
ENDBRANCH  30  31
ENDBRANCH   9  29
TORSDOF 8
ENDMDL
MODEL 4
REMARK VINA RESULT:      -9.4      2.994      7.503
REMARK  8 active torsions:
REMARK  status: ('A' for Active; 'I' for Inactive)
REMARK    1  A    between atoms: N_9  and  N_10 
REMARK    2  A    between atoms: C_11  and  C_12 
REMARK    3  A    between atoms: C_14  and  O_15 
REMARK    4  A    between atoms: C_19  and  N_20 
REMARK    5  A    between atoms: C_21  and  C_22 
REMARK       I    between atoms: C_22  and  N_23 
REMARK    6  A    between atoms: N_23  and  C_24 
REMARK    7  A    between atoms: C_24  and  C_25 
REMARK    8  A    between atoms: C_25  and  C_26 
ROOT
HETATM    1  C   UNL     1     -43.371  59.445 -57.770  1.00  0.00     0.002 A 
HETATM    2  C   UNL     1     -43.739  59.433 -56.423  1.00  0.00     0.034 A 
HETATM    3  C   UNL     1     -43.418  58.367 -55.588  1.00  0.00     0.086 A 
HETATM    4  C   UNL     1     -42.703  57.264 -56.127  1.00  0.00     0.088 A 
HETATM    5  N   UNL     1     -42.353  56.195 -55.394  1.00  0.00    -0.225 NA
HETATM    6  C   UNL     1     -42.717  56.300 -54.092  1.00  0.00     0.183 A 
HETATM    7  C   UNL     1     -43.403  57.378 -53.542  1.00  0.00     0.125 A 
HETATM    8  N   UNL     1     -43.798  58.432 -54.301  1.00  0.00    -0.242 NA
HETATM    9  N   UNL     1     -42.507  55.373 -53.087  1.00  0.00    -0.197 N 
HETATM   10  C   UNL     1     -42.998  55.903 -51.891  1.00  0.00     0.143 A 
HETATM   11  C   UNL     1     -43.603  57.119 -52.168  1.00  0.00     0.110 A 
HETATM   12  C   UNL     1     -42.347  57.290 -57.470  1.00  0.00     0.034 A 
HETATM   13  C   UNL     1     -42.672  58.368 -58.295  1.00  0.00     0.002 A 
ENDROOT
BRANCH  11  14
HETATM   14  C   UNL     1     -44.401  57.838 -51.201  1.00  0.00     0.257 C 
HETATM   15  N   UNL     1     -43.916  59.106 -50.943  1.00  0.00    -0.356 N 
HETATM   16  H   UNL     1     -43.041  59.365 -51.381  1.00  0.00     0.162 HD
HETATM   17  O   UNL     1     -45.500  57.446 -50.823  1.00  0.00    -0.267 OA
BRANCH  15  18
HETATM   18  C   UNL     1     -44.844  60.169 -50.605  1.00  0.00     0.127 C 
BRANCH  18  19
HETATM   19  C   UNL     1     -44.207  61.199 -49.640  1.00  0.00     0.053 C 
BRANCH  19  20
HETATM   20  C   UNL     1     -44.906  61.560 -48.338  1.00  0.00    -0.082 C 
HETATM   21  C   UNL     1     -44.820  63.030 -47.972  1.00  0.00     0.034 C 
HETATM   22  C   UNL     1     -45.210  63.340 -46.524  1.00  0.00     0.005 C 
HETATM   23  C   UNL     1     -46.477  62.597 -46.126  1.00  0.00     0.004 C 
HETATM   24  C   UNL     1     -46.299  61.089 -46.290  1.00  0.00     0.027 C 
HETATM   25  C   UNL     1     -45.585  60.701 -47.554  1.00  0.00    -0.024 C 
ENDBRANCH  19  20
ENDBRANCH  18  19
ENDBRANCH  15  18
ENDBRANCH  11  14
BRANCH  10  26
HETATM   26  N   UNL     1     -42.964  55.215 -50.715  1.00  0.00    -0.383 N 
HETATM   27  H   UNL     1     -43.661  55.395 -49.995  1.00  0.00     0.157 HD
HETATM   28  H   UNL     1     -42.058  54.939 -50.327  1.00  0.00     0.157 HD
ENDBRANCH  10  26
BRANCH   9  29
HETATM   29  N   UNL     1     -42.148  54.061 -53.271  1.00  0.00    -0.176 NA
HETATM   30  C   UNL     1     -40.869  53.870 -53.305  1.00  0.00     0.150 C 
BRANCH  30  31
HETATM   31  C   UNL     1     -40.301  52.518 -53.133  1.00  0.00    -0.014 A 
HETATM   32  C   UNL     1     -40.328  51.614 -54.201  1.00  0.00     0.049 A 
HETATM   33  C   UNL     1     -39.948  50.296 -53.980  1.00  0.00     0.066 A 
HETATM   34  C   UNL     1     -39.528  49.877 -52.723  1.00  0.00     0.036 A 
HETATM   35  C   UNL     1     -39.487  50.786 -51.665  1.00  0.00     0.004 A 
HETATM   36  C   UNL     1     -39.883  52.109 -51.865  1.00  0.00     0.013 A 
BRANCH  33  37
HETATM   37  O   UNL     1     -40.003  49.367 -54.977  1.00  0.00    -0.361 OA
HETATM   38  H   UNL     1     -39.800  48.494 -54.601  1.00  0.00     0.217 HD
ENDBRANCH  33  37
ENDBRANCH  30  31
ENDBRANCH   9  29
TORSDOF 8
ENDMDL
MODEL 5
REMARK VINA RESULT:      -9.3      1.813      6.290
REMARK  8 active torsions:
REMARK  status: ('A' for Active; 'I' for Inactive)
REMARK    1  A    between atoms: N_9  and  N_10 
REMARK    2  A    between atoms: C_11  and  C_12 
REMARK    3  A    between atoms: C_14  and  O_15 
REMARK    4  A    between atoms: C_19  and  N_20 
REMARK    5  A    between atoms: C_21  and  C_22 
REMARK       I    between atoms: C_22  and  N_23 
REMARK    6  A    between atoms: N_23  and  C_24 
REMARK    7  A    between atoms: C_24  and  C_25 
REMARK    8  A    between atoms: C_25  and  C_26 
ROOT
HETATM    1  C   UNL     1     -45.337  56.037 -60.960  1.00  0.00     0.002 A 
HETATM    2  C   UNL     1     -44.891  56.993 -60.044  1.00  0.00     0.034 A 
HETATM    3  C   UNL     1     -44.184  56.635 -58.900  1.00  0.00     0.086 A 
HETATM    4  C   UNL     1     -43.920  55.259 -58.659  1.00  0.00     0.088 A 
HETATM    5  N   UNL     1     -43.247  54.826 -57.582  1.00  0.00    -0.225 NA
HETATM    6  C   UNL     1     -42.819  55.832 -56.781  1.00  0.00     0.183 A 
HETATM    7  C   UNL     1     -43.054  57.184 -57.007  1.00  0.00     0.125 A 
HETATM    8  N   UNL     1     -43.780  57.611 -58.072  1.00  0.00    -0.242 NA
HETATM    9  N   UNL     1     -42.107  55.717 -55.600  1.00  0.00    -0.197 N 
HETATM   10  C   UNL     1     -41.833  57.003 -55.126  1.00  0.00     0.143 A 
HETATM   11  C   UNL     1     -42.459  57.918 -55.957  1.00  0.00     0.110 A 
HETATM   12  C   UNL     1     -44.374  54.320 -59.578  1.00  0.00     0.034 A 
HETATM   13  C   UNL     1     -45.077  54.694 -60.724  1.00  0.00     0.002 A 
ENDROOT
BRANCH  11  14
HETATM   14  C   UNL     1     -42.564  59.325 -55.639  1.00  0.00     0.257 C 
HETATM   15  N   UNL     1     -43.861  59.795 -55.715  1.00  0.00    -0.356 N 
HETATM   16  H   UNL     1     -44.569  59.151 -56.047  1.00  0.00     0.162 HD
HETATM   17  O   UNL     1     -41.641  59.966 -55.150  1.00  0.00    -0.267 OA
BRANCH  15  18
HETATM   18  C   UNL     1     -44.283  60.868 -54.832  1.00  0.00     0.127 C 
BRANCH  18  19
HETATM   19  C   UNL     1     -44.994  60.322 -53.569  1.00  0.00     0.053 C 
BRANCH  19  20
HETATM   20  C   UNL     1     -44.249  59.407 -52.609  1.00  0.00    -0.082 C 
HETATM   21  C   UNL     1     -44.791  57.990 -52.555  1.00  0.00     0.034 C 
HETATM   22  C   UNL     1     -44.285  57.171 -51.364  1.00  0.00     0.005 C 
HETATM   23  C   UNL     1     -42.786  57.351 -51.172  1.00  0.00     0.004 C 
HETATM   24  C   UNL     1     -42.436  58.822 -50.957  1.00  0.00     0.027 C 
HETATM   25  C   UNL     1     -43.178  59.756 -51.871  1.00  0.00    -0.024 C 
ENDBRANCH  19  20
ENDBRANCH  18  19
ENDBRANCH  15  18
ENDBRANCH  11  14
BRANCH  10  26
HETATM   26  N   UNL     1     -41.165  57.227 -53.959  1.00  0.00    -0.383 N 
HETATM   27  H   UNL     1     -40.650  58.094 -53.821  1.00  0.00     0.157 HD
HETATM   28  H   UNL     1     -40.744  56.435 -53.467  1.00  0.00     0.157 HD
ENDBRANCH  10  26
BRANCH   9  29
HETATM   29  N   UNL     1     -41.945  54.565 -54.873  1.00  0.00    -0.176 NA
HETATM   30  C   UNL     1     -40.782  54.015 -55.019  1.00  0.00     0.150 C 
BRANCH  30  31
HETATM   31  C   UNL     1     -40.301  52.998 -54.063  1.00  0.00    -0.014 A 
HETATM   32  C   UNL     1     -40.055  51.693 -54.505  1.00  0.00     0.049 A 
HETATM   33  C   UNL     1     -39.768  50.706 -53.571  1.00  0.00     0.066 A 
HETATM   34  C   UNL     1     -39.704  51.006 -52.215  1.00  0.00     0.036 A 
HETATM   35  C   UNL     1     -39.933  52.312 -51.779  1.00  0.00     0.004 A 
HETATM   36  C   UNL     1     -40.242  53.312 -52.704  1.00  0.00     0.013 A 
BRANCH  33  37
HETATM   37  O   UNL     1     -39.568  49.411 -53.947  1.00  0.00    -0.361 OA
HETATM   38  H   UNL     1     -40.418  49.036 -54.236  1.00  0.00     0.217 HD
ENDBRANCH  33  37
ENDBRANCH  30  31
ENDBRANCH   9  29
TORSDOF 8
ENDMDL
MODEL 6
REMARK VINA RESULT:      -9.3      2.164      5.389
REMARK  8 active torsions:
REMARK  status: ('A' for Active; 'I' for Inactive)
REMARK    1  A    between atoms: N_9  and  N_10 
REMARK    2  A    between atoms: C_11  and  C_12 
REMARK    3  A    between atoms: C_14  and  O_15 
REMARK    4  A    between atoms: C_19  and  N_20 
REMARK    5  A    between atoms: C_21  and  C_22 
REMARK       I    between atoms: C_22  and  N_23 
REMARK    6  A    between atoms: N_23  and  C_24 
REMARK    7  A    between atoms: C_24  and  C_25 
REMARK    8  A    between atoms: C_25  and  C_26 
ROOT
HETATM    1  C   UNL     1     -44.675  56.879 -60.419  1.00  0.00     0.002 A 
HETATM    2  C   UNL     1     -44.279  57.738 -59.393  1.00  0.00     0.034 A 
HETATM    3  C   UNL     1     -43.656  57.263 -58.242  1.00  0.00     0.086 A 
HETATM    4  C   UNL     1     -43.429  55.867 -58.112  1.00  0.00     0.088 A 
HETATM    5  N   UNL     1     -42.835  55.324 -57.037  1.00  0.00    -0.225 NA
HETATM    6  C   UNL     1     -42.449  56.244 -56.120  1.00  0.00     0.183 A 
HETATM    7  C   UNL     1     -42.649  57.615 -56.236  1.00  0.00     0.125 A 
HETATM    8  N   UNL     1     -43.295  58.152 -57.303  1.00  0.00    -0.242 NA
HETATM    9  N   UNL     1     -41.819  56.008 -54.910  1.00  0.00    -0.197 N 
HETATM   10  C   UNL     1     -41.561  57.239 -54.303  1.00  0.00     0.143 A 
HETATM   11  C   UNL     1     -42.116  58.238 -55.086  1.00  0.00     0.110 A 
HETATM   12  C   UNL     1     -43.832  55.024 -59.141  1.00  0.00     0.034 A 
HETATM   13  C   UNL     1     -44.451  55.515 -60.292  1.00  0.00     0.002 A 
ENDROOT
BRANCH  11  14
HETATM   14  C   UNL     1     -42.222  59.612 -54.648  1.00  0.00     0.257 C 
HETATM   15  N   UNL     1     -42.169  60.513 -55.695  1.00  0.00    -0.356 N 
HETATM   16  H   UNL     1     -41.990  60.139 -56.619  1.00  0.00     0.162 HD
HETATM   17  O   UNL     1     -42.540  59.923 -53.506  1.00  0.00    -0.267 OA
BRANCH  15  18
HETATM   18  C   UNL     1     -42.906  61.760 -55.600  1.00  0.00     0.127 C 
BRANCH  18  19
HETATM   19  C   UNL     1     -43.306  62.295 -56.997  1.00  0.00     0.053 C 
BRANCH  19  20
HETATM   20  C   UNL     1     -42.363  62.124 -58.179  1.00  0.00    -0.082 C 
HETATM   21  C   UNL     1     -42.883  61.192 -59.259  1.00  0.00     0.034 C 
HETATM   22  C   UNL     1     -41.819  60.748 -60.267  1.00  0.00     0.005 C 
HETATM   23  C   UNL     1     -40.962  61.922 -60.714  1.00  0.00     0.004 C 
HETATM   24  C   UNL     1     -40.279  62.585 -59.520  1.00  0.00     0.027 C 
HETATM   25  C   UNL     1     -41.177  62.743 -58.325  1.00  0.00    -0.024 C 
ENDBRANCH  19  20
ENDBRANCH  18  19
ENDBRANCH  15  18
ENDBRANCH  11  14
BRANCH  10  26
HETATM   26  N   UNL     1     -40.970  57.343 -53.079  1.00  0.00    -0.383 N 
HETATM   27  H   UNL     1     -41.450  57.815 -52.316  1.00  0.00     0.157 HD
HETATM   28  H   UNL     1     -39.952  57.439 -53.024  1.00  0.00     0.157 HD
ENDBRANCH  10  26
BRANCH   9  29
HETATM   29  N   UNL     1     -41.723  54.791 -54.284  1.00  0.00    -0.176 NA
HETATM   30  C   UNL     1     -40.674  54.111 -54.621  1.00  0.00     0.150 C 
BRANCH  30  31
HETATM   31  C   UNL     1     -40.217  52.971 -53.803  1.00  0.00    -0.014 A 
HETATM   32  C   UNL     1     -39.999  51.728 -54.409  1.00  0.00     0.049 A 
HETATM   33  C   UNL     1     -39.734  50.624 -53.608  1.00  0.00     0.066 A 
HETATM   34  C   UNL     1     -39.665  50.747 -52.225  1.00  0.00     0.036 A 
HETATM   35  C   UNL     1     -39.867  51.992 -51.626  1.00  0.00     0.004 A 
HETATM   36  C   UNL     1     -40.153  53.108 -52.415  1.00  0.00     0.013 A 
BRANCH  33  37
HETATM   37  O   UNL     1     -39.562  49.383 -54.147  1.00  0.00    -0.361 OA
HETATM   38  H   UNL     1     -38.823  49.416 -54.777  1.00  0.00     0.217 HD
ENDBRANCH  33  37
ENDBRANCH  30  31
ENDBRANCH   9  29
TORSDOF 8
ENDMDL
MODEL 7
REMARK VINA RESULT:      -9.2      2.595      7.017
REMARK  8 active torsions:
REMARK  status: ('A' for Active; 'I' for Inactive)
REMARK    1  A    between atoms: N_9  and  N_10 
REMARK    2  A    between atoms: C_11  and  C_12 
REMARK    3  A    between atoms: C_14  and  O_15 
REMARK    4  A    between atoms: C_19  and  N_20 
REMARK    5  A    between atoms: C_21  and  C_22 
REMARK       I    between atoms: C_22  and  N_23 
REMARK    6  A    between atoms: N_23  and  C_24 
REMARK    7  A    between atoms: C_24  and  C_25 
REMARK    8  A    between atoms: C_25  and  C_26 
ROOT
HETATM    1  C   UNL     1     -44.234  58.907 -58.360  1.00  0.00     0.002 A 
HETATM    2  C   UNL     1     -44.502  59.005 -56.993  1.00  0.00     0.034 A 
HETATM    3  C   UNL     1     -44.058  58.043 -56.091  1.00  0.00     0.086 A 
HETATM    4  C   UNL     1     -43.322  56.931 -56.580  1.00  0.00     0.088 A 
HETATM    5  N   UNL     1     -42.856  55.958 -55.781  1.00  0.00    -0.225 NA
HETATM    6  C   UNL     1     -43.130  56.170 -54.470  1.00  0.00     0.183 A 
HETATM    7  C   UNL     1     -43.836  57.258 -53.970  1.00  0.00     0.125 A 
HETATM    8  N   UNL     1     -44.347  58.212 -54.790  1.00  0.00    -0.242 NA
HETATM    9  N   UNL     1     -42.792  55.356 -53.403  1.00  0.00    -0.197 N 
HETATM   10  C   UNL     1     -43.225  55.973 -52.227  1.00  0.00     0.143 A 
HETATM   11  C   UNL     1     -43.919  57.123 -52.567  1.00  0.00     0.110 A 
HETATM   12  C   UNL     1     -43.066  56.846 -57.944  1.00  0.00     0.034 A 
HETATM   13  C   UNL     1     -43.513  57.821 -58.837  1.00  0.00     0.002 A 
ENDROOT
BRANCH  11  14
HETATM   14  C   UNL     1     -44.686  57.890 -51.610  1.00  0.00     0.257 C 
HETATM   15  N   UNL     1     -44.652  59.248 -51.863  1.00  0.00    -0.356 N 
HETATM   16  H   UNL     1     -44.054  59.565 -52.616  1.00  0.00     0.162 HD
HETATM   17  O   UNL     1     -45.451  57.373 -50.804  1.00  0.00    -0.267 OA
BRANCH  15  18
HETATM   18  C   UNL     1     -45.803  60.065 -51.525  1.00  0.00     0.127 C 
BRANCH  18  19
HETATM   19  C   UNL     1     -45.594  60.822 -50.189  1.00  0.00     0.053 C 
BRANCH  19  20
HETATM   20  C   UNL     1     -44.720  62.066 -50.146  1.00  0.00    -0.082 C 
HETATM   21  C   UNL     1     -44.560  62.665 -48.760  1.00  0.00     0.034 C 
HETATM   22  C   UNL     1     -43.982  64.083 -48.754  1.00  0.00     0.005 C 
HETATM   23  C   UNL     1     -42.798  64.197 -49.702  1.00  0.00     0.004 C 
HETATM   24  C   UNL     1     -43.201  63.823 -51.126  1.00  0.00     0.027 C 
HETATM   25  C   UNL     1     -44.090  62.614 -51.202  1.00  0.00    -0.024 C 
ENDBRANCH  19  20
ENDBRANCH  18  19
ENDBRANCH  15  18
ENDBRANCH  11  14
BRANCH  10  26
HETATM   26  N   UNL     1     -43.065  55.405 -50.998  1.00  0.00    -0.383 N 
HETATM   27  H   UNL     1     -42.335  54.712 -50.845  1.00  0.00     0.157 HD
HETATM   28  H   UNL     1     -43.889  55.246 -50.412  1.00  0.00     0.157 HD
ENDBRANCH  10  26
BRANCH   9  29
HETATM   29  N   UNL     1     -42.372  54.053 -53.493  1.00  0.00    -0.176 NA
HETATM   30  C   UNL     1     -41.085  53.923 -53.555  1.00  0.00     0.150 C 
BRANCH  30  31
HETATM   31  C   UNL     1     -40.443  52.620 -53.293  1.00  0.00    -0.014 A 
HETATM   32  C   UNL     1     -40.406  51.651 -54.302  1.00  0.00     0.049 A 
HETATM   33  C   UNL     1     -39.954  50.373 -53.996  1.00  0.00     0.066 A 
HETATM   34  C   UNL     1     -39.525  50.059 -52.712  1.00  0.00     0.036 A 
HETATM   35  C   UNL     1     -39.548  51.033 -51.712  1.00  0.00     0.004 A 
HETATM   36  C   UNL     1     -40.017  52.316 -51.998  1.00  0.00     0.013 A 
BRANCH  33  37
HETATM   37  O   UNL     1     -39.944  49.382 -54.932  1.00  0.00    -0.361 OA
HETATM   38  H   UNL     1     -40.712  49.498 -55.517  1.00  0.00     0.217 HD
ENDBRANCH  33  37
ENDBRANCH  30  31
ENDBRANCH   9  29
TORSDOF 8
ENDMDL
MODEL 8
REMARK VINA RESULT:      -9.1      2.472      7.344
REMARK  8 active torsions:
REMARK  status: ('A' for Active; 'I' for Inactive)
REMARK    1  A    between atoms: N_9  and  N_10 
REMARK    2  A    between atoms: C_11  and  C_12 
REMARK    3  A    between atoms: C_14  and  O_15 
REMARK    4  A    between atoms: C_19  and  N_20 
REMARK    5  A    between atoms: C_21  and  C_22 
REMARK       I    between atoms: C_22  and  N_23 
REMARK    6  A    between atoms: N_23  and  C_24 
REMARK    7  A    between atoms: C_24  and  C_25 
REMARK    8  A    between atoms: C_25  and  C_26 
ROOT
HETATM    1  C   UNL     1     -46.291  61.005 -51.994  1.00  0.00     0.002 A 
HETATM    2  C   UNL     1     -45.411  60.026 -51.527  1.00  0.00     0.034 A 
HETATM    3  C   UNL     1     -44.584  59.316 -52.392  1.00  0.00     0.086 A 
HETATM    4  C   UNL     1     -44.648  59.591 -53.784  1.00  0.00     0.088 A 
HETATM    5  N   UNL     1     -43.888  58.953 -54.688  1.00  0.00    -0.225 NA
HETATM    6  C   UNL     1     -43.037  58.057 -54.130  1.00  0.00     0.183 A 
HETATM    7  C   UNL     1     -42.948  57.784 -52.770  1.00  0.00     0.125 A 
HETATM    8  N   UNL     1     -43.756  58.397 -51.867  1.00  0.00    -0.242 NA
HETATM    9  N   UNL     1     -42.132  57.242 -54.787  1.00  0.00    -0.197 N 
HETATM   10  C   UNL     1     -41.425  56.510 -53.828  1.00  0.00     0.143 A 
HETATM   11  C   UNL     1     -41.957  56.796 -52.581  1.00  0.00     0.110 A 
HETATM   12  C   UNL     1     -45.532  60.565 -54.233  1.00  0.00     0.034 A 
HETATM   13  C   UNL     1     -46.352  61.274 -53.354  1.00  0.00     0.002 A 
ENDROOT
BRANCH  11  14
HETATM   14  C   UNL     1     -41.608  56.055 -51.390  1.00  0.00     0.257 C 
HETATM   15  N   UNL     1     -42.018  54.736 -51.441  1.00  0.00    -0.356 N 
HETATM   16  H   UNL     1     -42.568  54.452 -52.242  1.00  0.00     0.162 HD
HETATM   17  O   UNL     1     -40.847  56.492 -50.534  1.00  0.00    -0.267 OA
BRANCH  15  18
HETATM   18  C   UNL     1     -41.233  53.719 -50.765  1.00  0.00     0.127 C 
BRANCH  18  19
HETATM   19  C   UNL     1     -39.971  53.336 -51.578  1.00  0.00     0.053 C 
BRANCH  19  20
HETATM   20  C   UNL     1     -39.911  52.004 -52.311  1.00  0.00    -0.082 C 
HETATM   21  C   UNL     1     -40.195  52.100 -53.799  1.00  0.00     0.034 C 
HETATM   22  C   UNL     1     -40.475  50.753 -54.471  1.00  0.00     0.005 C 
HETATM   23  C   UNL     1     -39.478  49.697 -54.020  1.00  0.00     0.004 C 
HETATM   24  C   UNL     1     -39.518  49.522 -52.504  1.00  0.00     0.027 C 
HETATM   25  C   UNL     1     -39.606  50.819 -51.750  1.00  0.00    -0.024 C 
ENDBRANCH  19  20
ENDBRANCH  18  19
ENDBRANCH  15  18
ENDBRANCH  11  14
BRANCH  10  26
HETATM   26  N   UNL     1     -40.474  55.592 -54.161  1.00  0.00    -0.383 N 
HETATM   27  H   UNL     1     -39.491  55.856 -54.183  1.00  0.00     0.157 HD
HETATM   28  H   UNL     1     -40.703  54.864 -54.844  1.00  0.00     0.157 HD
ENDBRANCH  10  26
BRANCH   9  29
HETATM   29  N   UNL     1     -42.122  56.980 -56.134  1.00  0.00    -0.176 NA
HETATM   30  C   UNL     1     -43.156  56.321 -56.546  1.00  0.00     0.150 C 
BRANCH  30  31
HETATM   31  C   UNL     1     -43.496  56.266 -57.981  1.00  0.00    -0.014 A 
HETATM   32  C   UNL     1     -43.812  57.446 -58.663  1.00  0.00     0.049 A 
HETATM   33  C   UNL     1     -44.294  57.366 -59.964  1.00  0.00     0.066 A 
HETATM   34  C   UNL     1     -44.443  56.136 -60.594  1.00  0.00     0.036 A 
HETATM   35  C   UNL     1     -44.111  54.962 -59.915  1.00  0.00     0.004 A 
HETATM   36  C   UNL     1     -43.644  55.024 -58.601  1.00  0.00     0.013 A 
BRANCH  33  37
HETATM   37  O   UNL     1     -44.662  58.484 -60.653  1.00  0.00    -0.361 OA
HETATM   38  H   UNL     1     -44.093  59.222 -60.377  1.00  0.00     0.217 HD
ENDBRANCH  33  37
ENDBRANCH  30  31
ENDBRANCH   9  29
TORSDOF 8
ENDMDL
MODEL 9
REMARK VINA RESULT:      -9.0      2.745      8.488
REMARK  8 active torsions:
REMARK  status: ('A' for Active; 'I' for Inactive)
REMARK    1  A    between atoms: N_9  and  N_10 
REMARK    2  A    between atoms: C_11  and  C_12 
REMARK    3  A    between atoms: C_14  and  O_15 
REMARK    4  A    between atoms: C_19  and  N_20 
REMARK    5  A    between atoms: C_21  and  C_22 
REMARK       I    between atoms: C_22  and  N_23 
REMARK    6  A    between atoms: N_23  and  C_24 
REMARK    7  A    between atoms: C_24  and  C_25 
REMARK    8  A    between atoms: C_25  and  C_26 
ROOT
HETATM    1  C   UNL     1     -45.321  60.795 -52.830  1.00  0.00     0.002 A 
HETATM    2  C   UNL     1     -44.723  59.558 -53.081  1.00  0.00     0.034 A 
HETATM    3  C   UNL     1     -44.622  59.044 -54.369  1.00  0.00     0.086 A 
HETATM    4  C   UNL     1     -45.149  59.797 -55.453  1.00  0.00     0.088 A 
HETATM    5  N   UNL     1     -45.094  59.375 -56.726  1.00  0.00    -0.225 NA
HETATM    6  C   UNL     1     -44.456  58.188 -56.868  1.00  0.00     0.183 A 
HETATM    7  C   UNL     1     -43.920  57.443 -55.823  1.00  0.00     0.125 A 
HETATM    8  N   UNL     1     -44.024  57.852 -54.532  1.00  0.00    -0.242 NA
HETATM    9  N   UNL     1     -44.239  57.489 -58.042  1.00  0.00    -0.197 N 
HETATM   10  C   UNL     1     -43.502  56.341 -57.739  1.00  0.00     0.143 A 
HETATM   11  C   UNL     1     -43.344  56.273 -56.364  1.00  0.00     0.110 A 
HETATM   12  C   UNL     1     -45.745  61.024 -55.187  1.00  0.00     0.034 A 
HETATM   13  C   UNL     1     -45.835  61.530 -53.889  1.00  0.00     0.002 A 
ENDROOT
BRANCH  11  14
HETATM   14  C   UNL     1     -42.818  55.107 -55.690  1.00  0.00     0.257 C 
HETATM   15  N   UNL     1     -42.038  55.428 -54.596  1.00  0.00    -0.356 N 
HETATM   16  H   UNL     1     -41.857  56.410 -54.428  1.00  0.00     0.162 HD
HETATM   17  O   UNL     1     -43.201  53.968 -55.936  1.00  0.00    -0.267 OA
BRANCH  15  18
HETATM   18  C   UNL     1     -42.005  54.530 -53.456  1.00  0.00     0.127 C 
BRANCH  18  19
HETATM   19  C   UNL     1     -40.569  54.026 -53.167  1.00  0.00     0.053 C 
BRANCH  19  20
HETATM   20  C   UNL     1     -40.277  52.533 -53.133  1.00  0.00    -0.082 C 
HETATM   21  C   UNL     1     -40.549  51.817 -54.444  1.00  0.00     0.034 C 
HETATM   22  C   UNL     1     -40.592  50.291 -54.327  1.00  0.00     0.005 C 
HETATM   23  C   UNL     1     -39.440  49.774 -53.476  1.00  0.00     0.004 C 
HETATM   24  C   UNL     1     -39.475  50.388 -52.080  1.00  0.00     0.027 C 
HETATM   25  C   UNL     1     -39.789  51.858 -52.076  1.00  0.00    -0.024 C 
ENDBRANCH  19  20
ENDBRANCH  18  19
ENDBRANCH  15  18
ENDBRANCH  11  14
BRANCH  10  26
HETATM   26  N   UNL     1     -43.150  55.425 -58.685  1.00  0.00    -0.383 N 
HETATM   27  H   UNL     1     -43.864  54.870 -59.152  1.00  0.00     0.157 HD
HETATM   28  H   UNL     1     -42.262  54.925 -58.587  1.00  0.00     0.157 HD
ENDBRANCH  10  26
BRANCH   9  29
HETATM   29  N   UNL     1     -44.870  57.720 -59.238  1.00  0.00    -0.176 NA
HETATM   30  C   UNL     1     -46.005  57.110 -59.356  1.00  0.00     0.150 C 
BRANCH  30  31
HETATM   31  C   UNL     1     -46.978  57.514 -60.391  1.00  0.00    -0.014 A 
HETATM   32  C   UNL     1     -47.530  56.547 -61.238  1.00  0.00     0.049 A 
HETATM   33  C   UNL     1     -48.309  56.956 -62.313  1.00  0.00     0.066 A 
HETATM   34  C   UNL     1     -48.559  58.305 -62.539  1.00  0.00     0.036 A 
HETATM   35  C   UNL     1     -48.020  59.265 -61.681  1.00  0.00     0.004 A 
HETATM   36  C   UNL     1     -47.219  58.872 -60.608  1.00  0.00     0.013 A 
BRANCH  33  37
HETATM   37  O   UNL     1     -48.829  56.055 -63.195  1.00  0.00    -0.361 OA
HETATM   38  H   UNL     1     -48.217  55.963 -63.944  1.00  0.00     0.217 HD
ENDBRANCH  33  37
ENDBRANCH  30  31
ENDBRANCH   9  29
TORSDOF 8
ENDMDL
MODEL 10
REMARK VINA RESULT:      -8.9      2.191      6.262
REMARK  8 active torsions:
REMARK  status: ('A' for Active; 'I' for Inactive)
REMARK    1  A    between atoms: N_9  and  N_10 
REMARK    2  A    between atoms: C_11  and  C_12 
REMARK    3  A    between atoms: C_14  and  O_15 
REMARK    4  A    between atoms: C_19  and  N_20 
REMARK    5  A    between atoms: C_21  and  C_22 
REMARK       I    between atoms: C_22  and  N_23 
REMARK    6  A    between atoms: N_23  and  C_24 
REMARK    7  A    between atoms: C_24  and  C_25 
REMARK    8  A    between atoms: C_25  and  C_26 
ROOT
HETATM    1  C   UNL     1     -44.664  56.855 -60.356  1.00  0.00     0.002 A 
HETATM    2  C   UNL     1     -44.262  57.720 -59.336  1.00  0.00     0.034 A 
HETATM    3  C   UNL     1     -43.638  57.250 -58.184  1.00  0.00     0.086 A 
HETATM    4  C   UNL     1     -43.412  55.854 -58.046  1.00  0.00     0.088 A 
HETATM    5  N   UNL     1     -42.817  55.317 -56.969  1.00  0.00    -0.225 NA
HETATM    6  C   UNL     1     -42.426  56.242 -56.060  1.00  0.00     0.183 A 
HETATM    7  C   UNL     1     -42.623  57.613 -56.183  1.00  0.00     0.125 A 
HETATM    8  N   UNL     1     -43.271  58.145 -57.251  1.00  0.00    -0.242 NA
HETATM    9  N   UNL     1     -41.793  56.012 -54.850  1.00  0.00    -0.197 N 
HETATM   10  C   UNL     1     -41.530  57.247 -54.251  1.00  0.00     0.143 A 
HETATM   11  C   UNL     1     -42.086  58.242 -55.039  1.00  0.00     0.110 A 
HETATM   12  C   UNL     1     -43.821  55.006 -59.068  1.00  0.00     0.034 A 
HETATM   13  C   UNL     1     -44.442  55.491 -60.220  1.00  0.00     0.002 A 
ENDROOT
BRANCH  11  14
HETATM   14  C   UNL     1     -42.187  59.619 -54.609  1.00  0.00     0.257 C 
HETATM   15  N   UNL     1     -42.947  60.392 -55.467  1.00  0.00    -0.356 N 
HETATM   16  H   UNL     1     -43.278  59.952 -56.317  1.00  0.00     0.162 HD
HETATM   17  O   UNL     1     -41.823  59.998 -53.502  1.00  0.00    -0.267 OA
BRANCH  15  18
HETATM   18  C   UNL     1     -43.718  61.500 -54.933  1.00  0.00     0.127 C 
BRANCH  18  19
HETATM   19  C   UNL     1     -45.088  61.031 -54.383  1.00  0.00     0.053 C 
BRANCH  19  20
HETATM   20  C   UNL     1     -45.294  60.870 -52.884  1.00  0.00    -0.082 C 
HETATM   21  C   UNL     1     -45.356  59.427 -52.417  1.00  0.00     0.034 C 
HETATM   22  C   UNL     1     -45.899  59.252 -50.996  1.00  0.00     0.005 C 
HETATM   23  C   UNL     1     -45.283  60.267 -50.044  1.00  0.00     0.004 C 
HETATM   24  C   UNL     1     -45.555  61.693 -50.516  1.00  0.00     0.027 C 
HETATM   25  C   UNL     1     -45.388  61.879 -51.998  1.00  0.00    -0.024 C 
ENDBRANCH  19  20
ENDBRANCH  18  19
ENDBRANCH  15  18
ENDBRANCH  11  14
BRANCH  10  26
HETATM   26  N   UNL     1     -40.935  57.357 -53.030  1.00  0.00    -0.383 N 
HETATM   27  H   UNL     1     -39.968  57.065 -52.902  1.00  0.00     0.157 HD
HETATM   28  H   UNL     1     -41.502  57.227 -52.187  1.00  0.00     0.157 HD
ENDBRANCH  10  26
BRANCH   9  29
HETATM   29  N   UNL     1     -41.697  54.799 -54.216  1.00  0.00    -0.176 NA
HETATM   30  C   UNL     1     -40.685  54.088 -54.598  1.00  0.00     0.150 C 
BRANCH  30  31
HETATM   31  C   UNL     1     -40.217  52.944 -53.792  1.00  0.00    -0.014 A 
HETATM   32  C   UNL     1     -40.003  51.705 -54.408  1.00  0.00     0.049 A 
HETATM   33  C   UNL     1     -39.728  50.596 -53.617  1.00  0.00     0.066 A 
HETATM   34  C   UNL     1     -39.646  50.711 -52.234  1.00  0.00     0.036 A 
HETATM   35  C   UNL     1     -39.843  51.951 -51.626  1.00  0.00     0.004 A 
HETATM   36  C   UNL     1     -40.139  53.072 -52.404  1.00  0.00     0.013 A 
BRANCH  33  37
HETATM   37  O   UNL     1     -39.560  49.359 -54.166  1.00  0.00    -0.361 OA
HETATM   38  H   UNL     1     -38.955  48.848 -53.603  1.00  0.00     0.217 HD
ENDBRANCH  33  37
ENDBRANCH  30  31
ENDBRANCH   9  29
TORSDOF 8
ENDMDL
