MODEL 1
REMARK VINA RESULT:      -9.3      0.000      0.000
REMARK  6 active torsions:
REMARK  status: ('A' for Active; 'I' for Inactive)
REMARK    1  A    between atoms: C_2  and  C_3 
REMARK    2  A    between atoms: N_6  and  C_8 
REMARK    3  A    between atoms: C_8  and  C_9 
REMARK    4  A    between atoms: C_12  and  C_13 
REMARK    5  A    between atoms: C_13  and  O_14 
REMARK    6  A    between atoms: N_24  and  C_25 
ROOT
HETATM    1  C   UNL     1     -42.191  59.340 -51.031  1.00  0.00     0.049 C 
HETATM    2  C   UNL     1     -42.609  58.664 -52.338  1.00  0.00     0.116 A 
HETATM    3  N   UNL     1     -41.449  58.209 -53.064  1.00  0.00    -0.324 N 
HETATM    4  C   UNL     1     -41.372  56.831 -53.110  1.00  0.00     0.326 A 
HETATM    5  O   UNL     1     -40.413  56.268 -53.603  1.00  0.00    -0.247 OA
HETATM    6  N   UNL     1     -42.498  56.305 -52.563  1.00  0.00    -0.263 N 
HETATM    7  C   UNL     1     -43.252  57.302 -52.003  1.00  0.00     0.256 A 
HETATM    8  O   UNL     1     -44.290  57.167 -51.372  1.00  0.00    -0.270 OA
HETATM    9  H   UNL     1     -40.555  58.690 -53.092  1.00  0.00     0.165 HD
ENDROOT
BRANCH   2  10
HETATM   10  C   UNL     1     -43.579  59.533 -53.202  1.00  0.00     0.026 C 
HETATM   11  C   UNL     1     -44.469  58.744 -54.184  1.00  0.00     0.035 C 
HETATM   12  C   UNL     1     -43.747  58.252 -55.428  1.00  0.00     0.235 C 
HETATM   13  N   UNL     1     -43.076  59.401 -56.140  1.00  0.00    -0.067 N 
HETATM   14  H   UNL     1     -43.827  60.009 -56.491  1.00  0.00     0.280 HD
HETATM   15  C   UNL     1     -42.182  60.228 -55.251  1.00  0.00     0.235 C 
HETATM   16  C   UNL     1     -42.909  60.674 -53.989  1.00  0.00     0.035 C 
BRANCH  13  17
HETATM   17  C   UNL     1     -42.298  58.943 -57.370  1.00  0.00     0.273 C 
BRANCH  17  18
HETATM   18  C   UNL     1     -43.093  58.097 -58.328  1.00  0.00    -0.033 A 
HETATM   19  C   UNL     1     -44.188  58.629 -59.022  1.00  0.00     0.010 A 
HETATM   20  C   UNL     1     -44.955  57.812 -59.860  1.00  0.00     0.018 A 
HETATM   21  C   UNL     1     -44.644  56.455 -60.013  1.00  0.00     0.039 A 
HETATM   22  C   UNL     1     -43.543  55.925 -59.332  1.00  0.00     0.018 A 
HETATM   23  C   UNL     1     -42.772  56.739 -58.499  1.00  0.00     0.010 A 
BRANCH  21  24
HETATM   24  C   UNL     1     -45.514  55.627 -60.894  1.00  0.00     0.292 C 
HETATM   25  O   UNL     1     -45.080  54.945 -61.807  1.00  0.00    -0.259 OA
BRANCH  24  26
HETATM   26  O   UNL     1     -46.816  55.773 -60.549  1.00  0.00    -0.323 OA
HETATM   27  C   UNL     1     -47.599  56.474 -61.519  1.00  0.00     0.213 C 
ENDBRANCH  24  26
ENDBRANCH  21  24
ENDBRANCH  17  18
ENDBRANCH  13  17
ENDBRANCH   2  10
BRANCH   6  28
HETATM   28  C   UNL     1     -42.801  54.877 -52.404  1.00  0.00     0.106 C 
HETATM   29  C   UNL     1     -42.557  54.057 -53.694  1.00  0.00     0.065 C 
HETATM   30  C   UNL     1     -41.389  53.196 -53.344  1.00  0.00    -0.050 A 
HETATM   31  C   UNL     1     -41.069  53.288 -51.989  1.00  0.00    -0.050 A 
HETATM   32  C   UNL     1     -40.687  52.347 -54.187  1.00  0.00     0.007 A 
HETATM   33  C   UNL     1     -41.985  54.221 -51.263  1.00  0.00     0.065 C 
HETATM   34  C   UNL     1     -40.039  52.536 -51.447  1.00  0.00     0.007 A 
HETATM   35  C   UNL     1     -39.322  51.683 -52.289  1.00  0.00     0.001 A 
HETATM   36  C   UNL     1     -39.644  51.590 -53.651  1.00  0.00     0.001 A 
ENDBRANCH   6  28
TORSDOF 6
ENDMDL
MODEL 2
REMARK VINA RESULT:      -8.9      2.110      7.622
REMARK  6 active torsions:
REMARK  status: ('A' for Active; 'I' for Inactive)
REMARK    1  A    between atoms: C_2  and  C_3 
REMARK    2  A    between atoms: N_6  and  C_8 
REMARK    3  A    between atoms: C_8  and  C_9 
REMARK    4  A    between atoms: C_12  and  C_13 
REMARK    5  A    between atoms: C_13  and  O_14 
REMARK    6  A    between atoms: N_24  and  C_25 
ROOT
HETATM    1  C   UNL     1     -43.597  61.805 -54.916  1.00  0.00     0.049 C 
HETATM    2  C   UNL     1     -43.156  60.340 -54.934  1.00  0.00     0.116 A 
HETATM    3  N   UNL     1     -44.302  59.469 -55.018  1.00  0.00    -0.324 N 
HETATM    4  C   UNL     1     -44.366  58.809 -56.229  1.00  0.00     0.326 A 
HETATM    5  O   UNL     1     -45.313  58.101 -56.514  1.00  0.00    -0.247 OA
HETATM    6  N   UNL     1     -43.242  59.081 -56.942  1.00  0.00    -0.263 N 
HETATM    7  C   UNL     1     -42.505  60.039 -56.300  1.00  0.00     0.256 A 
HETATM    8  O   UNL     1     -41.474  60.560 -56.701  1.00  0.00    -0.270 OA
HETATM    9  H   UNL     1     -45.199  59.645 -54.577  1.00  0.00     0.165 HD
ENDROOT
BRANCH   2  10
HETATM   10  C   UNL     1     -42.183  59.973 -53.768  1.00  0.00     0.026 C 
HETATM   11  C   UNL     1     -41.222  58.802 -54.058  1.00  0.00     0.035 C 
HETATM   12  C   UNL     1     -41.870  57.428 -53.996  1.00  0.00     0.235 C 
HETATM   13  N   UNL     1     -42.553  57.225 -52.665  1.00  0.00    -0.067 N 
HETATM   14  H   UNL     1     -41.810  57.202 -51.954  1.00  0.00     0.280 HD
HETATM   15  C   UNL     1     -43.515  58.328 -52.301  1.00  0.00     0.235 C 
HETATM   16  C   UNL     1     -42.860  59.698 -52.413  1.00  0.00     0.035 C 
BRANCH  13  17
HETATM   17  C   UNL     1     -43.259  55.875 -52.578  1.00  0.00     0.273 C 
BRANCH  17  18
HETATM   18  C   UNL     1     -42.336  54.687 -52.633  1.00  0.00    -0.033 A 
HETATM   19  C   UNL     1     -41.517  54.360 -51.545  1.00  0.00     0.010 A 
HETATM   20  C   UNL     1     -40.618  53.290 -51.636  1.00  0.00     0.018 A 
HETATM   21  C   UNL     1     -40.522  52.538 -52.814  1.00  0.00     0.039 A 
HETATM   22  C   UNL     1     -41.350  52.854 -53.897  1.00  0.00     0.018 A 
HETATM   23  C   UNL     1     -42.250  53.918 -53.807  1.00  0.00     0.010 A 
BRANCH  21  24
HETATM   24  C   UNL     1     -39.527  51.431 -52.865  1.00  0.00     0.292 C 
HETATM   25  O   UNL     1     -39.173  50.901 -53.905  1.00  0.00    -0.259 OA
BRANCH  24  26
HETATM   26  O   UNL     1     -39.120  51.101 -51.615  1.00  0.00    -0.323 OA
HETATM   27  C   UNL     1     -39.511  49.788 -51.204  1.00  0.00     0.213 C 
ENDBRANCH  24  26
ENDBRANCH  21  24
ENDBRANCH  17  18
ENDBRANCH  13  17
ENDBRANCH   2  10
BRANCH   6  28
HETATM   28  C   UNL     1     -42.928  58.587 -58.289  1.00  0.00     0.106 C 
HETATM   29  C   UNL     1     -42.539  57.089 -58.313  1.00  0.00     0.065 C 
HETATM   30  C   UNL     1     -43.677  56.445 -59.033  1.00  0.00    -0.050 A 
HETATM   31  C   UNL     1     -44.547  57.393 -59.573  1.00  0.00    -0.050 A 
HETATM   32  C   UNL     1     -43.889  55.089 -59.229  1.00  0.00     0.007 A 
HETATM   33  C   UNL     1     -44.098  58.790 -59.283  1.00  0.00     0.065 C 
HETATM   34  C   UNL     1     -45.649  57.007 -60.319  1.00  0.00     0.007 A 
HETATM   35  C   UNL     1     -45.875  55.643 -60.516  1.00  0.00     0.001 A 
HETATM   36  C   UNL     1     -45.000  54.690 -59.974  1.00  0.00     0.001 A 
ENDBRANCH   6  28
TORSDOF 6
ENDMDL
MODEL 3
REMARK VINA RESULT:      -8.9      2.105      7.586
REMARK  6 active torsions:
REMARK  status: ('A' for Active; 'I' for Inactive)
REMARK    1  A    between atoms: C_2  and  C_3 
REMARK    2  A    between atoms: N_6  and  C_8 
REMARK    3  A    between atoms: C_8  and  C_9 
REMARK    4  A    between atoms: C_12  and  C_13 
REMARK    5  A    between atoms: C_13  and  O_14 
REMARK    6  A    between atoms: N_24  and  C_25 
ROOT
HETATM    1  C   UNL     1     -43.859  61.393 -54.510  1.00  0.00     0.049 C 
HETATM    2  C   UNL     1     -43.057  60.095 -54.611  1.00  0.00     0.116 A 
HETATM    3  N   UNL     1     -43.940  58.954 -54.588  1.00  0.00    -0.324 N 
HETATM    4  C   UNL     1     -43.966  58.293 -55.799  1.00  0.00     0.326 A 
HETATM    5  O   UNL     1     -44.722  57.360 -55.995  1.00  0.00    -0.247 OA
HETATM    6  N   UNL     1     -43.038  58.843 -56.626  1.00  0.00    -0.263 N 
HETATM    7  C   UNL     1     -42.509  59.965 -56.047  1.00  0.00     0.256 A 
HETATM    8  O   UNL     1     -41.701  60.734 -56.547  1.00  0.00    -0.270 OA
HETATM    9  H   UNL     1     -44.796  58.893 -54.047  1.00  0.00     0.165 HD
ENDROOT
BRANCH   2  10
HETATM   10  C   UNL     1     -41.897  60.001 -53.568  1.00  0.00     0.026 C 
HETATM   11  C   UNL     1     -40.939  58.808 -53.757  1.00  0.00     0.035 C 
HETATM   12  C   UNL     1     -41.502  57.472 -53.300  1.00  0.00     0.235 C 
HETATM   13  N   UNL     1     -41.957  57.553 -51.864  1.00  0.00    -0.067 N 
HETATM   14  H   UNL     1     -41.112  57.695 -51.294  1.00  0.00     0.280 HD
HETATM   15  C   UNL     1     -42.902  58.696 -51.589  1.00  0.00     0.235 C 
HETATM   16  C   UNL     1     -42.340  60.018 -52.094  1.00  0.00     0.035 C 
BRANCH  13  17
HETATM   17  C   UNL     1     -42.576  56.245 -51.378  1.00  0.00     0.273 C 
BRANCH  17  18
HETATM   18  C   UNL     1     -41.749  55.022 -51.673  1.00  0.00    -0.033 A 
HETATM   19  C   UNL     1     -41.955  54.277 -52.842  1.00  0.00     0.010 A 
HETATM   20  C   UNL     1     -41.222  53.107 -53.070  1.00  0.00     0.018 A 
HETATM   21  C   UNL     1     -40.279  52.662 -52.134  1.00  0.00     0.039 A 
HETATM   22  C   UNL     1     -40.061  53.412 -50.973  1.00  0.00     0.018 A 
HETATM   23  C   UNL     1     -40.788  54.583 -50.746  1.00  0.00     0.010 A 
BRANCH  21  24
HETATM   24  C   UNL     1     -39.551  51.394 -52.415  1.00  0.00     0.292 C 
HETATM   25  O   UNL     1     -39.208  50.616 -51.541  1.00  0.00    -0.259 OA
BRANCH  24  26
HETATM   26  O   UNL     1     -39.312  51.267 -53.743  1.00  0.00    -0.323 OA
HETATM   27  C   UNL     1     -39.625  49.975 -54.269  1.00  0.00     0.213 C 
ENDBRANCH  24  26
ENDBRANCH  21  24
ENDBRANCH  17  18
ENDBRANCH  13  17
ENDBRANCH   2  10
BRANCH   6  28
HETATM   28  C   UNL     1     -42.761  58.440 -58.011  1.00  0.00     0.106 C 
HETATM   29  C   UNL     1     -42.421  56.936 -58.149  1.00  0.00     0.065 C 
HETATM   30  C   UNL     1     -43.591  56.383 -58.895  1.00  0.00    -0.050 A 
HETATM   31  C   UNL     1     -44.437  57.395 -59.350  1.00  0.00    -0.050 A 
HETATM   32  C   UNL     1     -43.850  55.052 -59.185  1.00  0.00     0.007 A 
HETATM   33  C   UNL     1     -43.938  58.751 -58.966  1.00  0.00     0.065 C 
HETATM   34  C   UNL     1     -45.563  57.099 -60.102  1.00  0.00     0.007 A 
HETATM   35  C   UNL     1     -45.836  55.761 -60.394  1.00  0.00     0.001 A 
HETATM   36  C   UNL     1     -44.984  54.743 -59.937  1.00  0.00     0.001 A 
ENDBRANCH   6  28
TORSDOF 6
ENDMDL
MODEL 4
REMARK VINA RESULT:      -8.4      1.529      2.014
REMARK  6 active torsions:
REMARK  status: ('A' for Active; 'I' for Inactive)
REMARK    1  A    between atoms: C_2  and  C_3 
REMARK    2  A    between atoms: N_6  and  C_8 
REMARK    3  A    between atoms: C_8  and  C_9 
REMARK    4  A    between atoms: C_12  and  C_13 
REMARK    5  A    between atoms: C_13  and  O_14 
REMARK    6  A    between atoms: N_24  and  C_25 
ROOT
HETATM    1  C   UNL     1     -40.419  58.723 -52.987  1.00  0.00     0.049 C 
HETATM    2  C   UNL     1     -41.860  58.351 -53.338  1.00  0.00     0.116 A 
HETATM    3  N   UNL     1     -41.967  58.003 -54.733  1.00  0.00    -0.324 N 
HETATM    4  C   UNL     1     -42.243  56.662 -54.914  1.00  0.00     0.326 A 
HETATM    5  O   UNL     1     -42.279  56.169 -56.025  1.00  0.00    -0.247 OA
HETATM    6  N   UNL     1     -42.466  56.088 -53.703  1.00  0.00    -0.263 N 
HETATM    7  C   UNL     1     -42.182  56.981 -52.706  1.00  0.00     0.256 A 
HETATM    8  O   UNL     1     -42.211  56.768 -51.503  1.00  0.00    -0.270 OA
HETATM    9  H   UNL     1     -41.438  58.438 -55.482  1.00  0.00     0.165 HD
ENDROOT
BRANCH   2  10
HETATM   10  C   UNL     1     -42.903  59.424 -52.886  1.00  0.00     0.026 C 
HETATM   11  C   UNL     1     -44.370  59.105 -53.240  1.00  0.00     0.035 C 
HETATM   12  C   UNL     1     -44.725  59.327 -54.702  1.00  0.00     0.235 C 
HETATM   13  N   UNL     1     -44.381  60.734 -55.122  1.00  0.00    -0.067 N 
HETATM   14  H   UNL     1     -45.007  61.360 -54.598  1.00  0.00     0.280 HD
HETATM   15  C   UNL     1     -42.959  61.132 -54.813  1.00  0.00     0.235 C 
HETATM   16  C   UNL     1     -42.609  60.860 -53.355  1.00  0.00     0.035 C 
BRANCH  13  17
HETATM   17  C   UNL     1     -44.676  60.986 -56.598  1.00  0.00     0.273 C 
BRANCH  17  18
HETATM   18  C   UNL     1     -45.100  59.760 -57.363  1.00  0.00    -0.033 A 
HETATM   19  C   UNL     1     -44.154  58.837 -57.826  1.00  0.00     0.010 A 
HETATM   20  C   UNL     1     -44.559  57.736 -58.590  1.00  0.00     0.018 A 
HETATM   21  C   UNL     1     -45.911  57.545 -58.905  1.00  0.00     0.039 A 
HETATM   22  C   UNL     1     -46.859  58.458 -58.430  1.00  0.00     0.018 A 
HETATM   23  C   UNL     1     -46.458  59.555 -57.664  1.00  0.00     0.010 A 
BRANCH  21  24
HETATM   24  C   UNL     1     -46.281  56.373 -59.746  1.00  0.00     0.292 C 
HETATM   25  O   UNL     1     -47.372  56.252 -60.276  1.00  0.00    -0.259 OA
BRANCH  24  26
HETATM   26  O   UNL     1     -45.259  55.485 -59.799  1.00  0.00    -0.323 OA
HETATM   27  C   UNL     1     -44.985  54.991 -61.113  1.00  0.00     0.213 C 
ENDBRANCH  24  26
ENDBRANCH  21  24
ENDBRANCH  17  18
ENDBRANCH  13  17
ENDBRANCH   2  10
BRANCH   6  28
HETATM   28  C   UNL     1     -42.775  54.673 -53.458  1.00  0.00     0.106 C 
HETATM   29  C   UNL     1     -42.209  53.729 -54.547  1.00  0.00     0.065 C 
HETATM   30  C   UNL     1     -41.148  52.964 -53.826  1.00  0.00    -0.050 A 
HETATM   31  C   UNL     1     -41.172  53.217 -52.454  1.00  0.00    -0.050 A 
HETATM   32  C   UNL     1     -40.247  52.061 -54.369  1.00  0.00     0.007 A 
HETATM   33  C   UNL     1     -42.254  54.181 -52.085  1.00  0.00     0.065 C 
HETATM   34  C   UNL     1     -40.295  52.574 -51.595  1.00  0.00     0.007 A 
HETATM   35  C   UNL     1     -39.380  51.668 -52.133  1.00  0.00     0.001 A 
HETATM   36  C   UNL     1     -39.356  51.413 -53.512  1.00  0.00     0.001 A 
ENDBRANCH   6  28
TORSDOF 6
ENDMDL
MODEL 5
REMARK VINA RESULT:      -8.4     16.130     21.121
REMARK  6 active torsions:
REMARK  status: ('A' for Active; 'I' for Inactive)
REMARK    1  A    between atoms: C_2  and  C_3 
REMARK    2  A    between atoms: N_6  and  C_8 
REMARK    3  A    between atoms: C_8  and  C_9 
REMARK    4  A    between atoms: C_12  and  C_13 
REMARK    5  A    between atoms: C_13  and  O_14 
REMARK    6  A    between atoms: N_24  and  C_25 
ROOT
HETATM    1  C   UNL     1     -35.197  38.804 -52.770  1.00  0.00     0.049 C 
HETATM    2  C   UNL     1     -35.484  40.306 -52.808  1.00  0.00     0.116 A 
HETATM    3  N   UNL     1     -34.616  40.963 -53.754  1.00  0.00    -0.324 N 
HETATM    4  C   UNL     1     -35.307  41.441 -54.849  1.00  0.00     0.326 A 
HETATM    5  O   UNL     1     -34.728  41.944 -55.793  1.00  0.00    -0.247 OA
HETATM    6  N   UNL     1     -36.639  41.266 -54.644  1.00  0.00    -0.263 N 
HETATM    7  C   UNL     1     -36.841  40.529 -53.508  1.00  0.00     0.256 A 
HETATM    8  O   UNL     1     -37.913  40.135 -53.073  1.00  0.00    -0.270 OA
HETATM    9  H   UNL     1     -33.652  40.702 -53.936  1.00  0.00     0.165 HD
ENDROOT
BRANCH   2  10
HETATM   10  C   UNL     1     -35.478  40.974 -51.395  1.00  0.00     0.026 C 
HETATM   11  C   UNL     1     -34.143  41.627 -50.983  1.00  0.00     0.035 C 
HETATM   12  C   UNL     1     -33.066  40.641 -50.559  1.00  0.00     0.235 C 
HETATM   13  N   UNL     1     -33.572  39.746 -49.454  1.00  0.00    -0.067 N 
HETATM   14  H   UNL     1     -33.721  40.348 -48.633  1.00  0.00     0.280 HD
HETATM   15  C   UNL     1     -34.879  39.064 -49.775  1.00  0.00     0.235 C 
HETATM   16  C   UNL     1     -35.931  40.062 -50.240  1.00  0.00     0.035 C 
BRANCH  13  17
HETATM   17  C   UNL     1     -32.538  38.707 -49.032  1.00  0.00     0.273 C 
BRANCH  17  18
HETATM   18  C   UNL     1     -31.867  39.000 -47.716  1.00  0.00    -0.033 A 
HETATM   19  C   UNL     1     -30.905  40.013 -47.608  1.00  0.00     0.010 A 
HETATM   20  C   UNL     1     -30.245  40.230 -46.393  1.00  0.00     0.018 A 
HETATM   21  C   UNL     1     -30.532  39.437 -45.273  1.00  0.00     0.039 A 
HETATM   22  C   UNL     1     -31.503  38.436 -45.376  1.00  0.00     0.018 A 
HETATM   23  C   UNL     1     -32.167  38.220 -46.586  1.00  0.00     0.010 A 
BRANCH  21  24
HETATM   24  C   UNL     1     -29.777  39.693 -44.015  1.00  0.00     0.292 C 
HETATM   25  O   UNL     1     -29.133  40.711 -43.821  1.00  0.00    -0.259 OA
BRANCH  24  26
HETATM   26  O   UNL     1     -29.890  38.640 -43.170  1.00  0.00    -0.323 OA
HETATM   27  C   UNL     1     -28.701  37.855 -43.057  1.00  0.00     0.213 C 
ENDBRANCH  24  26
ENDBRANCH  21  24
ENDBRANCH  17  18
ENDBRANCH  13  17
ENDBRANCH   2  10
BRANCH   6  28
HETATM   28  C   UNL     1     -37.716  41.625 -55.577  1.00  0.00     0.106 C 
HETATM   29  C   UNL     1     -37.232  42.510 -56.751  1.00  0.00     0.065 C 
HETATM   30  C   UNL     1     -37.367  41.617 -57.939  1.00  0.00    -0.050 A 
HETATM   31  C   UNL     1     -38.028  40.430 -57.619  1.00  0.00    -0.050 A 
HETATM   32  C   UNL     1     -36.959  41.877 -59.239  1.00  0.00     0.007 A 
HETATM   33  C   UNL     1     -38.420  40.384 -56.177  1.00  0.00     0.065 C 
HETATM   34  C   UNL     1     -38.294  39.478 -58.590  1.00  0.00     0.007 A 
HETATM   35  C   UNL     1     -37.882  39.728 -59.900  1.00  0.00     0.001 A 
HETATM   36  C   UNL     1     -37.218  40.922 -60.222  1.00  0.00     0.001 A 
ENDBRANCH   6  28
TORSDOF 6
ENDMDL
MODEL 6
REMARK VINA RESULT:      -8.0     16.695     21.064
REMARK  6 active torsions:
REMARK  status: ('A' for Active; 'I' for Inactive)
REMARK    1  A    between atoms: C_2  and  C_3 
REMARK    2  A    between atoms: N_6  and  C_8 
REMARK    3  A    between atoms: C_8  and  C_9 
REMARK    4  A    between atoms: C_12  and  C_13 
REMARK    5  A    between atoms: C_13  and  O_14 
REMARK    6  A    between atoms: N_24  and  C_25 
ROOT
HETATM    1  C   UNL     1     -32.385  40.417 -56.570  1.00  0.00     0.049 C 
HETATM    2  C   UNL     1     -33.651  40.183 -55.745  1.00  0.00     0.116 A 
HETATM    3  N   UNL     1     -33.966  41.351 -54.961  1.00  0.00    -0.324 N 
HETATM    4  C   UNL     1     -35.121  41.972 -55.394  1.00  0.00     0.326 A 
HETATM    5  O   UNL     1     -35.494  43.024 -54.910  1.00  0.00    -0.247 OA
HETATM    6  N   UNL     1     -35.698  41.211 -56.361  1.00  0.00    -0.263 N 
HETATM    7  C   UNL     1     -34.865  40.178 -56.698  1.00  0.00     0.256 A 
HETATM    8  O   UNL     1     -35.046  39.348 -57.577  1.00  0.00    -0.270 OA
HETATM    9  H   UNL     1     -33.281  41.968 -54.536  1.00  0.00     0.165 HD
ENDROOT
BRANCH   2  10
HETATM   10  C   UNL     1     -33.607  38.866 -54.904  1.00  0.00     0.026 C 
HETATM   11  C   UNL     1     -34.871  38.577 -54.070  1.00  0.00     0.035 C 
HETATM   12  C   UNL     1     -34.997  39.418 -52.809  1.00  0.00     0.235 C 
HETATM   13  N   UNL     1     -33.763  39.276 -51.953  1.00  0.00    -0.067 N 
HETATM   14  H   UNL     1     -33.744  38.303 -51.623  1.00  0.00     0.280 HD
HETATM   15  C   UNL     1     -32.476  39.544 -52.692  1.00  0.00     0.235 C 
HETATM   16  C   UNL     1     -32.388  38.726 -53.974  1.00  0.00     0.035 C 
BRANCH  13  17
HETATM   17  C   UNL     1     -33.827  40.143 -50.699  1.00  0.00     0.273 C 
BRANCH  17  18
HETATM   18  C   UNL     1     -33.145  39.547 -49.497  1.00  0.00    -0.033 A 
HETATM   19  C   UNL     1     -33.763  38.540 -48.743  1.00  0.00     0.010 A 
HETATM   20  C   UNL     1     -33.143  38.041 -47.592  1.00  0.00     0.018 A 
HETATM   21  C   UNL     1     -31.902  38.541 -47.176  1.00  0.00     0.039 A 
HETATM   22  C   UNL     1     -31.276  39.536 -47.935  1.00  0.00     0.018 A 
HETATM   23  C   UNL     1     -31.891  40.032 -49.087  1.00  0.00     0.010 A 
BRANCH  21  24
HETATM   24  C   UNL     1     -31.304  37.994 -45.927  1.00  0.00     0.292 C 
HETATM   25  O   UNL     1     -30.972  36.827 -45.803  1.00  0.00    -0.259 OA
BRANCH  24  26
HETATM   26  O   UNL     1     -31.221  38.957 -44.977  1.00  0.00    -0.323 OA
HETATM   27  C   UNL     1     -32.025  38.705 -43.822  1.00  0.00     0.213 C 
ENDBRANCH  24  26
ENDBRANCH  21  24
ENDBRANCH  17  18
ENDBRANCH  13  17
ENDBRANCH   2  10
BRANCH   6  28
HETATM   28  C   UNL     1     -36.932  41.526 -57.093  1.00  0.00     0.106 C 
HETATM   29  C   UNL     1     -36.688  41.838 -58.589  1.00  0.00     0.065 C 
HETATM   30  C   UNL     1     -37.320  40.682 -59.293  1.00  0.00    -0.050 A 
HETATM   31  C   UNL     1     -38.038  39.873 -58.412  1.00  0.00    -0.050 A 
HETATM   32  C   UNL     1     -37.288  40.405 -60.651  1.00  0.00     0.007 A 
HETATM   33  C   UNL     1     -37.978  40.387 -57.009  1.00  0.00     0.065 C 
HETATM   34  C   UNL     1     -38.738  38.767 -58.869  1.00  0.00     0.007 A 
HETATM   35  C   UNL     1     -38.706  38.476 -60.234  1.00  0.00     0.001 A 
HETATM   36  C   UNL     1     -37.984  39.290 -61.120  1.00  0.00     0.001 A 
ENDBRANCH   6  28
TORSDOF 6
ENDMDL
MODEL 7
REMARK VINA RESULT:      -8.0      2.219      8.011
REMARK  6 active torsions:
REMARK  status: ('A' for Active; 'I' for Inactive)
REMARK    1  A    between atoms: C_2  and  C_3 
REMARK    2  A    between atoms: N_6  and  C_8 
REMARK    3  A    between atoms: C_8  and  C_9 
REMARK    4  A    between atoms: C_12  and  C_13 
REMARK    5  A    between atoms: C_13  and  O_14 
REMARK    6  A    between atoms: N_24  and  C_25 
ROOT
HETATM    1  C   UNL     1     -41.933  56.677 -54.755  1.00  0.00     0.049 C 
HETATM    2  C   UNL     1     -42.744  57.970 -54.850  1.00  0.00     0.116 A 
HETATM    3  N   UNL     1     -41.880  59.088 -55.139  1.00  0.00    -0.324 N 
HETATM    4  C   UNL     1     -42.098  59.600 -56.403  1.00  0.00     0.326 A 
HETATM    5  O   UNL     1     -41.400  60.488 -56.854  1.00  0.00    -0.247 OA
HETATM    6  N   UNL     1     -43.169  58.974 -56.957  1.00  0.00    -0.263 N 
HETATM    7  C   UNL     1     -43.568  57.939 -56.154  1.00  0.00     0.256 A 
HETATM    8  O   UNL     1     -44.456  57.132 -56.389  1.00  0.00    -0.270 OA
HETATM    9  H   UNL     1     -40.933  59.196 -54.790  1.00  0.00     0.165 HD
ENDROOT
BRANCH   2  10
HETATM   10  C   UNL     1     -43.674  58.209 -53.618  1.00  0.00     0.026 C 
HETATM   11  C   UNL     1     -43.082  59.103 -52.511  1.00  0.00     0.035 C 
HETATM   12  C   UNL     1     -42.044  58.417 -51.637  1.00  0.00     0.235 C 
HETATM   13  N   UNL     1     -42.609  57.152 -51.038  1.00  0.00    -0.067 N 
HETATM   14  H   UNL     1     -43.354  57.441 -50.391  1.00  0.00     0.280 HD
HETATM   15  C   UNL     1     -43.211  56.215 -52.055  1.00  0.00     0.235 C 
HETATM   16  C   UNL     1     -44.214  56.931 -52.949  1.00  0.00     0.035 C 
BRANCH  13  17
HETATM   17  C   UNL     1     -41.583  56.405 -50.192  1.00  0.00     0.273 C 
BRANCH  17  18
HETATM   18  C   UNL     1     -41.153  55.081 -50.765  1.00  0.00    -0.033 A 
HETATM   19  C   UNL     1     -40.992  53.958 -49.944  1.00  0.00     0.010 A 
HETATM   20  C   UNL     1     -40.530  52.751 -50.482  1.00  0.00     0.018 A 
HETATM   21  C   UNL     1     -40.218  52.651 -51.845  1.00  0.00     0.039 A 
HETATM   22  C   UNL     1     -40.392  53.768 -52.670  1.00  0.00     0.018 A 
HETATM   23  C   UNL     1     -40.857  54.971 -52.135  1.00  0.00     0.010 A 
BRANCH  21  24
HETATM   24  C   UNL     1     -39.702  51.352 -52.357  1.00  0.00     0.292 C 
HETATM   25  O   UNL     1     -39.367  50.434 -51.626  1.00  0.00    -0.259 OA
BRANCH  24  26
HETATM   26  O   UNL     1     -39.637  51.366 -53.710  1.00  0.00    -0.323 OA
HETATM   27  C   UNL     1     -39.871  50.093 -54.317  1.00  0.00     0.213 C 
ENDBRANCH  24  26
ENDBRANCH  21  24
ENDBRANCH  17  18
ENDBRANCH  13  17
ENDBRANCH   2  10
BRANCH   6  28
HETATM   28  C   UNL     1     -43.717  59.215 -58.298  1.00  0.00     0.106 C 
HETATM   29  C   UNL     1     -43.206  58.206 -59.355  1.00  0.00     0.065 C 
HETATM   30  C   UNL     1     -44.423  57.411 -59.694  1.00  0.00    -0.050 A 
HETATM   31  C   UNL     1     -45.571  57.954 -59.117  1.00  0.00    -0.050 A 
HETATM   32  C   UNL     1     -44.496  56.294 -60.512  1.00  0.00     0.007 A 
HETATM   33  C   UNL     1     -45.265  59.183 -58.320  1.00  0.00     0.065 C 
HETATM   34  C   UNL     1     -46.817  57.392 -59.342  1.00  0.00     0.007 A 
HETATM   35  C   UNL     1     -46.900  56.262 -60.158  1.00  0.00     0.001 A 
HETATM   36  C   UNL     1     -45.746  55.716 -60.739  1.00  0.00     0.001 A 
ENDBRANCH   6  28
TORSDOF 6
ENDMDL
MODEL 8
REMARK VINA RESULT:      -7.9      1.963      2.827
REMARK  6 active torsions:
REMARK  status: ('A' for Active; 'I' for Inactive)
REMARK    1  A    between atoms: C_2  and  C_3 
REMARK    2  A    between atoms: N_6  and  C_8 
REMARK    3  A    between atoms: C_8  and  C_9 
REMARK    4  A    between atoms: C_12  and  C_13 
REMARK    5  A    between atoms: C_13  and  O_14 
REMARK    6  A    between atoms: N_24  and  C_25 
ROOT
HETATM    1  C   UNL     1     -40.344  58.620 -51.335  1.00  0.00     0.049 C 
HETATM    2  C   UNL     1     -41.786  58.332 -51.756  1.00  0.00     0.116 A 
HETATM    3  N   UNL     1     -41.887  58.261 -53.193  1.00  0.00    -0.324 N 
HETATM    4  C   UNL     1     -42.168  56.982 -53.631  1.00  0.00     0.326 A 
HETATM    5  O   UNL     1     -42.201  56.713 -54.817  1.00  0.00    -0.247 OA
HETATM    6  N   UNL     1     -42.400  56.185 -52.556  1.00  0.00    -0.263 N 
HETATM    7  C   UNL     1     -42.118  56.867 -51.403  1.00  0.00     0.256 A 
HETATM    8  O   UNL     1     -42.154  56.426 -50.264  1.00  0.00    -0.270 OA
HETATM    9  H   UNL     1     -41.352  58.829 -53.842  1.00  0.00     0.165 HD
ENDROOT
BRANCH   2  10
HETATM   10  C   UNL     1     -42.825  59.303 -51.110  1.00  0.00     0.026 C 
HETATM   11  C   UNL     1     -44.294  59.053 -51.508  1.00  0.00     0.035 C 
HETATM   12  C   UNL     1     -44.658  59.537 -52.902  1.00  0.00     0.235 C 
HETATM   13  N   UNL     1     -44.317  60.998 -53.061  1.00  0.00    -0.067 N 
HETATM   14  H   UNL     1     -44.940  61.516 -52.428  1.00  0.00     0.280 HD
HETATM   15  C   UNL     1     -42.893  61.334 -52.693  1.00  0.00     0.235 C 
HETATM   16  C   UNL     1     -42.534  60.801 -51.312  1.00  0.00     0.035 C 
BRANCH  13  17
HETATM   17  C   UNL     1     -44.621  61.514 -54.464  1.00  0.00     0.273 C 
BRANCH  17  18
HETATM   18  C   UNL     1     -44.135  60.619 -55.573  1.00  0.00    -0.033 A 
HETATM   19  C   UNL     1     -45.028  59.820 -56.298  1.00  0.00     0.010 A 
HETATM   20  C   UNL     1     -44.552  58.946 -57.282  1.00  0.00     0.018 A 
HETATM   21  C   UNL     1     -43.180  58.855 -57.553  1.00  0.00     0.039 A 
HETATM   22  C   UNL     1     -42.288  59.664 -56.840  1.00  0.00     0.018 A 
HETATM   23  C   UNL     1     -42.761  60.540 -55.860  1.00  0.00     0.010 A 
BRANCH  21  24
HETATM   24  C   UNL     1     -42.728  57.887 -58.590  1.00  0.00     0.292 C 
HETATM   25  O   UNL     1     -41.686  58.014 -59.210  1.00  0.00    -0.259 OA
BRANCH  24  26
HETATM   26  O   UNL     1     -43.642  56.899 -58.747  1.00  0.00    -0.323 OA
HETATM   27  C   UNL     1     -43.236  55.639 -58.206  1.00  0.00     0.213 C 
ENDBRANCH  24  26
ENDBRANCH  21  24
ENDBRANCH  17  18
ENDBRANCH  13  17
ENDBRANCH   2  10
BRANCH   6  28
HETATM   28  C   UNL     1     -42.718  54.751 -52.590  1.00  0.00     0.106 C 
HETATM   29  C   UNL     1     -42.274  54.062 -53.903  1.00  0.00     0.065 C 
HETATM   30  C   UNL     1     -41.170  53.157 -53.464  1.00  0.00    -0.050 A 
HETATM   31  C   UNL     1     -41.063  53.110 -52.074  1.00  0.00    -0.050 A 
HETATM   32  C   UNL     1     -40.342  52.389 -54.269  1.00  0.00     0.007 A 
HETATM   33  C   UNL     1     -42.085  53.976 -51.408  1.00  0.00     0.065 C 
HETATM   34  C   UNL     1     -40.127  52.296 -51.457  1.00  0.00     0.007 A 
HETATM   35  C   UNL     1     -39.284  51.524 -52.260  1.00  0.00     0.001 A 
HETATM   36  C   UNL     1     -39.392  51.571 -53.658  1.00  0.00     0.001 A 
ENDBRANCH   6  28
TORSDOF 6
ENDMDL
MODEL 9
REMARK VINA RESULT:      -7.9      4.532      8.889
REMARK  6 active torsions:
REMARK  status: ('A' for Active; 'I' for Inactive)
REMARK    1  A    between atoms: C_2  and  C_3 
REMARK    2  A    between atoms: N_6  and  C_8 
REMARK    3  A    between atoms: C_8  and  C_9 
REMARK    4  A    between atoms: C_12  and  C_13 
REMARK    5  A    between atoms: C_13  and  O_14 
REMARK    6  A    between atoms: N_24  and  C_25 
ROOT
HETATM    1  C   UNL     1     -45.168  59.843 -53.175  1.00  0.00     0.049 C 
HETATM    2  C   UNL     1     -44.382  60.384 -51.980  1.00  0.00     0.116 A 
HETATM    3  N   UNL     1     -43.457  61.405 -52.405  1.00  0.00    -0.324 N 
HETATM    4  C   UNL     1     -43.810  62.655 -51.935  1.00  0.00     0.326 A 
HETATM    5  O   UNL     1     -43.197  63.652 -52.267  1.00  0.00    -0.247 OA
HETATM    6  N   UNL     1     -44.867  62.529 -51.090  1.00  0.00    -0.263 N 
HETATM    7  C   UNL     1     -45.330  61.241 -51.115  1.00  0.00     0.256 A 
HETATM    8  O   UNL     1     -46.308  60.803 -50.525  1.00  0.00    -0.270 OA
HETATM    9  H   UNL     1     -42.956  61.405 -53.287  1.00  0.00     0.165 HD
ENDROOT
BRANCH   2  10
HETATM   10  C   UNL     1     -43.715  59.263 -51.119  1.00  0.00     0.026 C 
HETATM   11  C   UNL     1     -42.173  59.261 -51.124  1.00  0.00     0.035 C 
HETATM   12  C   UNL     1     -41.549  58.705 -52.394  1.00  0.00     0.235 C 
HETATM   13  N   UNL     1     -42.073  57.318 -52.677  1.00  0.00    -0.067 N 
HETATM   14  H   UNL     1     -41.726  56.713 -51.922  1.00  0.00     0.280 HD
HETATM   15  C   UNL     1     -43.579  57.228 -52.692  1.00  0.00     0.235 C 
HETATM   16  C   UNL     1     -44.186  57.831 -51.432  1.00  0.00     0.035 C 
BRANCH  13  17
HETATM   17  C   UNL     1     -41.509  56.740 -53.971  1.00  0.00     0.273 C 
BRANCH  17  18
HETATM   18  C   UNL     1     -41.022  55.321 -53.856  1.00  0.00    -0.033 A 
HETATM   19  C   UNL     1     -40.540  54.631 -54.976  1.00  0.00     0.010 A 
HETATM   20  C   UNL     1     -40.150  53.291 -54.864  1.00  0.00     0.018 A 
HETATM   21  C   UNL     1     -40.241  52.621 -53.637  1.00  0.00     0.039 A 
HETATM   22  C   UNL     1     -40.709  53.313 -52.514  1.00  0.00     0.018 A 
HETATM   23  C   UNL     1     -41.094  54.651 -52.622  1.00  0.00     0.010 A 
BRANCH  21  24
HETATM   24  C   UNL     1     -39.842  51.188 -53.584  1.00  0.00     0.292 C 
HETATM   25  O   UNL     1     -40.128  50.385 -54.456  1.00  0.00    -0.259 OA
BRANCH  24  26
HETATM   26  O   UNL     1     -39.164  50.925 -52.441  1.00  0.00    -0.323 OA
HETATM   27  C   UNL     1     -39.646  49.784 -51.728  1.00  0.00     0.213 C 
ENDBRANCH  24  26
ENDBRANCH  21  24
ENDBRANCH  17  18
ENDBRANCH  13  17
ENDBRANCH   2  10
BRANCH   6  28
HETATM   28  C   UNL     1     -45.555  63.622 -50.392  1.00  0.00     0.106 C 
HETATM   29  C   UNL     1     -46.892  63.184 -49.746  1.00  0.00     0.065 C 
HETATM   30  C   UNL     1     -46.617  63.274 -48.281  1.00  0.00    -0.050 A 
HETATM   31  C   UNL     1     -45.384  63.875 -48.024  1.00  0.00    -0.050 A 
HETATM   32  C   UNL     1     -47.448  62.881 -47.243  1.00  0.00     0.007 A 
HETATM   33  C   UNL     1     -44.682  64.264 -49.286  1.00  0.00     0.065 C 
HETATM   34  C   UNL     1     -44.954  64.093 -46.726  1.00  0.00     0.007 A 
HETATM   35  C   UNL     1     -45.780  63.694 -45.674  1.00  0.00     0.001 A 
HETATM   36  C   UNL     1     -47.021  63.091 -45.932  1.00  0.00     0.001 A 
ENDBRANCH   6  28
TORSDOF 6
ENDMDL
MODEL 10
REMARK VINA RESULT:      -7.8      2.518      6.083
REMARK  6 active torsions:
REMARK  status: ('A' for Active; 'I' for Inactive)
REMARK    1  A    between atoms: C_2  and  C_3 
REMARK    2  A    between atoms: N_6  and  C_8 
REMARK    3  A    between atoms: C_8  and  C_9 
REMARK    4  A    between atoms: C_12  and  C_13 
REMARK    5  A    between atoms: C_13  and  O_14 
REMARK    6  A    between atoms: N_24  and  C_25 
ROOT
HETATM    1  C   UNL     1     -45.274  57.035 -59.043  1.00  0.00     0.049 C 
HETATM    2  C   UNL     1     -44.052  57.530 -58.266  1.00  0.00     0.116 A 
HETATM    3  N   UNL     1     -44.428  57.920 -56.929  1.00  0.00    -0.324 N 
HETATM    4  C   UNL     1     -43.905  57.071 -55.974  1.00  0.00     0.326 A 
HETATM    5  O   UNL     1     -44.190  57.191 -54.798  1.00  0.00    -0.247 OA
HETATM    6  N   UNL     1     -43.072  56.183 -56.578  1.00  0.00    -0.263 N 
HETATM    7  C   UNL     1     -43.156  56.318 -57.938  1.00  0.00     0.256 A 
HETATM    8  O   UNL     1     -42.591  55.632 -58.776  1.00  0.00    -0.270 OA
HETATM    9  H   UNL     1     -45.307  58.360 -56.678  1.00  0.00     0.165 HD
ENDROOT
BRANCH   2  10
HETATM   10  C   UNL     1     -43.239  58.626 -59.026  1.00  0.00     0.026 C 
HETATM   11  C   UNL     1     -41.940  59.081 -58.331  1.00  0.00     0.035 C 
HETATM   12  C   UNL     1     -42.153  60.011 -57.147  1.00  0.00     0.235 C 
HETATM   13  N   UNL     1     -42.972  61.211 -57.559  1.00  0.00    -0.067 N 
HETATM   14  H   UNL     1     -42.395  61.748 -58.220  1.00  0.00     0.280 HD
HETATM   15  C   UNL     1     -44.266  60.856 -58.249  1.00  0.00     0.235 C 
HETATM   16  C   UNL     1     -44.036  59.889 -59.402  1.00  0.00     0.035 C 
BRANCH  13  17
HETATM   17  C   UNL     1     -43.252  62.148 -56.388  1.00  0.00     0.273 C 
BRANCH  17  18
HETATM   18  C   UNL     1     -43.771  61.460 -55.153  1.00  0.00    -0.033 A 
HETATM   19  C   UNL     1     -45.087  60.984 -55.093  1.00  0.00     0.010 A 
HETATM   20  C   UNL     1     -45.572  60.404 -53.915  1.00  0.00     0.018 A 
HETATM   21  C   UNL     1     -44.754  60.296 -52.783  1.00  0.00     0.039 A 
HETATM   22  C   UNL     1     -43.435  60.757 -52.846  1.00  0.00     0.018 A 
HETATM   23  C   UNL     1     -42.947  61.332 -54.022  1.00  0.00     0.010 A 
BRANCH  21  24
HETATM   24  C   UNL     1     -45.333  59.698 -51.548  1.00  0.00     0.292 C 
HETATM   25  O   UNL     1     -46.442  59.982 -51.128  1.00  0.00    -0.259 OA
BRANCH  24  26
HETATM   26  O   UNL     1     -44.451  58.845 -50.974  1.00  0.00    -0.323 OA
HETATM   27  C   UNL     1     -44.681  57.470 -51.289  1.00  0.00     0.213 C 
ENDBRANCH  24  26
ENDBRANCH  21  24
ENDBRANCH  17  18
ENDBRANCH  13  17
ENDBRANCH   2  10
BRANCH   6  28
HETATM   28  C   UNL     1     -42.330  55.101 -55.916  1.00  0.00     0.106 C 
HETATM   29  C   UNL     1     -41.182  55.615 -55.015  1.00  0.00     0.065 C 
HETATM   30  C   UNL     1     -41.645  55.279 -53.636  1.00  0.00    -0.050 A 
HETATM   31  C   UNL     1     -42.795  54.489 -53.657  1.00  0.00    -0.050 A 
HETATM   32  C   UNL     1     -41.040  55.625 -52.437  1.00  0.00     0.007 A 
HETATM   33  C   UNL     1     -43.243  54.197 -55.054  1.00  0.00     0.065 C 
HETATM   34  C   UNL     1     -43.367  54.030 -52.481  1.00  0.00     0.007 A 
HETATM   35  C   UNL     1     -42.769  54.380 -51.269  1.00  0.00     0.001 A 
HETATM   36  C   UNL     1     -41.612  55.173 -51.247  1.00  0.00     0.001 A 
ENDBRANCH   6  28
TORSDOF 6
ENDMDL
