MODEL 1
REMARK VINA RESULT:      -8.0      0.000      0.000
REMARK  7 active torsions:
REMARK  status: ('A' for Active; 'I' for Inactive)
REMARK    1  A    between atoms: C_6  and  N_7 
REMARK    2  A    between atoms: N_7  and  C_8 
REMARK    3  A    between atoms: C_13  and  C_14 
REMARK       I    between atoms: C_14  and  N_15 
REMARK    4  A    between atoms: N_15  and  C_16 
REMARK    5  A    between atoms: C_16  and  C_17 
REMARK    6  A    between atoms: C_17  and  N_18 
REMARK       I    between atoms: N_18  and  C_19 
REMARK    7  A    between atoms: C_19  and  C_20 
ROOT
HETATM    1  C   UNL     1     -43.927  57.810 -54.241  1.00  0.00     0.255 C 
HETATM    2  N   UNL     1     -43.139  57.587 -55.349  1.00  0.00    -0.355 N 
HETATM    3  O   UNL     1     -44.847  57.073 -53.902  1.00  0.00    -0.268 OA
HETATM    4  H   UNL     1     -42.323  58.161 -55.520  1.00  0.00     0.162 HD
ENDROOT
BRANCH   1   5
HETATM    5  C   UNL     1     -43.612  59.019 -53.444  1.00  0.00     0.077 A 
HETATM    6  C   UNL     1     -42.638  58.969 -52.430  1.00  0.00     0.143 A 
HETATM    7  N   UNL     1     -42.371  60.072 -51.686  1.00  0.00    -0.242 NA
HETATM    8  C   UNL     1     -43.073  61.204 -51.915  1.00  0.00     0.119 A 
HETATM    9  C   UNL     1     -44.055  61.319 -52.880  1.00  0.00     0.020 A 
HETATM   10  C   UNL     1     -44.331  60.204 -53.658  1.00  0.00     0.022 A 
BRANCH   6  11
HETATM   11  N   UNL     1     -41.887  57.784 -52.242  1.00  0.00    -0.340 N 
HETATM   12  H   UNL     1     -41.535  57.455 -53.145  1.00  0.00     0.167 HD
BRANCH  11  13
HETATM   13  C   UNL     1     -41.994  56.759 -51.283  1.00  0.00     0.036 A 
HETATM   14  C   UNL     1     -43.040  55.832 -51.405  1.00  0.00     0.071 A 
HETATM   15  C   UNL     1     -43.154  54.767 -50.514  1.00  0.00     0.118 A 
HETATM   16  C   UNL     1     -42.230  54.580 -49.497  1.00  0.00     0.042 A 
HETATM   17  F   UNL     1     -44.170  53.904 -50.648  1.00  0.00    -0.206 F 
HETATM   18  C   UNL     1     -41.168  55.469 -49.377  1.00  0.00     0.005 A 
HETATM   19  C   UNL     1     -41.048  56.541 -50.271  1.00  0.00     0.029 A 
ENDBRANCH  11  13
ENDBRANCH   6  11
ENDBRANCH   1   5
BRANCH   2  20
HETATM   20  C   UNL     1     -43.351  56.444 -56.218  1.00  0.00     0.142 C 
BRANCH  20  21
HETATM   21  C   UNL     1     -42.035  55.770 -56.621  1.00  0.00     0.142 C 
BRANCH  21  22
HETATM   22  N   UNL     1     -41.667  54.671 -55.746  1.00  0.00    -0.355 N 
HETATM   23  C   UNL     1     -40.891  54.881 -54.626  1.00  0.00     0.251 C 
HETATM   24  O   UNL     1     -40.494  55.987 -54.282  1.00  0.00    -0.268 OA
HETATM   25  H   UNL     1     -41.839  53.734 -56.082  1.00  0.00     0.162 HD
BRANCH  23  26
HETATM   26  C   UNL     1     -40.512  53.675 -53.839  1.00  0.00     0.033 A 
HETATM   27  C   UNL     1     -40.307  52.473 -54.528  1.00  0.00     0.042 A 
HETATM   28  C   UNL     1     -39.947  51.314 -53.833  1.00  0.00     0.056 A 
HETATM   29 CL   UNL     1     -39.725  49.865 -54.747  1.00  0.00    -0.083 Cl
HETATM   30  C   UNL     1     -39.779  51.356 -52.445  1.00  0.00     0.055 A 
HETATM   31 CL   UNL     1     -39.338  49.966 -51.520  1.00  0.00    -0.083 Cl
HETATM   32  C   UNL     1     -39.966  52.560 -51.758  1.00  0.00     0.026 A 
HETATM   33  C   UNL     1     -40.327  53.720 -52.451  1.00  0.00     0.019 A 
ENDBRANCH  23  26
ENDBRANCH  21  22
ENDBRANCH  20  21
ENDBRANCH   2  20
TORSDOF 7
ENDMDL
MODEL 2
REMARK VINA RESULT:      -8.0      1.923      3.972
REMARK  7 active torsions:
REMARK  status: ('A' for Active; 'I' for Inactive)
REMARK    1  A    between atoms: C_6  and  N_7 
REMARK    2  A    between atoms: N_7  and  C_8 
REMARK    3  A    between atoms: C_13  and  C_14 
REMARK       I    between atoms: C_14  and  N_15 
REMARK    4  A    between atoms: N_15  and  C_16 
REMARK    5  A    between atoms: C_16  and  C_17 
REMARK    6  A    between atoms: C_17  and  N_18 
REMARK       I    between atoms: N_18  and  C_19 
REMARK    7  A    between atoms: C_19  and  C_20 
ROOT
HETATM    1  C   UNL     1     -41.207  59.179 -52.391  1.00  0.00     0.255 C 
HETATM    2  N   UNL     1     -41.673  58.366 -51.382  1.00  0.00    -0.355 N 
HETATM    3  O   UNL     1     -40.016  59.388 -52.600  1.00  0.00    -0.268 OA
HETATM    4  H   UNL     1     -42.658  58.138 -51.323  1.00  0.00     0.162 HD
ENDROOT
BRANCH   1   5
HETATM    5  C   UNL     1     -42.234  59.819 -53.247  1.00  0.00     0.077 A 
HETATM    6  C   UNL     1     -42.482  59.333 -54.544  1.00  0.00     0.143 A 
HETATM    7  N   UNL     1     -43.405  59.936 -55.334  1.00  0.00    -0.242 NA
HETATM    8  C   UNL     1     -44.058  61.024 -54.866  1.00  0.00     0.119 A 
HETATM    9  C   UNL     1     -43.852  61.565 -53.613  1.00  0.00     0.020 A 
HETATM   10  C   UNL     1     -42.920  60.952 -52.787  1.00  0.00     0.022 A 
BRANCH   6  11
HETATM   11  N   UNL     1     -41.816  58.166 -54.991  1.00  0.00    -0.340 N 
HETATM   12  H   UNL     1     -41.100  58.420 -55.675  1.00  0.00     0.167 HD
BRANCH  11  13
HETATM   13  C   UNL     1     -42.263  56.837 -55.126  1.00  0.00     0.036 A 
HETATM   14  C   UNL     1     -42.744  56.171 -53.989  1.00  0.00     0.071 A 
HETATM   15  C   UNL     1     -43.249  54.876 -54.084  1.00  0.00     0.118 A 
HETATM   16  C   UNL     1     -43.310  54.217 -55.302  1.00  0.00     0.042 A 
HETATM   17  F   UNL     1     -43.691  54.260 -52.979  1.00  0.00    -0.206 F 
HETATM   18  C   UNL     1     -42.867  54.870 -56.447  1.00  0.00     0.005 A 
HETATM   19  C   UNL     1     -42.359  56.173 -56.357  1.00  0.00     0.029 A 
ENDBRANCH  11  13
ENDBRANCH   6  11
ENDBRANCH   1   5
BRANCH   2  20
HETATM   20  C   UNL     1     -40.770  57.691 -50.467  1.00  0.00     0.142 C 
BRANCH  20  21
HETATM   21  C   UNL     1     -41.361  56.382 -49.932  1.00  0.00     0.142 C 
BRANCH  21  22
HETATM   22  N   UNL     1     -41.204  55.269 -50.850  1.00  0.00    -0.355 N 
HETATM   23  C   UNL     1     -40.294  54.263 -50.604  1.00  0.00     0.251 C 
HETATM   24  O   UNL     1     -39.594  54.223 -49.599  1.00  0.00    -0.268 OA
HETATM   25  H   UNL     1     -41.642  55.351 -51.757  1.00  0.00     0.162 HD
BRANCH  23  26
HETATM   26  C   UNL     1     -40.162  53.208 -51.646  1.00  0.00     0.033 A 
HETATM   27  C   UNL     1     -39.888  51.899 -51.231  1.00  0.00     0.042 A 
HETATM   28  C   UNL     1     -39.759  50.872 -52.172  1.00  0.00     0.056 A 
HETATM   29 CL   UNL     1     -39.408  49.286 -51.588  1.00  0.00    -0.083 Cl
HETATM   30  C   UNL     1     -39.913  51.151 -53.535  1.00  0.00     0.055 A 
HETATM   31 CL   UNL     1     -39.766  49.937 -54.753  1.00  0.00    -0.083 Cl
HETATM   32  C   UNL     1     -40.204  52.455 -53.949  1.00  0.00     0.026 A 
HETATM   33  C   UNL     1     -40.334  53.482 -53.009  1.00  0.00     0.019 A 
ENDBRANCH  23  26
ENDBRANCH  21  22
ENDBRANCH  20  21
ENDBRANCH   2  20
TORSDOF 7
ENDMDL
MODEL 3
REMARK VINA RESULT:      -7.8      3.825      6.643
REMARK  7 active torsions:
REMARK  status: ('A' for Active; 'I' for Inactive)
REMARK    1  A    between atoms: C_6  and  N_7 
REMARK    2  A    between atoms: N_7  and  C_8 
REMARK    3  A    between atoms: C_13  and  C_14 
REMARK       I    between atoms: C_14  and  N_15 
REMARK    4  A    between atoms: N_15  and  C_16 
REMARK    5  A    between atoms: C_16  and  C_17 
REMARK    6  A    between atoms: C_17  and  N_18 
REMARK       I    between atoms: N_18  and  C_19 
REMARK    7  A    between atoms: C_19  and  C_20 
ROOT
HETATM    1  C   UNL     1     -42.505  54.322 -54.611  1.00  0.00     0.255 C 
HETATM    2  N   UNL     1     -42.076  54.673 -55.873  1.00  0.00    -0.355 N 
HETATM    3  O   UNL     1     -43.625  54.578 -54.178  1.00  0.00    -0.268 OA
HETATM    4  H   UNL     1     -41.186  54.341 -56.221  1.00  0.00     0.162 HD
ENDROOT
BRANCH   1   5
HETATM    5  C   UNL     1     -41.529  53.598 -53.763  1.00  0.00     0.077 A 
HETATM    6  C   UNL     1     -41.156  54.115 -52.509  1.00  0.00     0.143 A 
HETATM    7  N   UNL     1     -40.244  53.462 -51.746  1.00  0.00    -0.242 NA
HETATM    8  C   UNL     1     -39.680  52.330 -52.223  1.00  0.00     0.119 A 
HETATM    9  C   UNL     1     -39.984  51.777 -53.452  1.00  0.00     0.020 A 
HETATM   10  C   UNL     1     -40.926  52.425 -54.238  1.00  0.00     0.022 A 
BRANCH   6  11
HETATM   11  N   UNL     1     -41.796  55.277 -52.015  1.00  0.00    -0.340 N 
HETATM   12  H   UNL     1     -42.808  55.187 -52.130  1.00  0.00     0.167 HD
BRANCH  11  13
HETATM   13  C   UNL     1     -41.365  56.617 -51.948  1.00  0.00     0.036 A 
HETATM   14  C   UNL     1     -41.374  57.263 -50.703  1.00  0.00     0.071 A 
HETATM   15  C   UNL     1     -40.903  58.569 -50.576  1.00  0.00     0.118 A 
HETATM   16  C   UNL     1     -40.396  59.258 -51.667  1.00  0.00     0.042 A 
HETATM   17  F   UNL     1     -40.935  59.165 -49.377  1.00  0.00    -0.206 F 
HETATM   18  C   UNL     1     -40.349  58.625 -52.905  1.00  0.00     0.005 A 
HETATM   19  C   UNL     1     -40.820  57.312 -53.037  1.00  0.00     0.029 A 
ENDBRANCH  11  13
ENDBRANCH   6  11
ENDBRANCH   1   5
BRANCH   2  20
HETATM   20  C   UNL     1     -42.933  55.395 -56.796  1.00  0.00     0.142 C 
BRANCH  20  21
HETATM   21  C   UNL     1     -42.640  56.900 -56.802  1.00  0.00     0.142 C 
BRANCH  21  22
HETATM   22  N   UNL     1     -42.824  57.520 -55.504  1.00  0.00    -0.355 N 
HETATM   23  C   UNL     1     -44.064  57.965 -55.095  1.00  0.00     0.251 C 
HETATM   24  O   UNL     1     -45.078  57.840 -55.771  1.00  0.00    -0.268 OA
HETATM   25  H   UNL     1     -41.993  57.782 -54.993  1.00  0.00     0.162 HD
BRANCH  23  26
HETATM   26  C   UNL     1     -44.127  58.652 -53.775  1.00  0.00     0.033 A 
HETATM   27  C   UNL     1     -43.699  59.983 -53.702  1.00  0.00     0.042 A 
HETATM   28  C   UNL     1     -43.743  60.673 -52.485  1.00  0.00     0.056 A 
HETATM   29 CL   UNL     1     -43.186  62.307 -52.467  1.00  0.00    -0.083 Cl
HETATM   30  C   UNL     1     -44.225  60.034 -51.338  1.00  0.00     0.055 A 
HETATM   31 CL   UNL     1     -44.307  60.819 -49.802  1.00  0.00    -0.083 Cl
HETATM   32  C   UNL     1     -44.669  58.709 -51.414  1.00  0.00     0.026 A 
HETATM   33  C   UNL     1     -44.626  58.019 -52.630  1.00  0.00     0.019 A 
ENDBRANCH  23  26
ENDBRANCH  21  22
ENDBRANCH  20  21
ENDBRANCH   2  20
TORSDOF 7
ENDMDL
MODEL 4
REMARK VINA RESULT:      -7.7      2.688      5.537
REMARK  7 active torsions:
REMARK  status: ('A' for Active; 'I' for Inactive)
REMARK    1  A    between atoms: C_6  and  N_7 
REMARK    2  A    between atoms: N_7  and  C_8 
REMARK    3  A    between atoms: C_13  and  C_14 
REMARK       I    between atoms: C_14  and  N_15 
REMARK    4  A    between atoms: N_15  and  C_16 
REMARK    5  A    between atoms: C_16  and  C_17 
REMARK    6  A    between atoms: C_17  and  N_18 
REMARK       I    between atoms: N_18  and  C_19 
REMARK    7  A    between atoms: C_19  and  C_20 
ROOT
HETATM    1  C   UNL     1     -43.354  58.837 -57.079  1.00  0.00     0.255 C 
HETATM    2  N   UNL     1     -44.456  59.642 -56.883  1.00  0.00    -0.355 N 
HETATM    3  O   UNL     1     -42.303  58.962 -56.458  1.00  0.00    -0.268 OA
HETATM    4  H   UNL     1     -45.333  59.426 -57.339  1.00  0.00     0.162 HD
ENDROOT
BRANCH   1   5
HETATM    5  C   UNL     1     -43.489  57.777 -58.105  1.00  0.00     0.077 A 
HETATM    6  C   UNL     1     -43.469  56.420 -57.734  1.00  0.00     0.143 A 
HETATM    7  N   UNL     1     -43.567  55.452 -58.679  1.00  0.00    -0.242 NA
HETATM    8  C   UNL     1     -43.656  55.812 -59.979  1.00  0.00     0.119 A 
HETATM    9  C   UNL     1     -43.663  57.122 -60.417  1.00  0.00     0.020 A 
HETATM   10  C   UNL     1     -43.576  58.124 -59.461  1.00  0.00     0.022 A 
BRANCH   6  11
HETATM   11  N   UNL     1     -43.421  56.074 -56.362  1.00  0.00    -0.340 N 
HETATM   12  H   UNL     1     -43.939  56.766 -55.815  1.00  0.00     0.167 HD
BRANCH  11  13
HETATM   13  C   UNL     1     -42.444  55.393 -55.609  1.00  0.00     0.036 A 
HETATM   14  C   UNL     1     -42.633  54.031 -55.339  1.00  0.00     0.071 A 
HETATM   15  C   UNL     1     -41.668  53.301 -54.647  1.00  0.00     0.118 A 
HETATM   16  C   UNL     1     -40.487  53.894 -54.226  1.00  0.00     0.042 A 
HETATM   17  F   UNL     1     -41.881  52.003 -54.393  1.00  0.00    -0.206 F 
HETATM   18  C   UNL     1     -40.265  55.236 -54.511  1.00  0.00     0.005 A 
HETATM   19  C   UNL     1     -41.233  55.973 -55.207  1.00  0.00     0.029 A 
ENDBRANCH  11  13
ENDBRANCH   6  11
ENDBRANCH   1   5
BRANCH   2  20
HETATM   20  C   UNL     1     -44.448  60.723 -55.915  1.00  0.00     0.142 C 
BRANCH  20  21
HETATM   21  C   UNL     1     -45.059  60.304 -54.573  1.00  0.00     0.142 C 
BRANCH  21  22
HETATM   22  N   UNL     1     -44.146  59.534 -53.748  1.00  0.00    -0.355 N 
HETATM   23  C   UNL     1     -44.250  58.162 -53.657  1.00  0.00     0.251 C 
HETATM   24  O   UNL     1     -45.081  57.510 -54.278  1.00  0.00    -0.268 OA
HETATM   25  H   UNL     1     -43.558  60.046 -53.105  1.00  0.00     0.162 HD
BRANCH  23  26
HETATM   26  C   UNL     1     -43.310  57.479 -52.727  1.00  0.00     0.033 A 
HETATM   27  C   UNL     1     -43.545  56.133 -52.420  1.00  0.00     0.042 A 
HETATM   28  C   UNL     1     -42.688  55.446 -51.554  1.00  0.00     0.056 A 
HETATM   29 CL   UNL     1     -43.048  53.793 -51.210  1.00  0.00    -0.083 Cl
HETATM   30  C   UNL     1     -41.584  56.103 -50.998  1.00  0.00     0.055 A 
HETATM   31 CL   UNL     1     -40.484  55.322 -49.920  1.00  0.00    -0.083 Cl
HETATM   32  C   UNL     1     -41.339  57.443 -51.318  1.00  0.00     0.026 A 
HETATM   33  C   UNL     1     -42.195  58.130 -52.184  1.00  0.00     0.019 A 
ENDBRANCH  23  26
ENDBRANCH  21  22
ENDBRANCH  20  21
ENDBRANCH   2  20
TORSDOF 7
ENDMDL
MODEL 5
REMARK VINA RESULT:      -7.5      4.134      6.551
REMARK  7 active torsions:
REMARK  status: ('A' for Active; 'I' for Inactive)
REMARK    1  A    between atoms: C_6  and  N_7 
REMARK    2  A    between atoms: N_7  and  C_8 
REMARK    3  A    between atoms: C_13  and  C_14 
REMARK       I    between atoms: C_14  and  N_15 
REMARK    4  A    between atoms: N_15  and  C_16 
REMARK    5  A    between atoms: C_16  and  C_17 
REMARK    6  A    between atoms: C_17  and  N_18 
REMARK       I    between atoms: N_18  and  C_19 
REMARK    7  A    between atoms: C_19  and  C_20 
ROOT
HETATM    1  C   UNL     1     -43.875  56.287 -59.088  1.00  0.00     0.255 C 
HETATM    2  N   UNL     1     -43.879  56.214 -57.712  1.00  0.00    -0.355 N 
HETATM    3  O   UNL     1     -43.057  55.708 -59.797  1.00  0.00    -0.268 OA
HETATM    4  H   UNL     1     -44.640  56.617 -57.181  1.00  0.00     0.162 HD
ENDROOT
BRANCH   1   5
HETATM    5  C   UNL     1     -44.931  57.124 -59.704  1.00  0.00     0.077 A 
HETATM    6  C   UNL     1     -44.610  58.367 -60.279  1.00  0.00     0.143 A 
HETATM    7  N   UNL     1     -45.583  59.141 -60.820  1.00  0.00    -0.242 NA
HETATM    8  C   UNL     1     -46.864  58.713 -60.771  1.00  0.00     0.119 A 
HETATM    9  C   UNL     1     -47.255  57.514 -60.206  1.00  0.00     0.020 A 
HETATM   10  C   UNL     1     -46.269  56.705 -59.660  1.00  0.00     0.022 A 
BRANCH   6  11
HETATM   11  N   UNL     1     -43.255  58.769 -60.357  1.00  0.00    -0.340 N 
HETATM   12  H   UNL     1     -42.671  57.965 -60.600  1.00  0.00     0.167 HD
BRANCH  11  13
HETATM   13  C   UNL     1     -42.546  59.781 -59.680  1.00  0.00     0.036 A 
HETATM   14  C   UNL     1     -42.468  59.725 -58.281  1.00  0.00     0.071 A 
HETATM   15  C   UNL     1     -41.730  60.670 -57.571  1.00  0.00     0.118 A 
HETATM   16  C   UNL     1     -41.038  61.678 -58.224  1.00  0.00     0.042 A 
HETATM   17  F   UNL     1     -41.684  60.599 -56.234  1.00  0.00    -0.206 F 
HETATM   18  C   UNL     1     -41.076  61.734 -59.613  1.00  0.00     0.005 A 
HETATM   19  C   UNL     1     -41.815  60.785 -60.332  1.00  0.00     0.029 A 
ENDBRANCH  11  13
ENDBRANCH   6  11
ENDBRANCH   1   5
BRANCH   2  20
HETATM   20  C   UNL     1     -42.890  55.437 -56.987  1.00  0.00     0.142 C 
BRANCH  20  21
HETATM   21  C   UNL     1     -42.824  55.823 -55.505  1.00  0.00     0.142 C 
BRANCH  21  22
HETATM   22  N   UNL     1     -42.317  54.756 -54.661  1.00  0.00    -0.355 N 
HETATM   23  C   UNL     1     -40.981  54.685 -54.327  1.00  0.00     0.251 C 
HETATM   24  O   UNL     1     -40.155  55.517 -54.683  1.00  0.00    -0.268 OA
HETATM   25  H   UNL     1     -42.930  53.973 -54.484  1.00  0.00     0.162 HD
BRANCH  23  26
HETATM   26  C   UNL     1     -40.554  53.511 -53.517  1.00  0.00     0.033 A 
HETATM   27  C   UNL     1     -40.205  52.335 -54.192  1.00  0.00     0.042 A 
HETATM   28  C   UNL     1     -39.794  51.205 -53.477  1.00  0.00     0.056 A 
HETATM   29 CL   UNL     1     -39.392  49.786 -54.375  1.00  0.00    -0.083 Cl
HETATM   30  C   UNL     1     -39.722  51.252 -52.080  1.00  0.00     0.055 A 
HETATM   31 CL   UNL     1     -39.227  49.898 -51.129  1.00  0.00    -0.083 Cl
HETATM   32  C   UNL     1     -40.054  52.432 -51.406  1.00  0.00     0.026 A 
HETATM   33  C   UNL     1     -40.465  53.562 -52.120  1.00  0.00     0.019 A 
ENDBRANCH  23  26
ENDBRANCH  21  22
ENDBRANCH  20  21
ENDBRANCH   2  20
TORSDOF 7
ENDMDL
MODEL 6
REMARK VINA RESULT:      -7.5     15.782     18.201
REMARK  7 active torsions:
REMARK  status: ('A' for Active; 'I' for Inactive)
REMARK    1  A    between atoms: C_6  and  N_7 
REMARK    2  A    between atoms: N_7  and  C_8 
REMARK    3  A    between atoms: C_13  and  C_14 
REMARK       I    between atoms: C_14  and  N_15 
REMARK    4  A    between atoms: N_15  and  C_16 
REMARK    5  A    between atoms: C_16  and  C_17 
REMARK    6  A    between atoms: C_17  and  N_18 
REMARK       I    between atoms: N_18  and  C_19 
REMARK    7  A    between atoms: C_19  and  C_20 
ROOT
HETATM    1  C   UNL     1     -35.514  39.487 -51.704  1.00  0.00     0.255 C 
HETATM    2  N   UNL     1     -36.582  40.099 -51.086  1.00  0.00    -0.355 N 
HETATM    3  O   UNL     1     -35.605  38.856 -52.753  1.00  0.00    -0.268 OA
HETATM    4  H   UNL     1     -36.433  40.700 -50.285  1.00  0.00     0.162 HD
ENDROOT
BRANCH   1   5
HETATM    5  C   UNL     1     -34.200  39.620 -51.030  1.00  0.00     0.077 A 
HETATM    6  C   UNL     1     -33.118  40.224 -51.695  1.00  0.00     0.143 A 
HETATM    7  N   UNL     1     -31.911  40.322 -51.084  1.00  0.00    -0.242 NA
HETATM    8  C   UNL     1     -31.759  39.805 -49.845  1.00  0.00     0.119 A 
HETATM    9  C   UNL     1     -32.771  39.181 -49.142  1.00  0.00     0.020 A 
HETATM   10  C   UNL     1     -34.016  39.085 -49.747  1.00  0.00     0.022 A 
BRANCH   6  11
HETATM   11  N   UNL     1     -33.317  40.798 -52.974  1.00  0.00    -0.340 N 
HETATM   12  H   UNL     1     -34.249  41.217 -53.020  1.00  0.00     0.167 HD
BRANCH  11  13
HETATM   13  C   UNL     1     -32.805  40.447 -54.239  1.00  0.00     0.036 A 
HETATM   14  C   UNL     1     -31.633  39.681 -54.300  1.00  0.00     0.071 A 
HETATM   15  C   UNL     1     -31.120  39.261 -55.526  1.00  0.00     0.118 A 
HETATM   16  C   UNL     1     -31.762  39.571 -56.716  1.00  0.00     0.042 A 
HETATM   17  F   UNL     1     -29.992  38.539 -55.554  1.00  0.00    -0.206 F 
HETATM   18  C   UNL     1     -32.942  40.304 -56.676  1.00  0.00     0.005 A 
HETATM   19  C   UNL     1     -33.463  40.727 -55.445  1.00  0.00     0.029 A 
ENDBRANCH  11  13
ENDBRANCH   6  11
ENDBRANCH   1   5
BRANCH   2  20
HETATM   20  C   UNL     1     -37.922  40.034 -51.639  1.00  0.00     0.142 C 
BRANCH  20  21
HETATM   21  C   UNL     1     -38.269  41.276 -52.467  1.00  0.00     0.142 C 
BRANCH  21  22
HETATM   22  N   UNL     1     -38.173  41.051 -53.897  1.00  0.00    -0.355 N 
HETATM   23  C   UNL     1     -37.085  41.496 -54.619  1.00  0.00     0.251 C 
HETATM   24  O   UNL     1     -36.131  42.071 -54.108  1.00  0.00    -0.268 OA
HETATM   25  H   UNL     1     -39.003  40.728 -54.373  1.00  0.00     0.162 HD
BRANCH  23  26
HETATM   26  C   UNL     1     -37.121  41.277 -56.090  1.00  0.00     0.033 A 
HETATM   27  C   UNL     1     -37.672  40.080 -56.567  1.00  0.00     0.042 A 
HETATM   28  C   UNL     1     -37.732  39.828 -57.941  1.00  0.00     0.056 A 
HETATM   29 CL   UNL     1     -38.412  38.327 -58.455  1.00  0.00    -0.083 Cl
HETATM   30  C   UNL     1     -37.248  40.780 -58.847  1.00  0.00     0.055 A 
HETATM   31 CL   UNL     1     -37.287  40.538 -60.556  1.00  0.00    -0.083 Cl
HETATM   32  C   UNL     1     -36.714  41.982 -58.372  1.00  0.00     0.026 A 
HETATM   33  C   UNL     1     -36.654  42.235 -56.999  1.00  0.00     0.019 A 
ENDBRANCH  23  26
ENDBRANCH  21  22
ENDBRANCH  20  21
ENDBRANCH   2  20
TORSDOF 7
ENDMDL
MODEL 7
REMARK VINA RESULT:      -7.5      4.259      7.528
REMARK  7 active torsions:
REMARK  status: ('A' for Active; 'I' for Inactive)
REMARK    1  A    between atoms: C_6  and  N_7 
REMARK    2  A    between atoms: N_7  and  C_8 
REMARK    3  A    between atoms: C_13  and  C_14 
REMARK       I    between atoms: C_14  and  N_15 
REMARK    4  A    between atoms: N_15  and  C_16 
REMARK    5  A    between atoms: C_16  and  C_17 
REMARK    6  A    between atoms: C_17  and  N_18 
REMARK       I    between atoms: N_18  and  C_19 
REMARK    7  A    between atoms: C_19  and  C_20 
ROOT
HETATM    1  C   UNL     1     -40.712  53.333 -54.668  1.00  0.00     0.255 C 
HETATM    2  N   UNL     1     -42.064  53.505 -54.870  1.00  0.00    -0.355 N 
HETATM    3  O   UNL     1     -39.850  54.008 -55.225  1.00  0.00    -0.268 OA
HETATM    4  H   UNL     1     -42.733  53.000 -54.303  1.00  0.00     0.162 HD
ENDROOT
BRANCH   1   5
HETATM    5  C   UNL     1     -40.319  52.263 -53.721  1.00  0.00     0.077 A 
HETATM    6  C   UNL     1     -40.031  52.572 -52.379  1.00  0.00     0.143 A 
HETATM    7  N   UNL     1     -39.648  51.594 -51.521  1.00  0.00    -0.242 NA
HETATM    8  C   UNL     1     -39.521  50.330 -51.982  1.00  0.00     0.119 A 
HETATM    9  C   UNL     1     -39.768  49.959 -53.289  1.00  0.00     0.020 A 
HETATM   10  C   UNL     1     -40.174  50.945 -54.177  1.00  0.00     0.022 A 
BRANCH   6  11
HETATM   11  N   UNL     1     -40.217  53.896 -51.913  1.00  0.00    -0.340 N 
HETATM   12  H   UNL     1     -39.412  54.176 -51.347  1.00  0.00     0.167 HD
BRANCH  11  13
HETATM   13  C   UNL     1     -41.387  54.616 -51.603  1.00  0.00     0.036 A 
HETATM   14  C   UNL     1     -42.498  53.913 -51.115  1.00  0.00     0.071 A 
HETATM   15  C   UNL     1     -43.659  54.588 -50.741  1.00  0.00     0.118 A 
HETATM   16  C   UNL     1     -43.743  55.970 -50.822  1.00  0.00     0.042 A 
HETATM   17  F   UNL     1     -44.709  53.889 -50.289  1.00  0.00    -0.206 F 
HETATM   18  C   UNL     1     -42.642  56.688 -51.274  1.00  0.00     0.005 A 
HETATM   19  C   UNL     1     -41.473  56.014 -51.650  1.00  0.00     0.029 A 
ENDBRANCH  11  13
ENDBRANCH   6  11
ENDBRANCH   1   5
BRANCH   2  20
HETATM   20  C   UNL     1     -42.577  54.511 -55.782  1.00  0.00     0.142 C 
BRANCH  20  21
HETATM   21  C   UNL     1     -42.333  55.935 -55.269  1.00  0.00     0.142 C 
BRANCH  21  22
HETATM   22  N   UNL     1     -42.051  56.881 -56.333  1.00  0.00    -0.355 N 
HETATM   23  C   UNL     1     -43.050  57.659 -56.879  1.00  0.00     0.251 C 
HETATM   24  O   UNL     1     -44.211  57.630 -56.490  1.00  0.00    -0.268 OA
HETATM   25  H   UNL     1     -41.148  56.818 -56.783  1.00  0.00     0.162 HD
BRANCH  23  26
HETATM   26  C   UNL     1     -42.666  58.544 -58.013  1.00  0.00     0.033 A 
HETATM   27  C   UNL     1     -41.955  59.715 -57.726  1.00  0.00     0.042 A 
HETATM   28  C   UNL     1     -41.568  60.578 -58.758  1.00  0.00     0.056 A 
HETATM   29 CL   UNL     1     -40.706  62.010 -58.328  1.00  0.00    -0.083 Cl
HETATM   30  C   UNL     1     -41.884  60.264 -60.085  1.00  0.00     0.055 A 
HETATM   31 CL   UNL     1     -41.443  61.280 -61.410  1.00  0.00    -0.083 Cl
HETATM   32  C   UNL     1     -42.580  59.085 -60.374  1.00  0.00     0.026 A 
HETATM   33  C   UNL     1     -42.967  58.223 -59.343  1.00  0.00     0.019 A 
ENDBRANCH  23  26
ENDBRANCH  21  22
ENDBRANCH  20  21
ENDBRANCH   2  20
TORSDOF 7
ENDMDL
MODEL 8
REMARK VINA RESULT:      -7.5      2.458      4.867
REMARK  7 active torsions:
REMARK  status: ('A' for Active; 'I' for Inactive)
REMARK    1  A    between atoms: C_6  and  N_7 
REMARK    2  A    between atoms: N_7  and  C_8 
REMARK    3  A    between atoms: C_13  and  C_14 
REMARK       I    between atoms: C_14  and  N_15 
REMARK    4  A    between atoms: N_15  and  C_16 
REMARK    5  A    between atoms: C_16  and  C_17 
REMARK    6  A    between atoms: C_17  and  N_18 
REMARK       I    between atoms: N_18  and  C_19 
REMARK    7  A    between atoms: C_19  and  C_20 
ROOT
HETATM    1  C   UNL     1     -41.451  59.365 -52.901  1.00  0.00     0.255 C 
HETATM    2  N   UNL     1     -41.704  58.863 -51.643  1.00  0.00    -0.355 N 
HETATM    3  O   UNL     1     -40.382  59.224 -53.487  1.00  0.00    -0.268 OA
HETATM    4  H   UNL     1     -42.636  58.909 -51.252  1.00  0.00     0.162 HD
ENDROOT
BRANCH   1   5
HETATM    5  C   UNL     1     -42.559  60.110 -53.546  1.00  0.00     0.077 A 
HETATM    6  C   UNL     1     -43.308  59.517 -54.579  1.00  0.00     0.143 A 
HETATM    7  N   UNL     1     -44.304  60.211 -55.183  1.00  0.00    -0.242 NA
HETATM    8  C   UNL     1     -44.544  61.485 -54.798  1.00  0.00     0.119 A 
HETATM    9  C   UNL     1     -43.836  62.135 -53.806  1.00  0.00     0.020 A 
HETATM   10  C   UNL     1     -42.822  61.434 -53.168  1.00  0.00     0.022 A 
BRANCH   6  11
HETATM   11  N   UNL     1     -43.065  58.168 -54.930  1.00  0.00    -0.340 N 
HETATM   12  H   UNL     1     -42.469  57.731 -54.223  1.00  0.00     0.167 HD
BRANCH  11  13
HETATM   13  C   UNL     1     -42.986  57.535 -56.186  1.00  0.00     0.036 A 
HETATM   14  C   UNL     1     -42.586  58.293 -57.296  1.00  0.00     0.071 A 
HETATM   15  C   UNL     1     -42.438  57.699 -58.548  1.00  0.00     0.118 A 
HETATM   16  C   UNL     1     -42.661  56.342 -58.729  1.00  0.00     0.042 A 
HETATM   17  F   UNL     1     -42.066  58.450 -59.593  1.00  0.00    -0.206 F 
HETATM   18  C   UNL     1     -43.029  55.566 -57.636  1.00  0.00     0.005 A 
HETATM   19  C   UNL     1     -43.178  56.159 -56.375  1.00  0.00     0.029 A 
ENDBRANCH  11  13
ENDBRANCH   6  11
ENDBRANCH   1   5
BRANCH   2  20
HETATM   20  C   UNL     1     -40.698  58.125 -50.900  1.00  0.00     0.142 C 
BRANCH  20  21
HETATM   21  C   UNL     1     -41.262  56.839 -50.284  1.00  0.00     0.142 C 
BRANCH  21  22
HETATM   22  N   UNL     1     -40.819  55.639 -50.969  1.00  0.00    -0.355 N 
HETATM   23  C   UNL     1     -41.364  55.265 -52.179  1.00  0.00     0.251 C 
HETATM   24  O   UNL     1     -42.217  55.923 -52.762  1.00  0.00    -0.268 OA
HETATM   25  H   UNL     1     -40.240  54.995 -50.448  1.00  0.00     0.162 HD
BRANCH  23  26
HETATM   26  C   UNL     1     -40.890  53.979 -52.759  1.00  0.00     0.033 A 
HETATM   27  C   UNL     1     -40.452  52.979 -51.881  1.00  0.00     0.042 A 
HETATM   28  C   UNL     1     -40.000  51.752 -52.377  1.00  0.00     0.056 A 
HETATM   29 CL   UNL     1     -39.464  50.572 -51.236  1.00  0.00    -0.083 Cl
HETATM   30  C   UNL     1     -39.993  51.517 -53.757  1.00  0.00     0.055 A 
HETATM   31 CL   UNL     1     -39.448  50.029 -54.443  1.00  0.00    -0.083 Cl
HETATM   32  C   UNL     1     -40.446  52.509 -54.633  1.00  0.00     0.026 A 
HETATM   33  C   UNL     1     -40.898  53.736 -54.138  1.00  0.00     0.019 A 
ENDBRANCH  23  26
ENDBRANCH  21  22
ENDBRANCH  20  21
ENDBRANCH   2  20
TORSDOF 7
ENDMDL
MODEL 9
REMARK VINA RESULT:      -7.4      2.347      4.915
REMARK  7 active torsions:
REMARK  status: ('A' for Active; 'I' for Inactive)
REMARK    1  A    between atoms: C_6  and  N_7 
REMARK    2  A    between atoms: N_7  and  C_8 
REMARK    3  A    between atoms: C_13  and  C_14 
REMARK       I    between atoms: C_14  and  N_15 
REMARK    4  A    between atoms: N_15  and  C_16 
REMARK    5  A    between atoms: C_16  and  C_17 
REMARK    6  A    between atoms: C_17  and  N_18 
REMARK       I    between atoms: N_18  and  C_19 
REMARK    7  A    between atoms: C_19  and  C_20 
ROOT
HETATM    1  C   UNL     1     -44.316  57.933 -53.709  1.00  0.00     0.255 C 
HETATM    2  N   UNL     1     -44.097  58.136 -52.364  1.00  0.00    -0.355 N 
HETATM    3  O   UNL     1     -44.373  56.823 -54.229  1.00  0.00    -0.268 OA
HETATM    4  H   UNL     1     -44.171  59.065 -51.969  1.00  0.00     0.162 HD
ENDROOT
BRANCH   1   5
HETATM    5  C   UNL     1     -44.485  59.150 -54.538  1.00  0.00     0.077 A 
HETATM    6  C   UNL     1     -43.700  59.340 -55.691  1.00  0.00     0.143 A 
HETATM    7  N   UNL     1     -43.840  60.467 -56.433  1.00  0.00    -0.242 NA
HETATM    8  C   UNL     1     -44.720  61.411 -56.032  1.00  0.00     0.119 A 
HETATM    9  C   UNL     1     -45.507  61.300 -54.903  1.00  0.00     0.020 A 
HETATM   10  C   UNL     1     -45.386  60.147 -54.140  1.00  0.00     0.022 A 
BRANCH   6  11
HETATM   11  N   UNL     1     -42.820  58.315 -56.112  1.00  0.00    -0.340 N 
HETATM   12  H   UNL     1     -41.937  58.389 -55.600  1.00  0.00     0.167 HD
BRANCH  11  13
HETATM   13  C   UNL     1     -42.687  57.655 -57.349  1.00  0.00     0.036 A 
HETATM   14  C   UNL     1     -43.362  56.440 -57.538  1.00  0.00     0.071 A 
HETATM   15  C   UNL     1     -43.307  55.778 -58.763  1.00  0.00     0.118 A 
HETATM   16  C   UNL     1     -42.605  56.309 -59.834  1.00  0.00     0.042 A 
HETATM   17  F   UNL     1     -43.952  54.613 -58.911  1.00  0.00    -0.206 F 
HETATM   18  C   UNL     1     -41.954  57.528 -59.678  1.00  0.00     0.005 A 
HETATM   19  C   UNL     1     -42.006  58.197 -58.448  1.00  0.00     0.029 A 
ENDBRANCH  11  13
ENDBRANCH   6  11
ENDBRANCH   1   5
BRANCH   2  20
HETATM   20  C   UNL     1     -43.905  57.028 -51.447  1.00  0.00     0.142 C 
BRANCH  20  21
HETATM   21  C   UNL     1     -42.433  56.848 -51.056  1.00  0.00     0.142 C 
BRANCH  21  22
HETATM   22  N   UNL     1     -41.875  55.587 -51.507  1.00  0.00    -0.355 N 
HETATM   23  C   UNL     1     -41.236  55.484 -52.725  1.00  0.00     0.251 C 
HETATM   24  O   UNL     1     -41.070  56.436 -53.478  1.00  0.00    -0.268 OA
HETATM   25  H   UNL     1     -42.130  54.756 -50.992  1.00  0.00     0.162 HD
BRANCH  23  26
HETATM   26  C   UNL     1     -40.764  54.129 -53.122  1.00  0.00     0.033 A 
HETATM   27  C   UNL     1     -40.450  53.215 -52.109  1.00  0.00     0.042 A 
HETATM   28  C   UNL     1     -40.006  51.929 -52.431  1.00  0.00     0.056 A 
HETATM   29 CL   UNL     1     -39.624  50.860 -51.129  1.00  0.00    -0.083 Cl
HETATM   30  C   UNL     1     -39.884  51.548 -53.772  1.00  0.00     0.055 A 
HETATM   31 CL   UNL     1     -39.341  49.979 -54.246  1.00  0.00    -0.083 Cl
HETATM   32  C   UNL     1     -40.214  52.455 -54.785  1.00  0.00     0.026 A 
HETATM   33  C   UNL     1     -40.658  53.741 -54.464  1.00  0.00     0.019 A 
ENDBRANCH  23  26
ENDBRANCH  21  22
ENDBRANCH  20  21
ENDBRANCH   2  20
TORSDOF 7
ENDMDL
MODEL 10
REMARK VINA RESULT:      -7.4      3.521      5.891
REMARK  7 active torsions:
REMARK  status: ('A' for Active; 'I' for Inactive)
REMARK    1  A    between atoms: C_6  and  N_7 
REMARK    2  A    between atoms: N_7  and  C_8 
REMARK    3  A    between atoms: C_13  and  C_14 
REMARK       I    between atoms: C_14  and  N_15 
REMARK    4  A    between atoms: N_15  and  C_16 
REMARK    5  A    between atoms: C_16  and  C_17 
REMARK    6  A    between atoms: C_17  and  N_18 
REMARK       I    between atoms: N_18  and  C_19 
REMARK    7  A    between atoms: C_19  and  C_20 
ROOT
HETATM    1  C   UNL     1     -42.742  57.636 -56.209  1.00  0.00     0.255 C 
HETATM    2  N   UNL     1     -43.853  57.803 -55.412  1.00  0.00    -0.355 N 
HETATM    3  O   UNL     1     -42.060  56.615 -56.220  1.00  0.00    -0.268 OA
HETATM    4  H   UNL     1     -44.444  58.617 -55.522  1.00  0.00     0.162 HD
ENDROOT
BRANCH   1   5
HETATM    5  C   UNL     1     -42.384  58.777 -57.084  1.00  0.00     0.077 A 
HETATM    6  C   UNL     1     -42.159  58.577 -58.458  1.00  0.00     0.143 A 
HETATM    7  N   UNL     1     -41.808  59.619 -59.251  1.00  0.00    -0.242 NA
HETATM    8  C   UNL     1     -41.650  60.842 -58.696  1.00  0.00     0.119 A 
HETATM    9  C   UNL     1     -41.836  61.107 -57.353  1.00  0.00     0.020 A 
HETATM   10  C   UNL     1     -42.209  60.054 -56.531  1.00  0.00     0.022 A 
BRANCH   6  11
HETATM   11  N   UNL     1     -42.376  57.296 -59.020  1.00  0.00    -0.340 N 
HETATM   12  H   UNL     1     -41.550  57.011 -59.554  1.00  0.00     0.167 HD
BRANCH  11  13
HETATM   13  C   UNL     1     -43.556  56.656 -59.447  1.00  0.00     0.036 A 
HETATM   14  C   UNL     1     -44.671  57.446 -59.762  1.00  0.00     0.071 A 
HETATM   15  C   UNL     1     -45.843  56.863 -60.242  1.00  0.00     0.118 A 
HETATM   16  C   UNL     1     -45.934  55.494 -60.441  1.00  0.00     0.042 A 
HETATM   17  F   UNL     1     -46.896  57.641 -60.525  1.00  0.00    -0.206 F 
HETATM   18  C   UNL     1     -44.830  54.696 -60.163  1.00  0.00     0.005 A 
HETATM   19  C   UNL     1     -43.649  55.277 -59.681  1.00  0.00     0.029 A 
ENDBRANCH  11  13
ENDBRANCH   6  11
ENDBRANCH   1   5
BRANCH   2  20
HETATM   20  C   UNL     1     -44.302  56.764 -54.502  1.00  0.00     0.142 C 
BRANCH  20  21
HETATM   21  C   UNL     1     -43.656  56.889 -53.117  1.00  0.00     0.142 C 
BRANCH  21  22
HETATM   22  N   UNL     1     -42.974  55.679 -52.696  1.00  0.00    -0.355 N 
HETATM   23  C   UNL     1     -41.604  55.560 -52.800  1.00  0.00     0.251 C 
HETATM   24  O   UNL     1     -40.882  56.458 -53.215  1.00  0.00    -0.268 OA
HETATM   25  H   UNL     1     -43.545  54.869 -52.502  1.00  0.00     0.162 HD
BRANCH  23  26
HETATM   26  C   UNL     1     -41.014  54.250 -52.408  1.00  0.00     0.033 A 
HETATM   27  C   UNL     1     -40.795  53.298 -53.410  1.00  0.00     0.042 A 
HETATM   28  C   UNL     1     -40.240  52.053 -53.093  1.00  0.00     0.056 A 
HETATM   29 CL   UNL     1     -40.010  50.924 -54.378  1.00  0.00    -0.083 Cl
HETATM   30  C   UNL     1     -39.892  51.762 -51.769  1.00  0.00     0.055 A 
HETATM   31 CL   UNL     1     -39.205  50.248 -51.301  1.00  0.00    -0.083 Cl
HETATM   32  C   UNL     1     -40.095  52.720 -50.770  1.00  0.00     0.026 A 
HETATM   33  C   UNL     1     -40.650  53.964 -51.086  1.00  0.00     0.019 A 
ENDBRANCH  23  26
ENDBRANCH  21  22
ENDBRANCH  20  21
ENDBRANCH   2  20
TORSDOF 7
ENDMDL
