MODEL 1
REMARK VINA RESULT:      -8.3      0.000      0.000
REMARK  10 active torsions:
REMARK  status: ('A' for Active; 'I' for Inactive)
REMARK    1  A    between atoms: N_15  and  C_16 
REMARK    2  A    between atoms: C_16  and  C_17 
REMARK    3  A    between atoms: C_17  and  N_18 
REMARK       I    between atoms: N_18  and  C_19 
REMARK    4  A    between atoms: C_19  and  C_20 
REMARK    5  A    between atoms: C_20  and  C_21 
REMARK    6  A    between atoms: C_21  and  C_22 
REMARK    7  A    between atoms: C_24  and  C_25 
REMARK    8  A    between atoms: C_29  and  O_30 
REMARK    9  A    between atoms: C_31  and  C_32 
REMARK   10  A    between atoms: C_38  and  O_39 
ROOT
HETATM    1  C   UNL     1     -42.285  57.721 -58.804  1.00  0.00     0.142 C 
ENDROOT
BRANCH   1   2
HETATM    2  C   UNL     1     -43.222  58.919 -58.616  1.00  0.00     0.151 C 
BRANCH   2   3
HETATM    3  N   UNL     1     -43.905  58.949 -57.316  1.00  0.00    -0.291 N 
HETATM    4  C   UNL     1     -45.259  58.693 -57.239  1.00  0.00     0.366 C 
HETATM    5  O   UNL     1     -45.754  59.177 -56.060  1.00  0.00    -0.287 OA
HETATM    6  O   UNL     1     -45.949  58.142 -58.079  1.00  0.00    -0.238 OA
HETATM    7  C   UNL     1     -44.638  59.533 -55.190  1.00  0.00     0.126 C 
HETATM    8  C   UNL     1     -45.160  60.669 -54.297  1.00  0.00     0.082 C 
HETATM    9  C   UNL     1     -43.555  59.859 -56.258  1.00  0.00     0.166 C 
HETATM   10  C   UNL     1     -44.386  58.263 -54.338  1.00  0.00     0.082 C 
HETATM   11  C   UNL     1     -44.373  60.948 -53.011  1.00  0.00     0.122 C 
HETATM   12  N   UNL     1     -44.183  59.652 -52.261  1.00  0.00    -0.059 N 
HETATM   13  C   UNL     1     -45.221  61.849 -52.088  1.00  0.00     0.046 C 
HETATM   14  C   UNL     1     -43.031  61.651 -53.216  1.00  0.00     0.046 C 
HETATM   15  C   UNL     1     -43.688  58.417 -52.976  1.00  0.00     0.122 C 
HETATM   16  H   UNL     1     -45.096  59.412 -51.844  1.00  0.00     0.279 HD
HETATM   17  H   UNL     1     -43.577  59.824 -51.444  1.00  0.00     0.279 HD
HETATM   18  C   UNL     1     -44.105  57.223 -52.081  1.00  0.00     0.046 C 
HETATM   19  C   UNL     1     -42.157  58.412 -53.012  1.00  0.00     0.046 C 
HETATM   20  C   UNL     1     -43.556  61.310 -56.757  1.00  0.00     0.074 C 
BRANCH   9  21
HETATM   21  O   UNL     1     -42.273  59.518 -55.780  1.00  0.00    -0.368 OA
HETATM   22  H   UNL     1     -41.704  59.352 -56.551  1.00  0.00     0.212 HD
ENDBRANCH   9  21
ENDBRANCH   2   3
ENDBRANCH   1   2
BRANCH   1  23
HETATM   23  N   UNL     1     -42.110  56.920 -57.609  1.00  0.00    -0.359 N 
HETATM   24  C   UNL     1     -42.827  55.764 -57.416  1.00  0.00     0.217 C 
HETATM   25  O   UNL     1     -43.690  55.389 -58.210  1.00  0.00    -0.274 OA
HETATM   26  H   UNL     1     -41.396  57.201 -56.941  1.00  0.00     0.162 HD
BRANCH  24  27
HETATM   27  C   UNL     1     -42.412  54.883 -56.253  1.00  0.00     0.107 C 
BRANCH  27  28
HETATM   28  C   UNL     1     -41.231  55.354 -55.410  1.00  0.00     0.048 C 
BRANCH  28  29
HETATM   29  C   UNL     1     -40.846  54.484 -54.237  1.00  0.00    -0.057 A 
HETATM   30  C   UNL     1     -40.937  54.940 -52.917  1.00  0.00     0.018 A 
HETATM   31  C   UNL     1     -40.667  54.114 -51.806  1.00  0.00    -0.016 A 
HETATM   32  C   UNL     1     -40.342  52.767 -52.096  1.00  0.00     0.079 A 
HETATM   33  C   UNL     1     -40.258  52.246 -53.412  1.00  0.00    -0.016 A 
HETATM   34  C   UNL     1     -40.506  53.145 -54.463  1.00  0.00     0.018 A 
BRANCH  31  35
HETATM   35  C   UNL     1     -40.867  54.690 -50.379  1.00  0.00    -0.021 C 
HETATM   36  C   UNL     1     -42.252  54.233 -49.875  1.00  0.00     0.019 C 
HETATM   37  C   UNL     1     -39.812  54.259 -49.333  1.00  0.00     0.019 C 
HETATM   38  C   UNL     1     -40.831  56.242 -50.367  1.00  0.00     0.019 C 
ENDBRANCH  31  35
BRANCH  32  39
HETATM   39  O   UNL     1     -40.134  51.893 -51.068  1.00  0.00    -0.360 OA
HETATM   40  H   UNL     1     -40.141  52.434 -50.261  1.00  0.00     0.217 HD
ENDBRANCH  32  39
BRANCH  33  41
HETATM   41  C   UNL     1     -39.959  50.754 -53.705  1.00  0.00    -0.021 C 
HETATM   42  C   UNL     1     -38.701  50.630 -54.593  1.00  0.00     0.019 C 
HETATM   43  C   UNL     1     -39.675  49.913 -52.432  1.00  0.00     0.019 C 
HETATM   44  C   UNL     1     -41.163  50.075 -54.397  1.00  0.00     0.019 C 
ENDBRANCH  33  41
ENDBRANCH  28  29
ENDBRANCH  27  28
ENDBRANCH  24  27
ENDBRANCH   1  23
TORSDOF 10
ENDMDL
MODEL 2
REMARK VINA RESULT:      -7.9      0.215      2.933
REMARK  10 active torsions:
REMARK  status: ('A' for Active; 'I' for Inactive)
REMARK    1  A    between atoms: N_15  and  C_16 
REMARK    2  A    between atoms: C_16  and  C_17 
REMARK    3  A    between atoms: C_17  and  N_18 
REMARK       I    between atoms: N_18  and  C_19 
REMARK    4  A    between atoms: C_19  and  C_20 
REMARK    5  A    between atoms: C_20  and  C_21 
REMARK    6  A    between atoms: C_21  and  C_22 
REMARK    7  A    between atoms: C_24  and  C_25 
REMARK    8  A    between atoms: C_29  and  O_30 
REMARK    9  A    between atoms: C_31  and  C_32 
REMARK   10  A    between atoms: C_38  and  O_39 
ROOT
HETATM    1  C   UNL     1     -42.244  57.849 -58.682  1.00  0.00     0.142 C 
ENDROOT
BRANCH   1   2
HETATM    2  C   UNL     1     -43.279  58.972 -58.545  1.00  0.00     0.151 C 
BRANCH   2   3
HETATM    3  N   UNL     1     -43.958  59.006 -57.243  1.00  0.00    -0.291 N 
HETATM    4  C   UNL     1     -45.311  58.748 -57.161  1.00  0.00     0.366 C 
HETATM    5  O   UNL     1     -45.803  59.237 -55.982  1.00  0.00    -0.287 OA
HETATM    6  O   UNL     1     -46.003  58.193 -57.997  1.00  0.00    -0.238 OA
HETATM    7  C   UNL     1     -44.686  59.598 -55.117  1.00  0.00     0.126 C 
HETATM    8  C   UNL     1     -45.207  60.737 -54.227  1.00  0.00     0.082 C 
HETATM    9  C   UNL     1     -43.606  59.921 -56.189  1.00  0.00     0.166 C 
HETATM   10  C   UNL     1     -44.430  58.332 -54.260  1.00  0.00     0.082 C 
HETATM   11  C   UNL     1     -44.417  61.021 -52.945  1.00  0.00     0.122 C 
HETATM   12  N   UNL     1     -44.223  59.729 -52.190  1.00  0.00    -0.059 N 
HETATM   13  C   UNL     1     -45.263  61.926 -52.023  1.00  0.00     0.046 C 
HETATM   14  C   UNL     1     -43.077  61.726 -53.156  1.00  0.00     0.046 C 
HETATM   15  C   UNL     1     -43.728  58.491 -52.901  1.00  0.00     0.122 C 
HETATM   16  H   UNL     1     -45.134  59.490 -51.769  1.00  0.00     0.279 HD
HETATM   17  H   UNL     1     -43.615  59.905 -51.376  1.00  0.00     0.279 HD
HETATM   18  C   UNL     1     -44.141  57.301 -52.000  1.00  0.00     0.046 C 
HETATM   19  C   UNL     1     -42.197  58.489 -52.941  1.00  0.00     0.046 C 
HETATM   20  C   UNL     1     -43.611  61.370 -56.694  1.00  0.00     0.074 C 
BRANCH   9  21
HETATM   21  O   UNL     1     -42.323  59.584 -55.714  1.00  0.00    -0.368 OA
HETATM   22  H   UNL     1     -41.792  59.293 -56.475  1.00  0.00     0.212 HD
ENDBRANCH   9  21
ENDBRANCH   2   3
ENDBRANCH   1   2
BRANCH   1  23
HETATM   23  N   UNL     1     -42.150  56.992 -57.517  1.00  0.00    -0.359 N 
HETATM   24  C   UNL     1     -42.884  55.835 -57.423  1.00  0.00     0.217 C 
HETATM   25  O   UNL     1     -43.697  55.504 -58.284  1.00  0.00    -0.274 OA
HETATM   26  H   UNL     1     -41.477  57.237 -56.793  1.00  0.00     0.162 HD
BRANCH  24  27
HETATM   27  C   UNL     1     -42.547  54.899 -56.278  1.00  0.00     0.107 C 
BRANCH  27  28
HETATM   28  C   UNL     1     -41.426  55.325 -55.336  1.00  0.00     0.048 C 
BRANCH  28  29
HETATM   29  C   UNL     1     -41.137  54.411 -54.168  1.00  0.00    -0.057 A 
HETATM   30  C   UNL     1     -40.720  53.088 -54.352  1.00  0.00     0.018 A 
HETATM   31  C   UNL     1     -40.361  52.248 -53.277  1.00  0.00    -0.016 A 
HETATM   32  C   UNL     1     -40.398  52.834 -51.990  1.00  0.00     0.079 A 
HETATM   33  C   UNL     1     -40.790  54.175 -51.748  1.00  0.00    -0.016 A 
HETATM   34  C   UNL     1     -41.168  54.933 -52.870  1.00  0.00     0.018 A 
BRANCH  31  35
HETATM   35  C   UNL     1     -39.839  50.819 -53.586  1.00  0.00    -0.021 C 
HETATM   36  C   UNL     1     -39.737  50.055 -52.250  1.00  0.00     0.019 C 
HETATM   37  C   UNL     1     -40.717  49.984 -54.548  1.00  0.00     0.019 C 
HETATM   38  C   UNL     1     -38.434  50.842 -54.245  1.00  0.00     0.019 C 
ENDBRANCH  31  35
BRANCH  32  39
HETATM   39  O   UNL     1     -39.998  52.101 -50.909  1.00  0.00    -0.360 OA
HETATM   40  H   UNL     1     -39.046  51.954 -51.032  1.00  0.00     0.217 HD
ENDBRANCH  32  39
BRANCH  33  41
HETATM   41  C   UNL     1     -40.766  54.815 -50.337  1.00  0.00    -0.021 C 
HETATM   42  C   UNL     1     -39.452  54.451 -49.612  1.00  0.00     0.019 C 
HETATM   43  C   UNL     1     -40.835  56.366 -50.355  1.00  0.00     0.019 C 
HETATM   44  C   UNL     1     -41.979  54.351 -49.499  1.00  0.00     0.019 C 
ENDBRANCH  33  41
ENDBRANCH  28  29
ENDBRANCH  27  28
ENDBRANCH  24  27
ENDBRANCH   1  23
TORSDOF 10
ENDMDL
MODEL 3
REMARK VINA RESULT:      -7.9      1.734      4.343
REMARK  10 active torsions:
REMARK  status: ('A' for Active; 'I' for Inactive)
REMARK    1  A    between atoms: N_15  and  C_16 
REMARK    2  A    between atoms: C_16  and  C_17 
REMARK    3  A    between atoms: C_17  and  N_18 
REMARK       I    between atoms: N_18  and  C_19 
REMARK    4  A    between atoms: C_19  and  C_20 
REMARK    5  A    between atoms: C_20  and  C_21 
REMARK    6  A    between atoms: C_21  and  C_22 
REMARK    7  A    between atoms: C_24  and  C_25 
REMARK    8  A    between atoms: C_29  and  O_30 
REMARK    9  A    between atoms: C_31  and  C_32 
REMARK   10  A    between atoms: C_38  and  O_39 
ROOT
HETATM    1  C   UNL     1     -45.115  58.653 -54.173  1.00  0.00     0.142 C 
ENDROOT
BRANCH   1   2
HETATM    2  C   UNL     1     -44.253  59.860 -54.561  1.00  0.00     0.151 C 
BRANCH   2   3
HETATM    3  N   UNL     1     -43.393  59.632 -55.730  1.00  0.00    -0.291 N 
HETATM    4  C   UNL     1     -42.023  59.738 -55.611  1.00  0.00     0.366 C 
HETATM    5  O   UNL     1     -41.465  59.911 -56.848  1.00  0.00    -0.287 OA
HETATM    6  O   UNL     1     -41.372  59.708 -54.582  1.00  0.00    -0.238 OA
HETATM    7  C   UNL     1     -42.476  59.641 -57.864  1.00  0.00     0.126 C 
HETATM    8  C   UNL     1     -42.084  60.506 -59.072  1.00  0.00     0.082 C 
HETATM    9  C   UNL     1     -43.763  60.004 -57.070  1.00  0.00     0.166 C 
HETATM   10  C   UNL     1     -42.294  58.140 -58.207  1.00  0.00     0.082 C 
HETATM   11  C   UNL     1     -42.695  60.113 -60.423  1.00  0.00     0.122 C 
HETATM   12  N   UNL     1     -42.465  58.641 -60.657  1.00  0.00    -0.059 N 
HETATM   13  C   UNL     1     -41.933  60.843 -61.551  1.00  0.00     0.046 C 
HETATM   14  C   UNL     1     -44.175  60.457 -60.586  1.00  0.00     0.046 C 
HETATM   15  C   UNL     1     -42.779  57.633 -59.576  1.00  0.00     0.122 C 
HETATM   16  H   UNL     1     -41.466  58.528 -60.892  1.00  0.00     0.279 HD
HETATM   17  H   UNL     1     -42.953  58.359 -61.521  1.00  0.00     0.279 HD
HETATM   18  C   UNL     1     -41.965  56.366 -59.939  1.00  0.00     0.046 C 
HETATM   19  C   UNL     1     -44.255  57.231 -59.650  1.00  0.00     0.046 C 
HETATM   20  C   UNL     1     -44.169  61.482 -57.139  1.00  0.00     0.074 C 
BRANCH   9  21
HETATM   21  O   UNL     1     -44.840  59.192 -57.479  1.00  0.00    -0.368 OA
HETATM   22  H   UNL     1     -45.512  59.771 -57.878  1.00  0.00     0.212 HD
ENDBRANCH   9  21
ENDBRANCH   2   3
ENDBRANCH   1   2
BRANCH   1  23
HETATM   23  N   UNL     1     -44.608  57.388 -54.666  1.00  0.00    -0.359 N 
HETATM   24  C   UNL     1     -43.986  56.495 -53.828  1.00  0.00     0.217 C 
HETATM   25  O   UNL     1     -43.774  56.749 -52.643  1.00  0.00    -0.274 OA
HETATM   26  H   UNL     1     -44.780  57.148 -55.640  1.00  0.00     0.162 HD
BRANCH  24  27
HETATM   27  C   UNL     1     -43.699  55.114 -54.386  1.00  0.00     0.107 C 
BRANCH  27  28
HETATM   28  C   UNL     1     -42.259  54.814 -54.792  1.00  0.00     0.048 C 
BRANCH  28  29
HETATM   29  C   UNL     1     -41.428  54.024 -53.808  1.00  0.00    -0.057 A 
HETATM   30  C   UNL     1     -41.225  54.461 -52.495  1.00  0.00     0.018 A 
HETATM   31  C   UNL     1     -40.528  53.695 -51.537  1.00  0.00    -0.016 A 
HETATM   32  C   UNL     1     -40.080  52.423 -51.964  1.00  0.00     0.079 A 
HETATM   33  C   UNL     1     -40.277  51.921 -53.275  1.00  0.00    -0.016 A 
HETATM   34  C   UNL     1     -40.949  52.762 -54.178  1.00  0.00     0.018 A 
BRANCH  31  35
HETATM   35  C   UNL     1     -40.418  54.232 -50.085  1.00  0.00    -0.021 C 
HETATM   36  C   UNL     1     -41.112  55.609 -50.037  1.00  0.00     0.019 C 
HETATM   37  C   UNL     1     -41.054  53.338 -48.995  1.00  0.00     0.019 C 
HETATM   38  C   UNL     1     -38.942  54.414 -49.641  1.00  0.00     0.019 C 
ENDBRANCH  31  35
BRANCH  32  39
HETATM   39  O   UNL     1     -39.456  51.599 -51.072  1.00  0.00    -0.360 OA
HETATM   40  H   UNL     1     -40.124  50.943 -50.812  1.00  0.00     0.217 HD
ENDBRANCH  32  39
BRANCH  33  41
HETATM   41  C   UNL     1     -39.831  50.500 -53.705  1.00  0.00    -0.021 C 
HETATM   42  C   UNL     1     -38.415  50.553 -54.322  1.00  0.00     0.019 C 
HETATM   43  C   UNL     1     -39.752  49.489 -52.530  1.00  0.00     0.019 C 
HETATM   44  C   UNL     1     -40.826  49.890 -54.718  1.00  0.00     0.019 C 
ENDBRANCH  33  41
ENDBRANCH  28  29
ENDBRANCH  27  28
ENDBRANCH  24  27
ENDBRANCH   1  23
TORSDOF 10
ENDMDL
MODEL 4
REMARK VINA RESULT:      -7.8      2.749      4.984
REMARK  10 active torsions:
REMARK  status: ('A' for Active; 'I' for Inactive)
REMARK    1  A    between atoms: N_15  and  C_16 
REMARK    2  A    between atoms: C_16  and  C_17 
REMARK    3  A    between atoms: C_17  and  N_18 
REMARK       I    between atoms: N_18  and  C_19 
REMARK    4  A    between atoms: C_19  and  C_20 
REMARK    5  A    between atoms: C_20  and  C_21 
REMARK    6  A    between atoms: C_21  and  C_22 
REMARK    7  A    between atoms: C_24  and  C_25 
REMARK    8  A    between atoms: C_29  and  O_30 
REMARK    9  A    between atoms: C_31  and  C_32 
REMARK   10  A    between atoms: C_38  and  O_39 
ROOT
HETATM    1  C   UNL     1     -45.966  55.588 -60.369  1.00  0.00     0.142 C 
ENDROOT
BRANCH   1   2
HETATM    2  C   UNL     1     -46.933  56.758 -60.148  1.00  0.00     0.151 C 
BRANCH   2   3
HETATM    3  N   UNL     1     -46.314  57.938 -59.530  1.00  0.00    -0.291 N 
HETATM    4  C   UNL     1     -46.774  58.403 -58.315  1.00  0.00     0.366 C 
HETATM    5  O   UNL     1     -46.376  59.700 -58.137  1.00  0.00    -0.287 OA
HETATM    6  O   UNL     1     -47.449  57.793 -57.504  1.00  0.00    -0.238 OA
HETATM    7  C   UNL     1     -45.382  60.032 -59.152  1.00  0.00     0.126 C 
HETATM    8  C   UNL     1     -45.525  61.544 -59.385  1.00  0.00     0.082 C 
HETATM    9  C   UNL     1     -45.813  59.057 -60.284  1.00  0.00     0.166 C 
HETATM   10  C   UNL     1     -44.019  59.727 -58.479  1.00  0.00     0.082 C 
HETATM   11  C   UNL     1     -44.344  62.248 -60.062  1.00  0.00     0.122 C 
HETATM   12  N   UNL     1     -43.073  61.885 -59.335  1.00  0.00    -0.059 N 
HETATM   13  C   UNL     1     -44.504  63.775 -59.895  1.00  0.00     0.046 C 
HETATM   14  C   UNL     1     -44.201  61.974 -61.559  1.00  0.00     0.046 C 
HETATM   15  C   UNL     1     -42.763  60.443 -59.003  1.00  0.00     0.122 C 
HETATM   16  H   UNL     1     -43.080  62.403 -58.442  1.00  0.00     0.279 HD
HETATM   17  H   UNL     1     -42.270  62.284 -59.844  1.00  0.00     0.279 HD
HETATM   18  C   UNL     1     -41.723  60.495 -57.857  1.00  0.00     0.046 C 
HETATM   19  C   UNL     1     -42.063  59.773 -60.189  1.00  0.00     0.046 C 
HETATM   20  C   UNL     1     -46.886  59.604 -61.235  1.00  0.00     0.074 C 
BRANCH   9  21
HETATM   21  O   UNL     1     -44.691  58.632 -61.022  1.00  0.00    -0.368 OA
HETATM   22  H   UNL     1     -44.099  58.157 -60.414  1.00  0.00     0.212 HD
ENDBRANCH   9  21
ENDBRANCH   2   3
ENDBRANCH   1   2
BRANCH   1  23
HETATM   23  N   UNL     1     -45.101  55.321 -59.239  1.00  0.00    -0.359 N 
HETATM   24  C   UNL     1     -43.769  55.657 -59.267  1.00  0.00     0.217 C 
HETATM   25  O   UNL     1     -43.237  56.139 -60.266  1.00  0.00    -0.274 OA
HETATM   26  H   UNL     1     -45.517  54.931 -58.395  1.00  0.00     0.162 HD
BRANCH  24  27
HETATM   27  C   UNL     1     -43.004  55.546 -57.962  1.00  0.00     0.107 C 
BRANCH  27  28
HETATM   28  C   UNL     1     -42.490  56.842 -57.344  1.00  0.00     0.048 C 
BRANCH  28  29
HETATM   29  C   UNL     1     -42.222  56.825 -55.857  1.00  0.00    -0.057 A 
HETATM   30  C   UNL     1     -42.287  57.988 -55.081  1.00  0.00     0.018 A 
HETATM   31  C   UNL     1     -42.129  57.977 -53.679  1.00  0.00    -0.016 A 
HETATM   32  C   UNL     1     -41.946  56.706 -53.084  1.00  0.00     0.079 A 
HETATM   33  C   UNL     1     -41.895  55.495 -53.818  1.00  0.00    -0.016 A 
HETATM   34  C   UNL     1     -42.025  55.598 -55.214  1.00  0.00     0.018 A 
BRANCH  31  35
HETATM   35  C   UNL     1     -42.291  59.308 -52.898  1.00  0.00    -0.021 C 
HETATM   36  C   UNL     1     -42.277  60.461 -53.922  1.00  0.00     0.019 C 
HETATM   37  C   UNL     1     -43.582  59.432 -52.055  1.00  0.00     0.019 C 
HETATM   38  C   UNL     1     -41.133  59.537 -51.889  1.00  0.00     0.019 C 
ENDBRANCH  31  35
BRANCH  32  39
HETATM   39  O   UNL     1     -41.853  56.612 -51.725  1.00  0.00    -0.360 OA
HETATM   40  H   UNL     1     -42.509  57.238 -51.375  1.00  0.00     0.217 HD
ENDBRANCH  32  39
BRANCH  33  41
HETATM   41  C   UNL     1     -41.754  54.109 -53.140  1.00  0.00    -0.021 C 
HETATM   42  C   UNL     1     -41.683  52.999 -54.213  1.00  0.00     0.019 C 
HETATM   43  C   UNL     1     -40.469  53.962 -52.282  1.00  0.00     0.019 C 
HETATM   44  C   UNL     1     -42.933  53.840 -52.179  1.00  0.00     0.019 C 
ENDBRANCH  33  41
ENDBRANCH  28  29
ENDBRANCH  27  28
ENDBRANCH  24  27
ENDBRANCH   1  23
TORSDOF 10
ENDMDL
MODEL 5
REMARK VINA RESULT:      -7.7      1.723      5.143
REMARK  10 active torsions:
REMARK  status: ('A' for Active; 'I' for Inactive)
REMARK    1  A    between atoms: N_15  and  C_16 
REMARK    2  A    between atoms: C_16  and  C_17 
REMARK    3  A    between atoms: C_17  and  N_18 
REMARK       I    between atoms: N_18  and  C_19 
REMARK    4  A    between atoms: C_19  and  C_20 
REMARK    5  A    between atoms: C_20  and  C_21 
REMARK    6  A    between atoms: C_21  and  C_22 
REMARK    7  A    between atoms: C_24  and  C_25 
REMARK    8  A    between atoms: C_29  and  O_30 
REMARK    9  A    between atoms: C_31  and  C_32 
REMARK   10  A    between atoms: C_38  and  O_39 
ROOT
HETATM    1  C   UNL     1     -44.652  58.625 -53.995  1.00  0.00     0.142 C 
ENDROOT
BRANCH   1   2
HETATM    2  C   UNL     1     -44.247  59.989 -54.567  1.00  0.00     0.151 C 
BRANCH   2   3
HETATM    3  N   UNL     1     -43.319  59.911 -55.703  1.00  0.00    -0.291 N 
HETATM    4  C   UNL     1     -41.959  60.004 -55.493  1.00  0.00     0.366 C 
HETATM    5  O   UNL     1     -41.332  60.332 -56.664  1.00  0.00    -0.287 OA
HETATM    6  O   UNL     1     -41.367  59.846 -54.439  1.00  0.00    -0.238 OA
HETATM    7  C   UNL     1     -42.281  60.189 -57.763  1.00  0.00     0.126 C 
HETATM    8  C   UNL     1     -41.829  61.200 -58.828  1.00  0.00     0.082 C 
HETATM    9  C   UNL     1     -43.614  60.447 -57.005  1.00  0.00     0.166 C 
HETATM   10  C   UNL     1     -42.066  58.744 -58.279  1.00  0.00     0.082 C 
HETATM   11  C   UNL     1     -42.357  60.979 -60.250  1.00  0.00     0.122 C 
HETATM   12  N   UNL     1     -42.100  59.548 -60.653  1.00  0.00    -0.059 N 
HETATM   13  C   UNL     1     -41.539  61.846 -61.231  1.00  0.00     0.046 C 
HETATM   14  C   UNL     1     -43.829  61.338 -60.455  1.00  0.00     0.046 C 
HETATM   15  C   UNL     1     -42.467  58.412 -59.727  1.00  0.00     0.122 C 
HETATM   16  H   UNL     1     -41.089  59.467 -60.842  1.00  0.00     0.279 HD
HETATM   17  H   UNL     1     -42.536  59.375 -61.572  1.00  0.00     0.279 HD
HETATM   18  C   UNL     1     -41.621  57.202 -60.198  1.00  0.00     0.046 C 
HETATM   19  C   UNL     1     -43.932  58.019 -59.936  1.00  0.00     0.046 C 
HETATM   20  C   UNL     1     -44.029  61.922 -56.912  1.00  0.00     0.074 C 
BRANCH   9  21
HETATM   21  O   UNL     1     -44.659  59.691 -57.574  1.00  0.00    -0.368 OA
HETATM   22  H   UNL     1     -44.355  59.372 -58.441  1.00  0.00     0.212 HD
ENDBRANCH   9  21
ENDBRANCH   2   3
ENDBRANCH   1   2
BRANCH   1  23
HETATM   23  N   UNL     1     -43.662  57.587 -54.196  1.00  0.00    -0.359 N 
HETATM   24  C   UNL     1     -43.619  56.860 -55.361  1.00  0.00     0.217 C 
HETATM   25  O   UNL     1     -44.450  57.009 -56.256  1.00  0.00    -0.274 OA
HETATM   26  H   UNL     1     -42.956  57.449 -53.476  1.00  0.00     0.162 HD
BRANCH  24  27
HETATM   27  C   UNL     1     -42.415  55.961 -55.566  1.00  0.00     0.107 C 
BRANCH  27  28
HETATM   28  C   UNL     1     -42.626  54.461 -55.382  1.00  0.00     0.048 C 
BRANCH  28  29
HETATM   29  C   UNL     1     -41.933  53.819 -54.203  1.00  0.00    -0.057 A 
HETATM   30  C   UNL     1     -41.266  52.594 -54.316  1.00  0.00     0.018 A 
HETATM   31  C   UNL     1     -40.539  52.023 -53.250  1.00  0.00    -0.016 A 
HETATM   32  C   UNL     1     -40.477  52.786 -52.059  1.00  0.00     0.079 A 
HETATM   33  C   UNL     1     -41.115  54.042 -51.898  1.00  0.00    -0.016 A 
HETATM   34  C   UNL     1     -41.849  54.522 -52.996  1.00  0.00     0.018 A 
BRANCH  31  35
HETATM   35  C   UNL     1     -39.771  50.697 -53.494  1.00  0.00    -0.021 C 
HETATM   36  C   UNL     1     -38.306  51.053 -53.820  1.00  0.00     0.019 C 
HETATM   37  C   UNL     1     -39.769  49.701 -52.310  1.00  0.00     0.019 C 
HETATM   38  C   UNL     1     -40.356  49.897 -54.689  1.00  0.00     0.019 C 
ENDBRANCH  31  35
BRANCH  32  39
HETATM   39  O   UNL     1     -39.736  52.327 -51.009  1.00  0.00    -0.360 OA
HETATM   40  H   UNL     1     -38.835  52.215 -51.356  1.00  0.00     0.217 HD
ENDBRANCH  32  39
BRANCH  33  41
HETATM   41  C   UNL     1     -40.985  54.888 -50.606  1.00  0.00    -0.021 C 
HETATM   42  C   UNL     1     -42.077  54.481 -49.593  1.00  0.00     0.019 C 
HETATM   43  C   UNL     1     -39.628  54.706 -49.875  1.00  0.00     0.019 C 
HETATM   44  C   UNL     1     -41.092  56.397 -50.921  1.00  0.00     0.019 C 
ENDBRANCH  33  41
ENDBRANCH  28  29
ENDBRANCH  27  28
ENDBRANCH  24  27
ENDBRANCH   1  23
TORSDOF 10
ENDMDL
MODEL 6
REMARK VINA RESULT:      -7.7      2.638      8.314
REMARK  10 active torsions:
REMARK  status: ('A' for Active; 'I' for Inactive)
REMARK    1  A    between atoms: N_15  and  C_16 
REMARK    2  A    between atoms: C_16  and  C_17 
REMARK    3  A    between atoms: C_17  and  N_18 
REMARK       I    between atoms: N_18  and  C_19 
REMARK    4  A    between atoms: C_19  and  C_20 
REMARK    5  A    between atoms: C_20  and  C_21 
REMARK    6  A    between atoms: C_21  and  C_22 
REMARK    7  A    between atoms: C_24  and  C_25 
REMARK    8  A    between atoms: C_29  and  O_30 
REMARK    9  A    between atoms: C_31  and  C_32 
REMARK   10  A    between atoms: C_38  and  O_39 
ROOT
HETATM    1  C   UNL     1     -44.160  60.390 -51.958  1.00  0.00     0.142 C 
ENDROOT
BRANCH   1   2
HETATM    2  C   UNL     1     -44.223  58.968 -51.388  1.00  0.00     0.151 C 
BRANCH   2   3
HETATM    3  N   UNL     1     -43.025  58.161 -51.657  1.00  0.00    -0.291 N 
HETATM    4  C   UNL     1     -41.789  58.768 -51.753  1.00  0.00     0.366 C 
HETATM    5  O   UNL     1     -40.919  57.941 -52.407  1.00  0.00    -0.287 OA
HETATM    6  O   UNL     1     -41.484  59.877 -51.348  1.00  0.00    -0.238 OA
HETATM    7  C   UNL     1     -41.519  56.616 -52.518  1.00  0.00     0.126 C 
HETATM    8  C   UNL     1     -40.923  56.002 -53.795  1.00  0.00     0.082 C 
HETATM    9  C   UNL     1     -43.026  56.999 -52.505  1.00  0.00     0.166 C 
HETATM   10  C   UNL     1     -41.005  55.849 -51.273  1.00  0.00     0.082 C 
HETATM   11  C   UNL     1     -41.026  54.479 -53.935  1.00  0.00     0.122 C 
HETATM   12  N   UNL     1     -40.505  53.833 -52.676  1.00  0.00    -0.059 N 
HETATM   13  C   UNL     1     -40.086  54.014 -55.068  1.00  0.00     0.046 C 
HETATM   14  C   UNL     1     -42.423  53.955 -54.268  1.00  0.00     0.046 C 
HETATM   15  C   UNL     1     -40.967  54.312 -51.319  1.00  0.00     0.122 C 
HETATM   16  H   UNL     1     -39.477  53.928 -52.694  1.00  0.00     0.279 HD
HETATM   17  H   UNL     1     -40.658  52.815 -52.733  1.00  0.00     0.279 HD
HETATM   18  C   UNL     1     -39.890  53.825 -50.318  1.00  0.00     0.046 C 
HETATM   19  C   UNL     1     -42.268  53.604 -50.929  1.00  0.00     0.046 C 
HETATM   20  C   UNL     1     -43.622  57.323 -53.882  1.00  0.00     0.074 C 
BRANCH   9  21
HETATM   21  O   UNL     1     -43.786  55.990 -51.880  1.00  0.00    -0.368 OA
HETATM   22  H   UNL     1     -43.414  55.131 -52.148  1.00  0.00     0.212 HD
ENDBRANCH   9  21
ENDBRANCH   2   3
ENDBRANCH   1   2
BRANCH   1  23
HETATM   23  N   UNL     1     -44.641  60.498 -53.320  1.00  0.00    -0.359 N 
HETATM   24  C   UNL     1     -43.803  60.871 -54.343  1.00  0.00     0.217 C 
HETATM   25  O   UNL     1     -42.631  61.189 -54.146  1.00  0.00    -0.274 OA
HETATM   26  H   UNL     1     -45.604  60.231 -53.514  1.00  0.00     0.162 HD
BRANCH  24  27
HETATM   27  C   UNL     1     -44.339  60.734 -55.755  1.00  0.00     0.107 C 
BRANCH  27  28
HETATM   28  C   UNL     1     -45.548  59.827 -55.957  1.00  0.00     0.048 C 
BRANCH  28  29
HETATM   29  C   UNL     1     -45.606  59.052 -57.253  1.00  0.00    -0.057 A 
HETATM   30  C   UNL     1     -46.422  59.453 -58.317  1.00  0.00     0.018 A 
HETATM   31  C   UNL     1     -46.423  58.795 -59.565  1.00  0.00    -0.016 A 
HETATM   32  C   UNL     1     -45.508  57.724 -59.704  1.00  0.00     0.079 A 
HETATM   33  C   UNL     1     -44.643  57.291 -58.668  1.00  0.00    -0.016 A 
HETATM   34  C   UNL     1     -44.732  57.977 -57.444  1.00  0.00     0.018 A 
BRANCH  31  35
HETATM   35  C   UNL     1     -47.309  59.359 -60.707  1.00  0.00    -0.021 C 
HETATM   36  C   UNL     1     -46.411  60.222 -61.618  1.00  0.00     0.019 C 
HETATM   37  C   UNL     1     -48.009  58.300 -61.591  1.00  0.00     0.019 C 
HETATM   38  C   UNL     1     -48.458  60.252 -60.167  1.00  0.00     0.019 C 
ENDBRANCH  31  35
BRANCH  32  39
HETATM   39  O   UNL     1     -45.406  57.084 -60.906  1.00  0.00    -0.360 OA
HETATM   40  H   UNL     1     -44.993  56.227 -60.710  1.00  0.00     0.217 HD
ENDBRANCH  32  39
BRANCH  33  41
HETATM   41  C   UNL     1     -43.607  56.155 -58.861  1.00  0.00    -0.021 C 
HETATM   42  C   UNL     1     -43.012  55.742 -57.496  1.00  0.00     0.019 C 
HETATM   43  C   UNL     1     -44.206  54.863 -59.479  1.00  0.00     0.019 C 
HETATM   44  C   UNL     1     -42.477  56.593 -59.819  1.00  0.00     0.019 C 
ENDBRANCH  33  41
ENDBRANCH  28  29
ENDBRANCH  27  28
ENDBRANCH  24  27
ENDBRANCH   1  23
TORSDOF 10
ENDMDL
MODEL 7
REMARK VINA RESULT:      -7.7      2.641      8.465
REMARK  10 active torsions:
REMARK  status: ('A' for Active; 'I' for Inactive)
REMARK    1  A    between atoms: N_15  and  C_16 
REMARK    2  A    between atoms: C_16  and  C_17 
REMARK    3  A    between atoms: C_17  and  N_18 
REMARK       I    between atoms: N_18  and  C_19 
REMARK    4  A    between atoms: C_19  and  C_20 
REMARK    5  A    between atoms: C_20  and  C_21 
REMARK    6  A    between atoms: C_21  and  C_22 
REMARK    7  A    between atoms: C_24  and  C_25 
REMARK    8  A    between atoms: C_29  and  O_30 
REMARK    9  A    between atoms: C_31  and  C_32 
REMARK   10  A    between atoms: C_38  and  O_39 
ROOT
HETATM    1  C   UNL     1     -44.258  60.353 -51.884  1.00  0.00     0.142 C 
ENDROOT
BRANCH   1   2
HETATM    2  C   UNL     1     -44.315  58.910 -51.371  1.00  0.00     0.151 C 
BRANCH   2   3
HETATM    3  N   UNL     1     -43.106  58.125 -51.652  1.00  0.00    -0.291 N 
HETATM    4  C   UNL     1     -41.879  58.751 -51.734  1.00  0.00     0.366 C 
HETATM    5  O   UNL     1     -40.995  57.949 -52.402  1.00  0.00    -0.287 OA
HETATM    6  O   UNL     1     -41.590  59.857 -51.309  1.00  0.00    -0.238 OA
HETATM    7  C   UNL     1     -41.576  56.618 -52.538  1.00  0.00     0.126 C 
HETATM    8  C   UNL     1     -40.970  56.035 -53.825  1.00  0.00     0.082 C 
HETATM    9  C   UNL     1     -43.089  56.979 -52.521  1.00  0.00     0.166 C 
HETATM   10  C   UNL     1     -41.054  55.835 -51.306  1.00  0.00     0.082 C 
HETATM   11  C   UNL     1     -41.051  54.514 -53.993  1.00  0.00     0.122 C 
HETATM   12  N   UNL     1     -40.522  53.852 -52.744  1.00  0.00    -0.059 N 
HETATM   13  C   UNL     1     -40.103  54.082 -55.132  1.00  0.00     0.046 C 
HETATM   14  C   UNL     1     -42.440  53.976 -54.338  1.00  0.00     0.046 C 
HETATM   15  C   UNL     1     -40.993  54.300 -51.380  1.00  0.00     0.122 C 
HETATM   16  H   UNL     1     -39.496  53.962 -52.759  1.00  0.00     0.279 HD
HETATM   17  H   UNL     1     -40.661  52.833 -52.820  1.00  0.00     0.279 HD
HETATM   18  C   UNL     1     -39.911  53.811 -50.386  1.00  0.00     0.046 C 
HETATM   19  C   UNL     1     -42.284  53.567 -51.005  1.00  0.00     0.046 C 
HETATM   20  C   UNL     1     -43.687  57.319 -53.893  1.00  0.00     0.074 C 
BRANCH   9  21
HETATM   21  O   UNL     1     -43.835  55.947 -51.916  1.00  0.00    -0.368 OA
HETATM   22  H   UNL     1     -43.572  55.108 -52.332  1.00  0.00     0.212 HD
ENDBRANCH   9  21
ENDBRANCH   2   3
ENDBRANCH   1   2
BRANCH   1  23
HETATM   23  N   UNL     1     -44.770  60.519 -53.229  1.00  0.00    -0.359 N 
HETATM   24  C   UNL     1     -43.962  60.956 -54.250  1.00  0.00     0.217 C 
HETATM   25  O   UNL     1     -42.792  61.287 -54.062  1.00  0.00    -0.274 OA
HETATM   26  H   UNL     1     -45.733  60.244 -53.415  1.00  0.00     0.162 HD
BRANCH  24  27
HETATM   27  C   UNL     1     -44.527  60.879 -55.655  1.00  0.00     0.107 C 
BRANCH  27  28
HETATM   28  C   UNL     1     -45.495  59.739 -55.955  1.00  0.00     0.048 C 
BRANCH  28  29
HETATM   29  C   UNL     1     -45.379  59.092 -57.316  1.00  0.00    -0.057 A 
HETATM   30  C   UNL     1     -44.545  57.992 -57.542  1.00  0.00     0.018 A 
HETATM   31  C   UNL     1     -44.491  57.320 -58.781  1.00  0.00    -0.016 A 
HETATM   32  C   UNL     1     -45.372  57.792 -59.784  1.00  0.00     0.079 A 
HETATM   33  C   UNL     1     -46.253  58.887 -59.602  1.00  0.00    -0.016 A 
HETATM   34  C   UNL     1     -46.218  59.524 -58.350  1.00  0.00     0.018 A 
BRANCH  31  35
HETATM   35  C   UNL     1     -43.590  56.063 -58.913  1.00  0.00    -0.021 C 
HETATM   36  C   UNL     1     -43.015  55.746 -57.517  1.00  0.00     0.019 C 
HETATM   37  C   UNL     1     -44.294  54.791 -59.440  1.00  0.00     0.019 C 
HETATM   38  C   UNL     1     -42.403  56.297 -59.887  1.00  0.00     0.019 C 
ENDBRANCH  31  35
BRANCH  32  39
HETATM   39  O   UNL     1     -45.422  57.147 -60.986  1.00  0.00    -0.360 OA
HETATM   40  H   UNL     1     -45.302  56.205 -60.782  1.00  0.00     0.217 HD
ENDBRANCH  32  39
BRANCH  33  41
HETATM   41  C   UNL     1     -47.251  59.350 -60.693  1.00  0.00    -0.021 C 
HETATM   42  C   UNL     1     -46.519  60.199 -61.756  1.00  0.00     0.019 C 
HETATM   43  C   UNL     1     -47.921  58.179 -61.462  1.00  0.00     0.019 C 
HETATM   44  C   UNL     1     -48.410  60.162 -60.074  1.00  0.00     0.019 C 
ENDBRANCH  33  41
ENDBRANCH  28  29
ENDBRANCH  27  28
ENDBRANCH  24  27
ENDBRANCH   1  23
TORSDOF 10
ENDMDL
MODEL 8
REMARK VINA RESULT:      -7.6      2.704      5.671
REMARK  10 active torsions:
REMARK  status: ('A' for Active; 'I' for Inactive)
REMARK    1  A    between atoms: N_15  and  C_16 
REMARK    2  A    between atoms: C_16  and  C_17 
REMARK    3  A    between atoms: C_17  and  N_18 
REMARK       I    between atoms: N_18  and  C_19 
REMARK    4  A    between atoms: C_19  and  C_20 
REMARK    5  A    between atoms: C_20  and  C_21 
REMARK    6  A    between atoms: C_21  and  C_22 
REMARK    7  A    between atoms: C_24  and  C_25 
REMARK    8  A    between atoms: C_29  and  O_30 
REMARK    9  A    between atoms: C_31  and  C_32 
REMARK   10  A    between atoms: C_38  and  O_39 
ROOT
HETATM    1  C   UNL     1     -45.840  55.635 -60.349  1.00  0.00     0.142 C 
ENDROOT
BRANCH   1   2
HETATM    2  C   UNL     1     -46.780  56.846 -60.320  1.00  0.00     0.151 C 
BRANCH   2   3
HETATM    3  N   UNL     1     -46.205  58.035 -59.678  1.00  0.00    -0.291 N 
HETATM    4  C   UNL     1     -46.682  58.460 -58.455  1.00  0.00     0.366 C 
HETATM    5  O   UNL     1     -46.331  59.767 -58.252  1.00  0.00    -0.287 OA
HETATM    6  O   UNL     1     -47.336  57.811 -57.658  1.00  0.00    -0.238 OA
HETATM    7  C   UNL     1     -45.349  60.154 -59.258  1.00  0.00     0.126 C 
HETATM    8  C   UNL     1     -45.546  61.664 -59.463  1.00  0.00     0.082 C 
HETATM    9  C   UNL     1     -45.743  59.186 -60.409  1.00  0.00     0.166 C 
HETATM   10  C   UNL     1     -43.977  59.886 -58.589  1.00  0.00     0.082 C 
HETATM   11  C   UNL     1     -44.390  62.423 -60.124  1.00  0.00     0.122 C 
HETATM   12  N   UNL     1     -43.107  62.092 -59.401  1.00  0.00    -0.059 N 
HETATM   13  C   UNL     1     -44.605  63.939 -59.927  1.00  0.00     0.046 C 
HETATM   14  C   UNL     1     -44.236  62.183 -61.626  1.00  0.00     0.046 C 
HETATM   15  C   UNL     1     -42.746  60.656 -59.096  1.00  0.00     0.122 C 
HETATM   16  H   UNL     1     -43.135  62.593 -58.499  1.00  0.00     0.279 HD
HETATM   17  H   UNL     1     -42.318  62.529 -59.901  1.00  0.00     0.279 HD
HETATM   18  C   UNL     1     -41.710  60.724 -57.947  1.00  0.00     0.046 C 
HETATM   19  C   UNL     1     -42.022  60.034 -60.294  1.00  0.00     0.046 C 
HETATM   20  C   UNL     1     -46.834  59.713 -61.351  1.00  0.00     0.074 C 
BRANCH   9  21
HETATM   21  O   UNL     1     -44.605  58.816 -61.154  1.00  0.00    -0.368 OA
HETATM   22  H   UNL     1     -44.524  59.436 -61.899  1.00  0.00     0.212 HD
ENDBRANCH   9  21
ENDBRANCH   2   3
ENDBRANCH   1   2
BRANCH   1  23
HETATM   23  N   UNL     1     -44.894  55.599 -59.253  1.00  0.00    -0.359 N 
HETATM   24  C   UNL     1     -43.603  56.042 -59.411  1.00  0.00     0.217 C 
HETATM   25  O   UNL     1     -43.172  56.427 -60.497  1.00  0.00    -0.274 OA
HETATM   26  H   UNL     1     -45.227  55.294 -58.340  1.00  0.00     0.162 HD
BRANCH  24  27
HETATM   27  C   UNL     1     -42.763  56.175 -58.155  1.00  0.00     0.107 C 
BRANCH  27  28
HETATM   28  C   UNL     1     -42.965  55.125 -57.067  1.00  0.00     0.048 C 
BRANCH  28  29
HETATM   29  C   UNL     1     -43.105  55.634 -55.652  1.00  0.00    -0.057 A 
HETATM   30  C   UNL     1     -42.629  54.906 -54.555  1.00  0.00     0.018 A 
HETATM   31  C   UNL     1     -42.671  55.404 -53.236  1.00  0.00    -0.016 A 
HETATM   32  C   UNL     1     -43.180  56.715 -53.081  1.00  0.00     0.079 A 
HETATM   33  C   UNL     1     -43.654  57.505 -54.159  1.00  0.00    -0.016 A 
HETATM   34  C   UNL     1     -43.612  56.920 -55.436  1.00  0.00     0.018 A 
BRANCH  31  35
HETATM   35  C   UNL     1     -42.051  54.553 -52.095  1.00  0.00    -0.021 C 
HETATM   36  C   UNL     1     -41.274  53.389 -52.743  1.00  0.00     0.019 C 
HETATM   37  C   UNL     1     -41.084  55.307 -51.152  1.00  0.00     0.019 C 
HETATM   38  C   UNL     1     -43.136  53.955 -51.159  1.00  0.00     0.019 C 
ENDBRANCH  31  35
BRANCH  32  39
HETATM   39  O   UNL     1     -43.189  57.287 -51.842  1.00  0.00    -0.360 OA
HETATM   40  H   UNL     1     -42.791  58.166 -51.958  1.00  0.00     0.217 HD
ENDBRANCH  32  39
BRANCH  33  41
HETATM   41  C   UNL     1     -44.153  58.961 -53.975  1.00  0.00    -0.021 C 
HETATM   42  C   UNL     1     -45.012  59.384 -55.188  1.00  0.00     0.019 C 
HETATM   43  C   UNL     1     -45.048  59.160 -52.722  1.00  0.00     0.019 C 
HETATM   44  C   UNL     1     -42.966  59.935 -53.803  1.00  0.00     0.019 C 
ENDBRANCH  33  41
ENDBRANCH  28  29
ENDBRANCH  27  28
ENDBRANCH  24  27
ENDBRANCH   1  23
TORSDOF 10
ENDMDL
MODEL 9
REMARK VINA RESULT:      -7.6      1.898      5.412
REMARK  10 active torsions:
REMARK  status: ('A' for Active; 'I' for Inactive)
REMARK    1  A    between atoms: N_15  and  C_16 
REMARK    2  A    between atoms: C_16  and  C_17 
REMARK    3  A    between atoms: C_17  and  N_18 
REMARK       I    between atoms: N_18  and  C_19 
REMARK    4  A    between atoms: C_19  and  C_20 
REMARK    5  A    between atoms: C_20  and  C_21 
REMARK    6  A    between atoms: C_21  and  C_22 
REMARK    7  A    between atoms: C_24  and  C_25 
REMARK    8  A    between atoms: C_29  and  O_30 
REMARK    9  A    between atoms: C_31  and  C_32 
REMARK   10  A    between atoms: C_38  and  O_39 
ROOT
HETATM    1  C   UNL     1     -45.385  60.185 -53.656  1.00  0.00     0.142 C 
ENDROOT
BRANCH   1   2
HETATM    2  C   UNL     1     -44.473  61.072 -54.512  1.00  0.00     0.151 C 
BRANCH   2   3
HETATM    3  N   UNL     1     -43.682  60.335 -55.506  1.00  0.00    -0.291 N 
HETATM    4  C   UNL     1     -42.345  60.082 -55.276  1.00  0.00     0.366 C 
HETATM    5  O   UNL     1     -41.722  59.784 -56.457  1.00  0.00    -0.287 OA
HETATM    6  O   UNL     1     -41.765  60.125 -54.205  1.00  0.00    -0.238 OA
HETATM    7  C   UNL     1     -42.735  59.566 -57.483  1.00  0.00     0.126 C 
HETATM    8  C   UNL     1     -42.068  59.964 -58.809  1.00  0.00     0.082 C 
HETATM    9  C   UNL     1     -43.883  60.455 -56.926  1.00  0.00     0.166 C 
HETATM   10  C   UNL     1     -42.992  58.037 -57.459  1.00  0.00     0.082 C 
HETATM   11  C   UNL     1     -42.723  59.439 -60.091  1.00  0.00     0.122 C 
HETATM   12  N   UNL     1     -42.929  57.950 -59.963  1.00  0.00    -0.059 N 
HETATM   13  C   UNL     1     -41.745  59.630 -61.271  1.00  0.00     0.046 C 
HETATM   14  C   UNL     1     -44.031  60.130 -60.477  1.00  0.00     0.046 C 
HETATM   15  C   UNL     1     -43.560  57.366 -58.721  1.00  0.00     0.122 C 
HETATM   16  H   UNL     1     -42.001  57.510 -60.064  1.00  0.00     0.279 HD
HETATM   17  H   UNL     1     -43.451  57.612 -60.786  1.00  0.00     0.279 HD
HETATM   18  C   UNL     1     -43.143  55.874 -58.705  1.00  0.00     0.046 C 
HETATM   19  C   UNL     1     -45.086  57.384 -58.852  1.00  0.00     0.046 C 
HETATM   20  C   UNL     1     -43.833  61.924 -57.367  1.00  0.00     0.074 C 
BRANCH   9  21
HETATM   21  O   UNL     1     -45.137  59.900 -57.249  1.00  0.00    -0.368 OA
HETATM   22  H   UNL     1     -45.330  59.204 -56.597  1.00  0.00     0.212 HD
ENDBRANCH   9  21
ENDBRANCH   2   3
ENDBRANCH   1   2
BRANCH   1  23
HETATM   23  N   UNL     1     -44.683  59.135 -52.947  1.00  0.00    -0.359 N 
HETATM   24  C   UNL     1     -44.027  59.388 -51.767  1.00  0.00     0.217 C 
HETATM   25  O   UNL     1     -43.949  60.520 -51.291  1.00  0.00    -0.274 OA
HETATM   26  H   UNL     1     -44.740  58.186 -53.312  1.00  0.00     0.162 HD
BRANCH  24  27
HETATM   27  C   UNL     1     -43.521  58.187 -50.990  1.00  0.00     0.107 C 
BRANCH  27  28
HETATM   28  C   UNL     1     -44.117  56.828 -51.343  1.00  0.00     0.048 C 
BRANCH  28  29
HETATM   29  C   UNL     1     -43.139  55.701 -51.583  1.00  0.00    -0.057 A 
HETATM   30  C   UNL     1     -42.906  55.188 -52.864  1.00  0.00     0.018 A 
HETATM   31  C   UNL     1     -41.933  54.198 -53.121  1.00  0.00    -0.016 A 
HETATM   32  C   UNL     1     -41.162  53.781 -52.010  1.00  0.00     0.079 A 
HETATM   33  C   UNL     1     -41.340  54.284 -50.697  1.00  0.00    -0.016 A 
HETATM   34  C   UNL     1     -42.355  55.240 -50.520  1.00  0.00     0.018 A 
BRANCH  31  35
HETATM   35  C   UNL     1     -41.696  53.745 -54.586  1.00  0.00    -0.021 C 
HETATM   36  C   UNL     1     -42.948  54.120 -55.405  1.00  0.00     0.019 C 
HETATM   37  C   UNL     1     -40.464  54.367 -55.284  1.00  0.00     0.019 C 
HETATM   38  C   UNL     1     -41.484  52.211 -54.694  1.00  0.00     0.019 C 
ENDBRANCH  31  35
BRANCH  32  39
HETATM   39  O   UNL     1     -40.157  52.875 -52.197  1.00  0.00    -0.360 OA
HETATM   40  H   UNL     1     -40.595  52.053 -52.472  1.00  0.00     0.217 HD
ENDBRANCH  32  39
BRANCH  33  41
HETATM   41  C   UNL     1     -40.445  53.857 -49.507  1.00  0.00    -0.021 C 
HETATM   42  C   UNL     1     -38.982  54.279 -49.764  1.00  0.00     0.019 C 
HETATM   43  C   UNL     1     -40.851  54.507 -48.157  1.00  0.00     0.019 C 
HETATM   44  C   UNL     1     -40.522  52.331 -49.276  1.00  0.00     0.019 C 
ENDBRANCH  33  41
ENDBRANCH  28  29
ENDBRANCH  27  28
ENDBRANCH  24  27
ENDBRANCH   1  23
TORSDOF 10
ENDMDL
MODEL 10
REMARK VINA RESULT:      -7.3      2.804      8.295
REMARK  10 active torsions:
REMARK  status: ('A' for Active; 'I' for Inactive)
REMARK    1  A    between atoms: N_15  and  C_16 
REMARK    2  A    between atoms: C_16  and  C_17 
REMARK    3  A    between atoms: C_17  and  N_18 
REMARK       I    between atoms: N_18  and  C_19 
REMARK    4  A    between atoms: C_19  and  C_20 
REMARK    5  A    between atoms: C_20  and  C_21 
REMARK    6  A    between atoms: C_21  and  C_22 
REMARK    7  A    between atoms: C_24  and  C_25 
REMARK    8  A    between atoms: C_29  and  O_30 
REMARK    9  A    between atoms: C_31  and  C_32 
REMARK   10  A    between atoms: C_38  and  O_39 
ROOT
HETATM    1  C   UNL     1     -44.712  60.353 -51.607  1.00  0.00     0.142 C 
ENDROOT
BRANCH   1   2
HETATM    2  C   UNL     1     -44.677  58.906 -51.101  1.00  0.00     0.151 C 
BRANCH   2   3
HETATM    3  N   UNL     1     -43.423  58.199 -51.392  1.00  0.00    -0.291 N 
HETATM    4  C   UNL     1     -42.230  58.892 -51.422  1.00  0.00     0.366 C 
HETATM    5  O   UNL     1     -41.294  58.167 -52.107  1.00  0.00    -0.287 OA
HETATM    6  O   UNL     1     -42.008  59.991 -50.945  1.00  0.00    -0.238 OA
HETATM    7  C   UNL     1     -41.800  56.815 -52.311  1.00  0.00     0.126 C 
HETATM    8  C   UNL     1     -41.142  56.322 -53.609  1.00  0.00     0.082 C 
HETATM    9  C   UNL     1     -43.330  57.094 -52.309  1.00  0.00     0.166 C 
HETATM   10  C   UNL     1     -41.259  56.007 -51.104  1.00  0.00     0.082 C 
HETATM   11  C   UNL     1     -41.138  54.807 -53.844  1.00  0.00     0.122 C 
HETATM   12  N   UNL     1     -40.597  54.120 -52.614  1.00  0.00    -0.059 N 
HETATM   13  C   UNL     1     -40.148  54.476 -54.982  1.00  0.00     0.046 C 
HETATM   14  C   UNL     1     -42.490  54.213 -54.239  1.00  0.00     0.046 C 
HETATM   15  C   UNL     1     -41.115  54.482 -51.242  1.00  0.00     0.122 C 
HETATM   16  H   UNL     1     -39.578  54.284 -52.604  1.00  0.00     0.279 HD
HETATM   17  H   UNL     1     -40.680  53.099 -52.737  1.00  0.00     0.279 HD
HETATM   18  C   UNL     1     -40.026  54.007 -50.248  1.00  0.00     0.046 C 
HETATM   19  C   UNL     1     -42.372  53.666 -50.925  1.00  0.00     0.046 C 
HETATM   20  C   UNL     1     -43.922  57.463 -53.676  1.00  0.00     0.074 C 
BRANCH   9  21
HETATM   21  O   UNL     1     -44.031  56.000 -51.763  1.00  0.00    -0.368 OA
HETATM   22  H   UNL     1     -43.486  55.205 -51.895  1.00  0.00     0.212 HD
ENDBRANCH   9  21
ENDBRANCH   2   3
ENDBRANCH   1   2
BRANCH   1  23
HETATM   23  N   UNL     1     -44.314  60.501 -52.992  1.00  0.00    -0.359 N 
HETATM   24  C   UNL     1     -43.617  61.605 -53.419  1.00  0.00     0.217 C 
HETATM   25  O   UNL     1     -43.355  62.543 -52.668  1.00  0.00    -0.274 OA
HETATM   26  H   UNL     1     -44.511  59.734 -53.633  1.00  0.00     0.162 HD
BRANCH  24  27
HETATM   27  C   UNL     1     -43.053  61.560 -54.826  1.00  0.00     0.107 C 
BRANCH  27  28
HETATM   28  C   UNL     1     -42.180  60.362 -55.188  1.00  0.00     0.048 C 
BRANCH  28  29
HETATM   29  C   UNL     1     -42.194  59.926 -56.634  1.00  0.00    -0.057 A 
HETATM   30  C   UNL     1     -42.572  58.632 -57.012  1.00  0.00     0.018 A 
HETATM   31  C   UNL     1     -42.677  58.234 -58.361  1.00  0.00    -0.016 A 
HETATM   32  C   UNL     1     -42.423  59.236 -59.327  1.00  0.00     0.079 A 
HETATM   33  C   UNL     1     -42.059  60.566 -59.002  1.00  0.00    -0.016 A 
HETATM   34  C   UNL     1     -41.940  60.871 -57.635  1.00  0.00     0.018 A 
BRANCH  31  35
HETATM   35  C   UNL     1     -43.177  56.800 -58.681  1.00  0.00    -0.021 C 
HETATM   36  C   UNL     1     -44.670  56.893 -59.057  1.00  0.00     0.019 C 
HETATM   37  C   UNL     1     -42.437  56.078 -59.832  1.00  0.00     0.019 C 
HETATM   38  C   UNL     1     -43.040  55.849 -57.460  1.00  0.00     0.019 C 
ENDBRANCH  31  35
BRANCH  32  39
HETATM   39  O   UNL     1     -42.571  58.940 -60.652  1.00  0.00    -0.360 OA
HETATM   40  H   UNL     1     -42.175  59.686 -61.131  1.00  0.00     0.217 HD
ENDBRANCH  32  39
BRANCH  33  41
HETATM   41  C   UNL     1     -41.843  61.663 -60.075  1.00  0.00    -0.021 C 
HETATM   42  C   UNL     1     -40.625  62.538 -59.702  1.00  0.00     0.019 C 
HETATM   43  C   UNL     1     -41.553  61.101 -61.492  1.00  0.00     0.019 C 
HETATM   44  C   UNL     1     -43.102  62.547 -60.224  1.00  0.00     0.019 C 
ENDBRANCH  33  41
ENDBRANCH  28  29
ENDBRANCH  27  28
ENDBRANCH  24  27
ENDBRANCH   1  23
TORSDOF 10
ENDMDL
