MODEL 1
REMARK VINA RESULT:      -7.6      0.000      0.000
REMARK  6 active torsions:
REMARK  status: ('A' for Active; 'I' for Inactive)
REMARK    1  A    between atoms: C_5  and  N_6 
REMARK    2  A    between atoms: N_6  and  C_7 
REMARK    3  A    between atoms: C_7  and  C_8 
REMARK    4  A    between atoms: N_10  and  C_12 
REMARK    5  A    between atoms: C_12  and  C_13 
REMARK    6  A    between atoms: C_14  and  O_15 
ROOT
HETATM    1  C   UNL     1     -43.567  55.959 -54.247  1.00  0.00     0.031 C 
HETATM    2  C   UNL     1     -43.007  54.536 -54.213  1.00  0.00     0.241 C 
HETATM    3  N   UNL     1     -42.016  54.521 -53.078  1.00  0.00    -0.067 N 
HETATM    4  H   UNL     1     -42.249  53.721 -52.459  1.00  0.00     0.280 HD
HETATM    5  C   UNL     1     -42.195  55.777 -52.265  1.00  0.00     0.235 C 
HETATM    6  C   UNL     1     -43.508  56.356 -52.771  1.00  0.00     0.035 C 
ENDROOT
BRANCH   1   7
HETATM    7  C   UNL     1     -42.764  56.920 -55.143  1.00  0.00     0.127 C 
BRANCH   7   8
HETATM    8  N   UNL     1     -42.267  56.226 -56.325  1.00  0.00    -0.376 N 
HETATM    9  H   UNL     1     -41.245  56.277 -56.402  1.00  0.00     0.161 HD
BRANCH   8  10
HETATM   10  C   UNL     1     -42.811  56.319 -57.606  1.00  0.00     0.101 A 
HETATM   11  N   UNL     1     -43.559  55.355 -58.170  1.00  0.00    -0.347 N 
HETATM   12  C   UNL     1     -44.074  55.442 -59.415  1.00  0.00     0.007 A 
HETATM   13  H   UNL     1     -43.763  54.521 -57.637  1.00  0.00     0.167 HD
HETATM   14  C   UNL     1     -44.933  54.328 -59.925  1.00  0.00     0.068 C 
HETATM   15  C   UNL     1     -43.809  56.569 -60.190  1.00  0.00     0.025 A 
HETATM   16  C   UNL     1     -43.015  57.579 -59.670  1.00  0.00     0.006 A 
HETATM   17  C   UNL     1     -42.512  57.451 -58.380  1.00  0.00     0.048 A 
ENDBRANCH   8  10
ENDBRANCH   7   8
ENDBRANCH   1   7
BRANCH   3  18
HETATM   18  C   UNL     1     -40.595  54.213 -53.481  1.00  0.00     0.276 C 
BRANCH  18  19
HETATM   19  C   UNL     1     -40.262  52.748 -53.445  1.00  0.00     0.002 A 
HETATM   20  C   UNL     1     -40.081  52.080 -52.227  1.00  0.00     0.091 A 
HETATM   21  C   UNL     1     -39.822  50.707 -52.191  1.00  0.00     0.044 A 
HETATM   22 BR   UNL     1     -39.580  49.814 -50.540  1.00  0.00    -0.048 Br
HETATM   23  C   UNL     1     -39.738  49.985 -53.378  1.00  0.00     0.022 A 
HETATM   24  C   UNL     1     -39.916  50.635 -54.598  1.00  0.00     0.002 A 
HETATM   25  C   UNL     1     -40.182  52.008 -54.635  1.00  0.00     0.012 A 
BRANCH  20  26
HETATM   26  O   UNL     1     -40.150  52.829 -51.075  1.00  0.00    -0.359 OA
HETATM   27  H   UNL     1     -40.173  53.769 -51.364  1.00  0.00     0.218 HD
ENDBRANCH  20  26
ENDBRANCH  18  19
ENDBRANCH   3  18
TORSDOF 6
ENDMDL
MODEL 2
REMARK VINA RESULT:      -7.5      1.407      1.862
REMARK  6 active torsions:
REMARK  status: ('A' for Active; 'I' for Inactive)
REMARK    1  A    between atoms: C_5  and  N_6 
REMARK    2  A    between atoms: N_6  and  C_7 
REMARK    3  A    between atoms: C_7  and  C_8 
REMARK    4  A    between atoms: N_10  and  C_12 
REMARK    5  A    between atoms: C_12  and  C_13 
REMARK    6  A    between atoms: C_14  and  O_15 
ROOT
HETATM    1  C   UNL     1     -44.159  56.626 -54.340  1.00  0.00     0.031 C 
HETATM    2  C   UNL     1     -43.517  55.257 -54.107  1.00  0.00     0.241 C 
HETATM    3  N   UNL     1     -42.622  55.433 -52.907  1.00  0.00    -0.067 N 
HETATM    4  H   UNL     1     -42.855  54.689 -52.221  1.00  0.00     0.280 HD
HETATM    5  C   UNL     1     -42.945  56.752 -52.254  1.00  0.00     0.235 C 
HETATM    6  C   UNL     1     -44.247  57.179 -52.917  1.00  0.00     0.035 C 
ENDROOT
BRANCH   1   7
HETATM    7  C   UNL     1     -43.348  57.540 -55.275  1.00  0.00     0.127 C 
BRANCH   7   8
HETATM    8  N   UNL     1     -42.587  56.749 -56.235  1.00  0.00    -0.376 N 
HETATM    9  H   UNL     1     -41.578  56.930 -56.171  1.00  0.00     0.161 HD
BRANCH   8  10
HETATM   10  C   UNL     1     -42.918  56.568 -57.578  1.00  0.00     0.101 A 
HETATM   11  N   UNL     1     -43.606  55.511 -58.040  1.00  0.00    -0.347 N 
HETATM   12  C   UNL     1     -43.916  55.331 -59.341  1.00  0.00     0.007 A 
HETATM   13  H   UNL     1     -43.927  54.812 -57.383  1.00  0.00     0.167 HD
HETATM   14  C   UNL     1     -44.728  54.139 -59.738  1.00  0.00     0.068 C 
HETATM   15  C   UNL     1     -43.486  56.264 -60.283  1.00  0.00     0.025 A 
HETATM   16  C   UNL     1     -42.742  57.357 -59.866  1.00  0.00     0.006 A 
HETATM   17  C   UNL     1     -42.454  57.506 -58.514  1.00  0.00     0.048 A 
ENDBRANCH   8  10
ENDBRANCH   7   8
ENDBRANCH   1   7
BRANCH   3  18
HETATM   18  C   UNL     1     -41.157  55.185 -53.166  1.00  0.00     0.276 C 
BRANCH  18  19
HETATM   19  C   UNL     1     -40.670  53.859 -52.656  1.00  0.00     0.002 A 
HETATM   20  C   UNL     1     -40.414  52.798 -53.535  1.00  0.00     0.091 A 
HETATM   21  C   UNL     1     -39.912  51.580 -53.067  1.00  0.00     0.044 A 
HETATM   22 BR   UNL     1     -39.569  50.155 -54.263  1.00  0.00    -0.048 Br
HETATM   23  C   UNL     1     -39.663  51.409 -51.708  1.00  0.00     0.022 A 
HETATM   24  C   UNL     1     -39.912  52.455 -50.821  1.00  0.00     0.002 A 
HETATM   25  C   UNL     1     -40.408  53.675 -51.290  1.00  0.00     0.012 A 
BRANCH  20  26
HETATM   26  O   UNL     1     -40.692  52.996 -54.868  1.00  0.00    -0.359 OA
HETATM   27  H   UNL     1     -41.532  53.508 -54.897  1.00  0.00     0.218 HD
ENDBRANCH  20  26
ENDBRANCH  18  19
ENDBRANCH   3  18
TORSDOF 6
ENDMDL
MODEL 3
REMARK VINA RESULT:      -7.3      4.854      7.549
REMARK  6 active torsions:
REMARK  status: ('A' for Active; 'I' for Inactive)
REMARK    1  A    between atoms: C_5  and  N_6 
REMARK    2  A    between atoms: N_6  and  C_7 
REMARK    3  A    between atoms: C_7  and  C_8 
REMARK    4  A    between atoms: N_10  and  C_12 
REMARK    5  A    between atoms: C_12  and  C_13 
REMARK    6  A    between atoms: C_14  and  O_15 
ROOT
HETATM    1  C   UNL     1     -42.355  54.177 -51.515  1.00  0.00     0.031 C 
HETATM    2  C   UNL     1     -41.479  54.751 -50.399  1.00  0.00     0.241 C 
HETATM    3  N   UNL     1     -41.974  56.158 -50.185  1.00  0.00    -0.067 N 
HETATM    4  H   UNL     1     -42.168  56.280 -49.172  1.00  0.00     0.280 HD
HETATM    5  C   UNL     1     -43.283  56.325 -50.911  1.00  0.00     0.235 C 
HETATM    6  C   UNL     1     -43.680  54.903 -51.280  1.00  0.00     0.035 C 
ENDROOT
BRANCH   1   7
HETATM    7  C   UNL     1     -41.796  54.421 -52.929  1.00  0.00     0.127 C 
BRANCH   7   8
HETATM    8  N   UNL     1     -40.480  53.810 -53.073  1.00  0.00    -0.376 N 
HETATM    9  H   UNL     1     -39.927  54.256 -53.814  1.00  0.00     0.161 HD
BRANCH   8  10
HETATM   10  C   UNL     1     -40.222  52.439 -53.094  1.00  0.00     0.101 A 
HETATM   11  N   UNL     1     -39.900  51.725 -52.003  1.00  0.00    -0.347 N 
HETATM   12  C   UNL     1     -39.639  50.401 -52.027  1.00  0.00     0.007 A 
HETATM   13  H   UNL     1     -39.862  52.193 -51.107  1.00  0.00     0.167 HD
HETATM   14  C   UNL     1     -39.337  49.696 -50.742  1.00  0.00     0.068 C 
HETATM   15  C   UNL     1     -39.670  49.718 -53.241  1.00  0.00     0.025 A 
HETATM   16  C   UNL     1     -39.962  50.413 -54.404  1.00  0.00     0.006 A 
HETATM   17  C   UNL     1     -40.233  51.775 -54.331  1.00  0.00     0.048 A 
ENDBRANCH   8  10
ENDBRANCH   7   8
ENDBRANCH   1   7
BRANCH   3  18
HETATM   18  C   UNL     1     -40.951  57.236 -50.448  1.00  0.00     0.276 C 
BRANCH  18  19
HETATM   19  C   UNL     1     -41.335  58.175 -51.555  1.00  0.00     0.002 A 
HETATM   20  C   UNL     1     -42.041  59.356 -51.287  1.00  0.00     0.091 A 
HETATM   21  C   UNL     1     -42.353  60.256 -52.310  1.00  0.00     0.044 A 
HETATM   22 BR   UNL     1     -43.306  61.847 -51.937  1.00  0.00    -0.048 Br
HETATM   23  C   UNL     1     -41.965  59.981 -53.618  1.00  0.00     0.022 A 
HETATM   24  C   UNL     1     -41.262  58.811 -53.901  1.00  0.00     0.002 A 
HETATM   25  C   UNL     1     -40.943  57.914 -52.877  1.00  0.00     0.012 A 
BRANCH  20  26
HETATM   26  O   UNL     1     -42.427  59.584 -49.987  1.00  0.00    -0.359 OA
HETATM   27  H   UNL     1     -43.394  59.760 -50.018  1.00  0.00     0.218 HD
ENDBRANCH  20  26
ENDBRANCH  18  19
ENDBRANCH   3  18
TORSDOF 6
ENDMDL
MODEL 4
REMARK VINA RESULT:      -7.3      3.807      7.893
REMARK  6 active torsions:
REMARK  status: ('A' for Active; 'I' for Inactive)
REMARK    1  A    between atoms: C_5  and  N_6 
REMARK    2  A    between atoms: N_6  and  C_7 
REMARK    3  A    between atoms: C_7  and  C_8 
REMARK    4  A    between atoms: N_10  and  C_12 
REMARK    5  A    between atoms: C_12  and  C_13 
REMARK    6  A    between atoms: C_14  and  O_15 
ROOT
HETATM    1  C   UNL     1     -42.478  55.568 -53.325  1.00  0.00     0.031 C 
HETATM    2  C   UNL     1     -42.956  56.674 -54.268  1.00  0.00     0.241 C 
HETATM    3  N   UNL     1     -43.420  55.966 -55.514  1.00  0.00    -0.067 N 
HETATM    4  H   UNL     1     -44.381  56.296 -55.732  1.00  0.00     0.280 HD
HETATM    5  C   UNL     1     -43.514  54.491 -55.224  1.00  0.00     0.235 C 
HETATM    6  C   UNL     1     -43.397  54.408 -53.709  1.00  0.00     0.035 C 
ENDROOT
BRANCH   1   7
HETATM    7  C   UNL     1     -40.989  55.215 -53.489  1.00  0.00     0.127 C 
BRANCH   7   8
HETATM    8  N   UNL     1     -40.581  54.232 -52.492  1.00  0.00    -0.376 N 
HETATM    9  H   UNL     1     -39.859  54.598 -51.862  1.00  0.00     0.161 HD
BRANCH   8  10
HETATM   10  C   UNL     1     -40.305  52.888 -52.747  1.00  0.00     0.101 A 
HETATM   11  N   UNL     1     -39.971  52.002 -51.793  1.00  0.00    -0.347 N 
HETATM   12  C   UNL     1     -39.692  50.705 -52.043  1.00  0.00     0.007 A 
HETATM   13  H   UNL     1     -39.938  52.310 -50.831  1.00  0.00     0.167 HD
HETATM   14  C   UNL     1     -39.378  49.796 -50.897  1.00  0.00     0.068 C 
HETATM   15  C   UNL     1     -39.716  50.239 -53.356  1.00  0.00     0.025 A 
HETATM   16  C   UNL     1     -40.019  51.119 -54.383  1.00  0.00     0.006 A 
HETATM   17  C   UNL     1     -40.309  52.444 -54.079  1.00  0.00     0.048 A 
ENDBRANCH   8  10
ENDBRANCH   7   8
ENDBRANCH   1   7
BRANCH   3  18
HETATM   18  C   UNL     1     -42.663  56.329 -56.768  1.00  0.00     0.276 C 
BRANCH  18  19
HETATM   19  C   UNL     1     -43.525  56.388 -57.997  1.00  0.00     0.002 A 
HETATM   20  C   UNL     1     -44.529  57.357 -58.127  1.00  0.00     0.091 A 
HETATM   21  C   UNL     1     -45.297  57.446 -59.292  1.00  0.00     0.044 A 
HETATM   22 BR   UNL     1     -46.649  58.758 -59.458  1.00  0.00    -0.048 Br
HETATM   23  C   UNL     1     -45.070  56.560 -60.342  1.00  0.00     0.022 A 
HETATM   24  C   UNL     1     -44.074  55.591 -60.228  1.00  0.00     0.002 A 
HETATM   25  C   UNL     1     -43.301  55.506 -59.065  1.00  0.00     0.012 A 
BRANCH  20  26
HETATM   26  O   UNL     1     -44.739  58.201 -57.062  1.00  0.00    -0.359 OA
HETATM   27  H   UNL     1     -45.710  58.201 -56.903  1.00  0.00     0.218 HD
ENDBRANCH  20  26
ENDBRANCH  18  19
ENDBRANCH   3  18
TORSDOF 6
ENDMDL
MODEL 5
REMARK VINA RESULT:      -7.1      1.668      2.229
REMARK  6 active torsions:
REMARK  status: ('A' for Active; 'I' for Inactive)
REMARK    1  A    between atoms: C_5  and  N_6 
REMARK    2  A    between atoms: N_6  and  C_7 
REMARK    3  A    between atoms: C_7  and  C_8 
REMARK    4  A    between atoms: N_10  and  C_12 
REMARK    5  A    between atoms: C_12  and  C_13 
REMARK    6  A    between atoms: C_14  and  O_15 
ROOT
HETATM    1  C   UNL     1     -44.317  57.210 -55.129  1.00  0.00     0.031 C 
HETATM    2  C   UNL     1     -43.577  55.955 -54.661  1.00  0.00     0.241 C 
HETATM    3  N   UNL     1     -42.605  56.430 -53.612  1.00  0.00    -0.067 N 
HETATM    4  H   UNL     1     -42.740  55.846 -52.763  1.00  0.00     0.280 HD
HETATM    5  C   UNL     1     -42.955  57.846 -53.236  1.00  0.00     0.235 C 
HETATM    6  C   UNL     1     -44.327  58.061 -53.858  1.00  0.00     0.035 C 
ENDROOT
BRANCH   1   7
HETATM    7  C   UNL     1     -43.636  57.927 -56.309  1.00  0.00     0.127 C 
BRANCH   7   8
HETATM    8  N   UNL     1     -43.173  56.962 -57.299  1.00  0.00    -0.376 N 
HETATM    9  H   UNL     1     -42.271  57.231 -57.708  1.00  0.00     0.161 HD
BRANCH   8  10
HETATM   10  C   UNL     1     -43.958  56.391 -58.300  1.00  0.00     0.101 A 
HETATM   11  N   UNL     1     -45.065  56.967 -58.799  1.00  0.00    -0.347 N 
HETATM   12  C   UNL     1     -45.831  56.408 -59.759  1.00  0.00     0.007 A 
HETATM   13  H   UNL     1     -45.340  57.876 -58.452  1.00  0.00     0.167 HD
HETATM   14  C   UNL     1     -47.017  57.161 -60.274  1.00  0.00     0.068 C 
HETATM   15  C   UNL     1     -45.495  55.151 -60.259  1.00  0.00     0.025 A 
HETATM   16  C   UNL     1     -44.383  54.496 -59.755  1.00  0.00     0.006 A 
HETATM   17  C   UNL     1     -43.617  55.113 -58.772  1.00  0.00     0.048 A 
ENDBRANCH   8  10
ENDBRANCH   7   8
ENDBRANCH   1   7
BRANCH   3  18
HETATM   18  C   UNL     1     -41.152  56.191 -53.940  1.00  0.00     0.276 C 
BRANCH  18  19
HETATM   19  C   UNL     1     -40.718  54.765 -53.755  1.00  0.00     0.002 A 
HETATM   20  C   UNL     1     -40.684  54.181 -52.482  1.00  0.00     0.091 A 
HETATM   21  C   UNL     1     -40.330  52.839 -52.315  1.00  0.00     0.044 A 
HETATM   22 BR   UNL     1     -40.288  52.060 -50.591  1.00  0.00    -0.048 Br
HETATM   23  C   UNL     1     -40.002  52.064 -53.424  1.00  0.00     0.022 A 
HETATM   24  C   UNL     1     -40.031  52.631 -54.698  1.00  0.00     0.002 A 
HETATM   25  C   UNL     1     -40.392  53.972 -54.866  1.00  0.00     0.012 A 
BRANCH  20  26
HETATM   26  O   UNL     1     -40.994  54.981 -51.407  1.00  0.00    -0.359 OA
HETATM   27  H   UNL     1     -40.348  54.750 -50.701  1.00  0.00     0.218 HD
ENDBRANCH  20  26
ENDBRANCH  18  19
ENDBRANCH   3  18
TORSDOF 6
ENDMDL
MODEL 6
REMARK VINA RESULT:      -7.0      3.771      7.122
REMARK  6 active torsions:
REMARK  status: ('A' for Active; 'I' for Inactive)
REMARK    1  A    between atoms: C_5  and  N_6 
REMARK    2  A    between atoms: N_6  and  C_7 
REMARK    3  A    between atoms: C_7  and  C_8 
REMARK    4  A    between atoms: N_10  and  C_12 
REMARK    5  A    between atoms: C_12  and  C_13 
REMARK    6  A    between atoms: C_14  and  O_15 
ROOT
HETATM    1  C   UNL     1     -43.002  55.779 -55.898  1.00  0.00     0.031 C 
HETATM    2  C   UNL     1     -43.894  55.971 -54.671  1.00  0.00     0.241 C 
HETATM    3  N   UNL     1     -43.276  57.109 -53.900  1.00  0.00    -0.067 N 
HETATM    4  H   UNL     1     -44.019  57.809 -53.711  1.00  0.00     0.280 HD
HETATM    5  C   UNL     1     -42.247  57.779 -54.771  1.00  0.00     0.235 C 
HETATM    6  C   UNL     1     -42.509  57.204 -56.155  1.00  0.00     0.035 C 
ENDROOT
BRANCH   1   7
HETATM    7  C   UNL     1     -41.843  54.790 -55.674  1.00  0.00     0.127 C 
BRANCH   7   8
HETATM    8  N   UNL     1     -42.193  53.813 -54.649  1.00  0.00    -0.376 N 
HETATM    9  H   UNL     1     -42.910  54.168 -54.006  1.00  0.00     0.161 HD
BRANCH   8  10
HETATM   10  C   UNL     1     -41.284  53.048 -53.918  1.00  0.00     0.101 A 
HETATM   11  N   UNL     1     -40.786  51.875 -54.344  1.00  0.00    -0.347 N 
HETATM   12  C   UNL     1     -39.915  51.130 -53.630  1.00  0.00     0.007 A 
HETATM   13  H   UNL     1     -41.060  51.529 -55.253  1.00  0.00     0.167 HD
HETATM   14  C   UNL     1     -39.388  49.861 -54.223  1.00  0.00     0.068 C 
HETATM   15  C   UNL     1     -39.517  51.563 -52.366  1.00  0.00     0.025 A 
HETATM   16  C   UNL     1     -40.028  52.749 -51.864  1.00  0.00     0.006 A 
HETATM   17  C   UNL     1     -40.915  53.489 -52.637  1.00  0.00     0.048 A 
ENDBRANCH   8  10
ENDBRANCH   7   8
ENDBRANCH   1   7
BRANCH   3  18
HETATM   18  C   UNL     1     -42.809  56.752 -52.510  1.00  0.00     0.276 C 
BRANCH  18  19
HETATM   19  C   UNL     1     -42.188  57.902 -51.769  1.00  0.00     0.002 A 
HETATM   20  C   UNL     1     -42.940  59.038 -51.441  1.00  0.00     0.091 A 
HETATM   21  C   UNL     1     -42.377  60.086 -50.706  1.00  0.00     0.044 A 
HETATM   22 BR   UNL     1     -43.401  61.615 -50.268  1.00  0.00    -0.048 Br
HETATM   23  C   UNL     1     -41.050  60.009 -50.294  1.00  0.00     0.022 A 
HETATM   24  C   UNL     1     -40.289  58.885 -50.612  1.00  0.00     0.002 A 
HETATM   25  C   UNL     1     -40.854  57.834 -51.341  1.00  0.00     0.012 A 
BRANCH  20  26
HETATM   26  O   UNL     1     -44.241  59.089 -51.883  1.00  0.00    -0.359 OA
HETATM   27  H   UNL     1     -44.784  58.672 -51.176  1.00  0.00     0.218 HD
ENDBRANCH  20  26
ENDBRANCH  18  19
ENDBRANCH   3  18
TORSDOF 6
ENDMDL
MODEL 7
REMARK VINA RESULT:      -7.0      3.748      7.136
REMARK  6 active torsions:
REMARK  status: ('A' for Active; 'I' for Inactive)
REMARK    1  A    between atoms: C_5  and  N_6 
REMARK    2  A    between atoms: N_6  and  C_7 
REMARK    3  A    between atoms: C_7  and  C_8 
REMARK    4  A    between atoms: N_10  and  C_12 
REMARK    5  A    between atoms: C_12  and  C_13 
REMARK    6  A    between atoms: C_14  and  O_15 
ROOT
HETATM    1  C   UNL     1     -42.542  56.185 -50.653  1.00  0.00     0.031 C 
HETATM    2  C   UNL     1     -41.481  57.031 -51.360  1.00  0.00     0.241 C 
HETATM    3  N   UNL     1     -42.030  57.291 -52.739  1.00  0.00    -0.067 N 
HETATM    4  H   UNL     1     -41.991  58.315 -52.911  1.00  0.00     0.280 HD
HETATM    5  C   UNL     1     -43.482  56.893 -52.763  1.00  0.00     0.235 C 
HETATM    6  C   UNL     1     -43.832  56.695 -51.295  1.00  0.00     0.035 C 
ENDROOT
BRANCH   1   7
HETATM    7  C   UNL     1     -42.353  54.669 -50.843  1.00  0.00     0.127 C 
BRANCH   7   8
HETATM    8  N   UNL     1     -40.970  54.362 -51.188  1.00  0.00    -0.376 N 
HETATM    9  H   UNL     1     -40.489  55.167 -51.607  1.00  0.00     0.161 HD
BRANCH   8  10
HETATM   10  C   UNL     1     -40.535  53.204 -51.833  1.00  0.00     0.101 A 
HETATM   11  N   UNL     1     -40.118  52.103 -51.186  1.00  0.00    -0.347 N 
HETATM   12  C   UNL     1     -39.686  50.987 -51.811  1.00  0.00     0.007 A 
HETATM   13  H   UNL     1     -40.138  52.094 -50.175  1.00  0.00     0.167 HD
HETATM   14  C   UNL     1     -39.290  49.801 -50.991  1.00  0.00     0.068 C 
HETATM   15  C   UNL     1     -39.632  50.959 -53.204  1.00  0.00     0.025 A 
HETATM   16  C   UNL     1     -40.017  52.081 -53.921  1.00  0.00     0.006 A 
HETATM   17  C   UNL     1     -40.464  53.205 -53.236  1.00  0.00     0.048 A 
ENDBRANCH   8  10
ENDBRANCH   7   8
ENDBRANCH   1   7
BRANCH   3  18
HETATM   18  C   UNL     1     -41.193  56.742 -53.868  1.00  0.00     0.276 C 
BRANCH  18  19
HETATM   19  C   UNL     1     -41.936  56.626 -55.168  1.00  0.00     0.002 A 
HETATM   20  C   UNL     1     -42.313  57.768 -55.888  1.00  0.00     0.091 A 
HETATM   21  C   UNL     1     -42.959  57.660 -57.123  1.00  0.00     0.044 A 
HETATM   22 BR   UNL     1     -43.462  59.208 -58.086  1.00  0.00    -0.048 Br
HETATM   23  C   UNL     1     -43.239  56.403 -57.652  1.00  0.00     0.022 A 
HETATM   24  C   UNL     1     -42.870  55.257 -56.948  1.00  0.00     0.002 A 
HETATM   25  C   UNL     1     -42.218  55.365 -55.716  1.00  0.00     0.012 A 
BRANCH  20  26
HETATM   26  O   UNL     1     -42.039  58.993 -55.325  1.00  0.00    -0.359 OA
HETATM   27  H   UNL     1     -41.871  59.605 -56.076  1.00  0.00     0.218 HD
ENDBRANCH  20  26
ENDBRANCH  18  19
ENDBRANCH   3  18
TORSDOF 6
ENDMDL
MODEL 8
REMARK VINA RESULT:      -7.0      1.939      2.801
REMARK  6 active torsions:
REMARK  status: ('A' for Active; 'I' for Inactive)
REMARK    1  A    between atoms: C_5  and  N_6 
REMARK    2  A    between atoms: N_6  and  C_7 
REMARK    3  A    between atoms: C_7  and  C_8 
REMARK    4  A    between atoms: N_10  and  C_12 
REMARK    5  A    between atoms: C_12  and  C_13 
REMARK    6  A    between atoms: C_14  and  O_15 
ROOT
HETATM    1  C   UNL     1     -44.914  57.624 -54.382  1.00  0.00     0.031 C 
HETATM    2  C   UNL     1     -44.038  56.423 -54.020  1.00  0.00     0.241 C 
HETATM    3  N   UNL     1     -42.796  57.005 -53.397  1.00  0.00    -0.067 N 
HETATM    4  H   UNL     1     -42.643  56.534 -52.484  1.00  0.00     0.280 HD
HETATM    5  C   UNL     1     -43.040  58.463 -53.108  1.00  0.00     0.235 C 
HETATM    6  C   UNL     1     -44.542  58.625 -53.287  1.00  0.00     0.035 C 
ENDROOT
BRANCH   1   7
HETATM    7  C   UNL     1     -44.655  58.177 -55.795  1.00  0.00     0.127 C 
BRANCH   7   8
HETATM    8  N   UNL     1     -44.391  57.091 -56.732  1.00  0.00    -0.376 N 
HETATM    9  H   UNL     1     -44.157  56.215 -56.251  1.00  0.00     0.161 HD
BRANCH   8  10
HETATM   10  C   UNL     1     -43.607  57.187 -57.881  1.00  0.00     0.101 A 
HETATM   11  N   UNL     1     -43.231  58.354 -58.431  1.00  0.00    -0.347 N 
HETATM   12  C   UNL     1     -42.481  58.446 -59.550  1.00  0.00     0.007 A 
HETATM   13  H   UNL     1     -43.507  59.217 -57.982  1.00  0.00     0.167 HD
HETATM   14  C   UNL     1     -42.080  59.799 -60.048  1.00  0.00     0.068 C 
HETATM   15  C   UNL     1     -42.086  57.283 -60.208  1.00  0.00     0.025 A 
HETATM   16  C   UNL     1     -42.476  56.052 -59.704  1.00  0.00     0.006 A 
HETATM   17  C   UNL     1     -43.240  56.005 -58.543  1.00  0.00     0.048 A 
ENDBRANCH   8  10
ENDBRANCH   7   8
ENDBRANCH   1   7
BRANCH   3  18
HETATM   18  C   UNL     1     -41.515  56.701 -54.134  1.00  0.00     0.276 C 
BRANCH  18  19
HETATM   19  C   UNL     1     -41.018  55.299 -53.928  1.00  0.00     0.002 A 
HETATM   20  C   UNL     1     -40.915  54.753 -52.641  1.00  0.00     0.091 A 
HETATM   21  C   UNL     1     -40.502  53.431 -52.451  1.00  0.00     0.044 A 
HETATM   22 BR   UNL     1     -40.367  52.704 -50.710  1.00  0.00    -0.048 Br
HETATM   23  C   UNL     1     -40.183  52.639 -53.551  1.00  0.00     0.022 A 
HETATM   24  C   UNL     1     -40.281  53.167 -54.837  1.00  0.00     0.002 A 
HETATM   25  C   UNL     1     -40.700  54.487 -55.028  1.00  0.00     0.012 A 
BRANCH  20  26
HETATM   26  O   UNL     1     -41.217  55.571 -51.578  1.00  0.00    -0.359 OA
HETATM   27  H   UNL     1     -41.055  55.035 -50.768  1.00  0.00     0.218 HD
ENDBRANCH  20  26
ENDBRANCH  18  19
ENDBRANCH   3  18
TORSDOF 6
ENDMDL
MODEL 9
REMARK VINA RESULT:      -7.0      2.906      4.931
REMARK  6 active torsions:
REMARK  status: ('A' for Active; 'I' for Inactive)
REMARK    1  A    between atoms: C_5  and  N_6 
REMARK    2  A    between atoms: N_6  and  C_7 
REMARK    3  A    between atoms: C_7  and  C_8 
REMARK    4  A    between atoms: N_10  and  C_12 
REMARK    5  A    between atoms: C_12  and  C_13 
REMARK    6  A    between atoms: C_14  and  O_15 
ROOT
HETATM    1  C   UNL     1     -40.945  54.084 -54.820  1.00  0.00     0.031 C 
HETATM    2  C   UNL     1     -40.641  55.104 -53.721  1.00  0.00     0.241 C 
HETATM    3  N   UNL     1     -40.645  54.321 -52.434  1.00  0.00    -0.067 N 
HETATM    4  H   UNL     1     -39.759  54.525 -51.932  1.00  0.00     0.280 HD
HETATM    5  C   UNL     1     -40.638  52.851 -52.764  1.00  0.00     0.235 C 
HETATM    6  C   UNL     1     -40.316  52.811 -54.251  1.00  0.00     0.035 C 
ENDROOT
BRANCH   1   7
HETATM    7  C   UNL     1     -42.448  53.915 -55.110  1.00  0.00     0.127 C 
BRANCH   7   8
HETATM    8  N   UNL     1     -43.065  55.206 -55.390  1.00  0.00    -0.376 N 
HETATM    9  H   UNL     1     -44.009  55.276 -54.992  1.00  0.00     0.161 HD
BRANCH   8  10
HETATM   10  C   UNL     1     -43.058  55.856 -56.625  1.00  0.00     0.101 A 
HETATM   11  N   UNL     1     -43.542  55.314 -57.755  1.00  0.00    -0.347 N 
HETATM   12  C   UNL     1     -43.524  55.939 -58.951  1.00  0.00     0.007 A 
HETATM   13  H   UNL     1     -43.959  54.393 -57.715  1.00  0.00     0.167 HD
HETATM   14  C   UNL     1     -44.135  55.260 -60.136  1.00  0.00     0.068 C 
HETATM   15  C   UNL     1     -42.950  57.205 -59.054  1.00  0.00     0.025 A 
HETATM   16  C   UNL     1     -42.403  57.796 -57.926  1.00  0.00     0.006 A 
HETATM   17  C   UNL     1     -42.453  57.119 -56.712  1.00  0.00     0.048 A 
ENDBRANCH   8  10
ENDBRANCH   7   8
ENDBRANCH   1   7
BRANCH   3  18
HETATM   18  C   UNL     1     -41.689  54.751 -51.433  1.00  0.00     0.276 C 
BRANCH  18  19
HETATM   19  C   UNL     1     -41.889  56.239 -51.373  1.00  0.00     0.002 A 
HETATM   20  C   UNL     1     -43.032  56.835 -51.923  1.00  0.00     0.091 A 
HETATM   21  C   UNL     1     -43.245  58.213 -51.821  1.00  0.00     0.044 A 
HETATM   22 BR   UNL     1     -44.791  59.007 -52.566  1.00  0.00    -0.048 Br
HETATM   23  C   UNL     1     -42.311  59.013 -51.169  1.00  0.00     0.022 A 
HETATM   24  C   UNL     1     -41.169  58.434 -50.616  1.00  0.00     0.002 A 
HETATM   25  C   UNL     1     -40.959  57.055 -50.712  1.00  0.00     0.012 A 
BRANCH  20  26
HETATM   26  O   UNL     1     -43.922  56.017 -52.578  1.00  0.00    -0.359 OA
HETATM   27  H   UNL     1     -43.631  55.095 -52.394  1.00  0.00     0.218 HD
ENDBRANCH  20  26
ENDBRANCH  18  19
ENDBRANCH   3  18
TORSDOF 6
ENDMDL
MODEL 10
REMARK VINA RESULT:      -7.0      3.461      7.193
REMARK  6 active torsions:
REMARK  status: ('A' for Active; 'I' for Inactive)
REMARK    1  A    between atoms: C_5  and  N_6 
REMARK    2  A    between atoms: N_6  and  C_7 
REMARK    3  A    between atoms: C_7  and  C_8 
REMARK    4  A    between atoms: N_10  and  C_12 
REMARK    5  A    between atoms: C_12  and  C_13 
REMARK    6  A    between atoms: C_14  and  O_15 
ROOT
HETATM    1  C   UNL     1     -42.228  54.931 -54.694  1.00  0.00     0.031 C 
HETATM    2  C   UNL     1     -43.364  54.666 -53.704  1.00  0.00     0.241 C 
HETATM    3  N   UNL     1     -43.799  56.024 -53.219  1.00  0.00    -0.067 N 
HETATM    4  H   UNL     1     -44.828  56.094 -53.342  1.00  0.00     0.280 HD
HETATM    5  C   UNL     1     -43.177  57.074 -54.102  1.00  0.00     0.235 C 
HETATM    6  C   UNL     1     -42.633  56.283 -55.283  1.00  0.00     0.035 C 
ENDROOT
BRANCH   1   7
HETATM    7  C   UNL     1     -40.834  54.972 -54.041  1.00  0.00     0.127 C 
BRANCH   7   8
HETATM    8  N   UNL     1     -40.833  54.231 -52.785  1.00  0.00    -0.376 N 
HETATM    9  H   UNL     1     -40.477  54.794 -52.005  1.00  0.00     0.161 HD
BRANCH   8  10
HETATM   10  C   UNL     1     -40.388  52.919 -52.620  1.00  0.00     0.101 A 
HETATM   11  N   UNL     1     -40.298  52.031 -53.625  1.00  0.00    -0.347 N 
HETATM   12  C   UNL     1     -39.879  50.759 -53.463  1.00  0.00     0.007 A 
HETATM   13  H   UNL     1     -40.541  52.327 -54.561  1.00  0.00     0.167 HD
HETATM   14  C   UNL     1     -39.771  49.870 -54.661  1.00  0.00     0.068 C 
HETATM   15  C   UNL     1     -39.543  50.305 -52.188  1.00  0.00     0.025 A 
HETATM   16  C   UNL     1     -39.652  51.168 -51.110  1.00  0.00     0.006 A 
HETATM   17  C   UNL     1     -40.079  52.474 -51.325  1.00  0.00     0.048 A 
ENDBRANCH   8  10
ENDBRANCH   7   8
ENDBRANCH   1   7
BRANCH   3  18
HETATM   18  C   UNL     1     -43.635  56.251 -51.736  1.00  0.00     0.276 C 
BRANCH  18  19
HETATM   19  C   UNL     1     -43.158  57.632 -51.386  1.00  0.00     0.002 A 
HETATM   20  C   UNL     1     -41.804  57.882 -51.126  1.00  0.00     0.091 A 
HETATM   21  C   UNL     1     -41.352  59.176 -50.850  1.00  0.00     0.044 A 
HETATM   22 BR   UNL     1     -39.521  59.503 -50.501  1.00  0.00    -0.048 Br
HETATM   23  C   UNL     1     -42.253  60.236 -50.829  1.00  0.00     0.022 A 
HETATM   24  C   UNL     1     -43.603  60.003 -51.086  1.00  0.00     0.002 A 
HETATM   25  C   UNL     1     -44.056  58.710 -51.368  1.00  0.00     0.012 A 
BRANCH  20  26
HETATM   26  O   UNL     1     -40.946  56.807 -51.135  1.00  0.00    -0.359 OA
HETATM   27  H   UNL     1     -41.273  56.205 -51.841  1.00  0.00     0.218 HD
ENDBRANCH  20  26
ENDBRANCH  18  19
ENDBRANCH   3  18
TORSDOF 6
ENDMDL
