MODEL 1
REMARK VINA RESULT:      -7.6      0.000      0.000
REMARK  5 active torsions:
REMARK  status: ('A' for Active; 'I' for Inactive)
REMARK    1  A    between atoms: C_2  and  O_3 
REMARK    2  A    between atoms: C_4  and  C_5 
REMARK    3  A    between atoms: C_5  and  O_6 
REMARK    4  A    between atoms: C_9  and  C_10 
REMARK    5  A    between atoms: C_22  and  O_23 
ROOT
HETATM    1  C   UNL     1     -41.799  59.274 -54.805  1.00  0.00     0.047 C 
HETATM    2  C   UNL     1     -42.210  57.996 -54.054  1.00  0.00     0.073 C 
HETATM    3  C   UNL     1     -41.011  57.366 -53.269  1.00  0.00     0.133 C 
HETATM    4  C   UNL     1     -41.344  56.218 -52.271  1.00  0.00     0.074 C 
HETATM    5  C   UNL     1     -42.738  56.305 -51.754  1.00  0.00     0.030 A 
HETATM    6  C   UNL     1     -43.670  57.224 -52.186  1.00  0.00     0.042 A 
HETATM    7  N   UNL     1     -44.802  57.019 -51.449  1.00  0.00    -0.279 N 
HETATM    8  H   UNL     1     -45.684  57.521 -51.485  1.00  0.00     0.189 HD
HETATM    9  N   UNL     1     -44.666  56.019 -50.553  1.00  0.00    -0.149 NA
HETATM   10  C   UNL     1     -43.414  55.628 -50.737  1.00  0.00     0.190 A 
HETATM   11  C   UNL     1     -43.471  58.295 -53.194  1.00  0.00     0.097 C 
ENDROOT
BRANCH   4  12
HETATM   12  C   UNL     1     -41.134  54.824 -52.861  1.00  0.00    -0.048 A 
HETATM   13  C   UNL     1     -40.410  53.890 -52.095  1.00  0.00     0.009 A 
HETATM   14  C   UNL     1     -40.168  52.597 -52.567  1.00  0.00     0.024 A 
HETATM   15  C   UNL     1     -40.638  52.220 -53.819  1.00  0.00     0.034 A 
HETATM   16 CL   UNL     1     -40.345  50.628 -54.403  1.00  0.00    -0.084 Cl
HETATM   17  C   UNL     1     -41.350  53.124 -54.602  1.00  0.00     0.024 A 
HETATM   18  C   UNL     1     -41.598  54.416 -54.125  1.00  0.00     0.009 A 
ENDBRANCH   4  12
BRANCH   3  19
HETATM   19  C   UNL     1     -40.289  58.437 -52.477  1.00  0.00     0.266 C 
HETATM   20  O   UNL     1     -39.476  59.223 -52.943  1.00  0.00    -0.265 OA
BRANCH  19  21
HETATM   21  O   UNL     1     -40.673  58.395 -51.171  1.00  0.00    -0.326 OA
HETATM   22  C   UNL     1     -41.039  59.663 -50.624  1.00  0.00     0.213 C 
ENDBRANCH  19  21
ENDBRANCH   3  19
BRANCH   2  23
HETATM   23  O   UNL     1     -42.580  57.084 -55.110  1.00  0.00    -0.389 OA
HETATM   24  H   UNL     1     -41.772  56.647 -55.427  1.00  0.00     0.210 HD
ENDBRANCH   2  23
BRANCH  10  25
HETATM   25  O   UNL     1     -42.991  54.663 -49.928  1.00  0.00    -0.343 OA
HETATM   26  H   UNL     1     -42.023  54.752 -49.924  1.00  0.00     0.219 HD
ENDBRANCH  10  25
TORSDOF 5
ENDMDL
MODEL 2
REMARK VINA RESULT:      -7.3      2.710      4.008
REMARK  5 active torsions:
REMARK  status: ('A' for Active; 'I' for Inactive)
REMARK    1  A    between atoms: C_2  and  O_3 
REMARK    2  A    between atoms: C_4  and  C_5 
REMARK    3  A    between atoms: C_5  and  O_6 
REMARK    4  A    between atoms: C_9  and  C_10 
REMARK    5  A    between atoms: C_22  and  O_23 
ROOT
HETATM    1  C   UNL     1     -41.885  59.833 -52.535  1.00  0.00     0.047 C 
HETATM    2  C   UNL     1     -41.806  58.754 -53.629  1.00  0.00     0.073 C 
HETATM    3  C   UNL     1     -42.740  57.537 -53.320  1.00  0.00     0.133 C 
HETATM    4  C   UNL     1     -42.945  56.495 -54.460  1.00  0.00     0.074 C 
HETATM    5  C   UNL     1     -42.756  57.092 -55.811  1.00  0.00     0.030 A 
HETATM    6  C   UNL     1     -42.338  58.386 -56.037  1.00  0.00     0.042 A 
HETATM    7  N   UNL     1     -42.334  58.572 -57.390  1.00  0.00    -0.279 N 
HETATM    8  H   UNL     1     -42.096  59.407 -57.916  1.00  0.00     0.189 HD
HETATM    9  N   UNL     1     -42.727  57.473 -58.069  1.00  0.00    -0.149 NA
HETATM   10  C   UNL     1     -43.001  56.612 -57.099  1.00  0.00     0.190 A 
HETATM   11  C   UNL     1     -42.035  59.419 -55.016  1.00  0.00     0.097 C 
ENDROOT
BRANCH   4  12
HETATM   12  C   UNL     1     -42.030  55.278 -54.338  1.00  0.00    -0.048 A 
HETATM   13  C   UNL     1     -42.373  54.292 -53.391  1.00  0.00     0.009 A 
HETATM   14  C   UNL     1     -41.585  53.152 -53.213  1.00  0.00     0.024 A 
HETATM   15  C   UNL     1     -40.432  52.984 -53.971  1.00  0.00     0.034 A 
HETATM   16 CL   UNL     1     -39.459  51.581 -53.756  1.00  0.00    -0.084 Cl
HETATM   17  C   UNL     1     -40.063  53.945 -54.908  1.00  0.00     0.024 A 
HETATM   18  C   UNL     1     -40.858  55.083 -55.091  1.00  0.00     0.009 A 
ENDBRANCH   4  12
BRANCH   3  19
HETATM   19  C   UNL     1     -44.117  58.026 -52.923  1.00  0.00     0.266 C 
HETATM   20  O   UNL     1     -44.966  58.435 -53.703  1.00  0.00    -0.265 OA
BRANCH  19  21
HETATM   21  O   UNL     1     -44.273  57.948 -51.572  1.00  0.00    -0.326 OA
HETATM   22  C   UNL     1     -44.032  56.650 -51.026  1.00  0.00     0.213 C 
ENDBRANCH  19  21
ENDBRANCH   3  19
BRANCH   2  23
HETATM   23  O   UNL     1     -40.439  58.297 -53.559  1.00  0.00    -0.389 OA
HETATM   24  H   UNL     1     -40.416  57.371 -53.852  1.00  0.00     0.210 HD
ENDBRANCH   2  23
BRANCH  10  25
HETATM   25  O   UNL     1     -43.470  55.435 -57.496  1.00  0.00    -0.343 OA
HETATM   26  H   UNL     1     -43.369  54.857 -56.720  1.00  0.00     0.219 HD
ENDBRANCH  10  25
TORSDOF 5
ENDMDL
MODEL 3
REMARK VINA RESULT:      -7.1      2.380      4.187
REMARK  5 active torsions:
REMARK  status: ('A' for Active; 'I' for Inactive)
REMARK    1  A    between atoms: C_2  and  O_3 
REMARK    2  A    between atoms: C_4  and  C_5 
REMARK    3  A    between atoms: C_5  and  O_6 
REMARK    4  A    between atoms: C_9  and  C_10 
REMARK    5  A    between atoms: C_22  and  O_23 
ROOT
HETATM    1  C   UNL     1     -45.747  57.674 -55.736  1.00  0.00     0.047 C 
HETATM    2  C   UNL     1     -44.500  57.655 -54.834  1.00  0.00     0.073 C 
HETATM    3  C   UNL     1     -43.227  57.173 -55.605  1.00  0.00     0.133 C 
HETATM    4  C   UNL     1     -41.856  57.345 -54.885  1.00  0.00     0.074 C 
HETATM    5  C   UNL     1     -41.873  58.458 -53.896  1.00  0.00     0.030 A 
HETATM    6  C   UNL     1     -42.996  59.187 -53.567  1.00  0.00     0.042 A 
HETATM    7  N   UNL     1     -42.602  60.140 -52.671  1.00  0.00    -0.279 N 
HETATM    8  H   UNL     1     -43.159  60.863 -52.225  1.00  0.00     0.189 HD
HETATM    9  N   UNL     1     -41.282  60.081 -52.393  1.00  0.00    -0.149 NA
HETATM   10  C   UNL     1     -40.865  59.085 -53.161  1.00  0.00     0.190 A 
HETATM   11  C   UNL     1     -44.358  59.037 -54.134  1.00  0.00     0.097 C 
ENDROOT
BRANCH   4  12
HETATM   12  C   UNL     1     -41.384  56.076 -54.176  1.00  0.00    -0.048 A 
HETATM   13  C   UNL     1     -40.748  55.088 -54.953  1.00  0.00     0.009 A 
HETATM   14  C   UNL     1     -40.293  53.897 -54.382  1.00  0.00     0.024 A 
HETATM   15  C   UNL     1     -40.478  53.668 -53.023  1.00  0.00     0.034 A 
HETATM   16 CL   UNL     1     -39.918  52.203 -52.315  1.00  0.00    -0.084 Cl
HETATM   17  C   UNL     1     -41.110  54.622 -52.232  1.00  0.00     0.024 A 
HETATM   18  C   UNL     1     -41.558  55.818 -52.804  1.00  0.00     0.009 A 
ENDBRANCH   4  12
BRANCH   3  19
HETATM   19  C   UNL     1     -43.116  57.899 -56.930  1.00  0.00     0.266 C 
HETATM   20  O   UNL     1     -42.688  59.035 -57.072  1.00  0.00    -0.265 OA
BRANCH  19  21
HETATM   21  O   UNL     1     -43.567  57.104 -57.941  1.00  0.00    -0.326 OA
HETATM   22  C   UNL     1     -43.098  55.755 -57.883  1.00  0.00     0.213 C 
ENDBRANCH  19  21
ENDBRANCH   3  19
BRANCH   2  23
HETATM   23  O   UNL     1     -44.818  56.665 -53.834  1.00  0.00    -0.389 OA
HETATM   24  H   UNL     1     -44.300  56.865 -53.036  1.00  0.00     0.210 HD
ENDBRANCH   2  23
BRANCH  10  25
HETATM   25  O   UNL     1     -39.561  58.839 -53.120  1.00  0.00    -0.343 OA
HETATM   26  H   UNL     1     -39.484  58.001 -52.633  1.00  0.00     0.219 HD
ENDBRANCH  10  25
TORSDOF 5
ENDMDL
MODEL 4
REMARK VINA RESULT:      -6.8      3.325      4.660
REMARK  5 active torsions:
REMARK  status: ('A' for Active; 'I' for Inactive)
REMARK    1  A    between atoms: C_2  and  O_3 
REMARK    2  A    between atoms: C_4  and  C_5 
REMARK    3  A    between atoms: C_5  and  O_6 
REMARK    4  A    between atoms: C_9  and  C_10 
REMARK    5  A    between atoms: C_22  and  O_23 
ROOT
HETATM    1  C   UNL     1     -44.082  57.907 -51.708  1.00  0.00     0.047 C 
HETATM    2  C   UNL     1     -43.546  56.952 -52.789  1.00  0.00     0.073 C 
HETATM    3  C   UNL     1     -42.468  57.637 -53.694  1.00  0.00     0.133 C 
HETATM    4  C   UNL     1     -41.667  56.715 -54.661  1.00  0.00     0.074 C 
HETATM    5  C   UNL     1     -41.587  55.312 -54.168  1.00  0.00     0.030 A 
HETATM    6  C   UNL     1     -42.237  54.846 -53.045  1.00  0.00     0.042 A 
HETATM    7  N   UNL     1     -41.881  53.535 -52.896  1.00  0.00    -0.279 N 
HETATM    8  H   UNL     1     -42.156  52.881 -52.170  1.00  0.00     0.189 HD
HETATM    9  N   UNL     1     -41.032  53.113 -53.855  1.00  0.00    -0.149 NA
HETATM   10  C   UNL     1     -40.850  54.203 -54.587  1.00  0.00     0.190 A 
HETATM   11  C   UNL     1     -43.090  55.627 -52.115  1.00  0.00     0.097 C 
ENDROOT
BRANCH   4  12
HETATM   12  C   UNL     1     -42.230  56.696 -56.081  1.00  0.00    -0.048 A 
HETATM   13  C   UNL     1     -42.138  57.881 -56.839  1.00  0.00     0.009 A 
HETATM   14  C   UNL     1     -42.635  57.948 -58.143  1.00  0.00     0.024 A 
HETATM   15  C   UNL     1     -43.243  56.833 -58.709  1.00  0.00     0.034 A 
HETATM   16 CL   UNL     1     -43.854  56.911 -60.315  1.00  0.00    -0.084 Cl
HETATM   17  C   UNL     1     -43.354  55.652 -57.982  1.00  0.00     0.024 A 
HETATM   18  C   UNL     1     -42.850  55.584 -56.678  1.00  0.00     0.009 A 
ENDBRANCH   4  12
BRANCH   3  19
HETATM   19  C   UNL     1     -41.449  58.356 -52.834  1.00  0.00     0.266 C 
HETATM   20  O   UNL     1     -40.995  57.929 -51.782  1.00  0.00    -0.265 OA
BRANCH  19  21
HETATM   21  O   UNL     1     -41.116  59.550 -53.400  1.00  0.00    -0.326 OA
HETATM   22  C   UNL     1     -42.234  60.339 -53.812  1.00  0.00     0.213 C 
ENDBRANCH  19  21
ENDBRANCH   3  19
BRANCH   2  23
HETATM   23  O   UNL     1     -44.704  56.677 -53.605  1.00  0.00    -0.389 OA
HETATM   24  H   UNL     1     -44.709  57.309 -54.344  1.00  0.00     0.210 HD
ENDBRANCH   2  23
BRANCH  10  25
HETATM   25  O   UNL     1     -39.996  54.078 -55.597  1.00  0.00    -0.343 OA
HETATM   26  H   UNL     1     -40.281  54.748 -56.242  1.00  0.00     0.219 HD
ENDBRANCH  10  25
TORSDOF 5
ENDMDL
MODEL 5
REMARK VINA RESULT:      -6.7     16.822     19.037
REMARK  5 active torsions:
REMARK  status: ('A' for Active; 'I' for Inactive)
REMARK    1  A    between atoms: C_2  and  O_3 
REMARK    2  A    between atoms: C_4  and  C_5 
REMARK    3  A    between atoms: C_5  and  O_6 
REMARK    4  A    between atoms: C_9  and  C_10 
REMARK    5  A    between atoms: C_22  and  O_23 
ROOT
HETATM    1  C   UNL     1     -34.252  38.246 -51.407  1.00  0.00     0.047 C 
HETATM    2  C   UNL     1     -33.758  38.507 -52.841  1.00  0.00     0.073 C 
HETATM    3  C   UNL     1     -33.695  40.036 -53.170  1.00  0.00     0.133 C 
HETATM    4  C   UNL     1     -32.979  40.446 -54.491  1.00  0.00     0.074 C 
HETATM    5  C   UNL     1     -31.956  39.450 -54.912  1.00  0.00     0.030 A 
HETATM    6  C   UNL     1     -31.737  38.247 -54.276  1.00  0.00     0.042 A 
HETATM    7  N   UNL     1     -30.696  37.640 -54.922  1.00  0.00    -0.279 N 
HETATM    8  H   UNL     1     -30.254  36.749 -54.717  1.00  0.00     0.189 HD
HETATM    9  N   UNL     1     -30.216  38.378 -55.944  1.00  0.00    -0.149 NA
HETATM   10  C   UNL     1     -30.968  39.468 -55.899  1.00  0.00     0.190 A 
HETATM   11  C   UNL     1     -32.429  37.733 -53.069  1.00  0.00     0.097 C 
ENDROOT
BRANCH   4  12
HETATM   12  C   UNL     1     -33.942  40.671 -55.655  1.00  0.00    -0.048 A 
HETATM   13  C   UNL     1     -34.535  41.943 -55.780  1.00  0.00     0.009 A 
HETATM   14  C   UNL     1     -35.432  42.227 -56.814  1.00  0.00     0.024 A 
HETATM   15  C   UNL     1     -35.761  41.238 -57.733  1.00  0.00     0.034 A 
HETATM   16 CL   UNL     1     -36.864  41.584 -59.008  1.00  0.00    -0.084 Cl
HETATM   17  C   UNL     1     -35.198  39.970 -57.630  1.00  0.00     0.024 A 
HETATM   18  C   UNL     1     -34.294  39.689 -56.599  1.00  0.00     0.009 A 
ENDBRANCH   4  12
BRANCH   3  19
HETATM   19  C   UNL     1     -33.001  40.781 -52.048  1.00  0.00     0.266 C 
HETATM   20  O   UNL     1     -31.794  40.784 -51.852  1.00  0.00    -0.265 OA
BRANCH  19  21
HETATM   21  O   UNL     1     -33.916  41.444 -51.287  1.00  0.00    -0.326 OA
HETATM   22  C   UNL     1     -35.067  41.892 -52.006  1.00  0.00     0.213 C 
ENDBRANCH  19  21
ENDBRANCH   3  19
BRANCH   2  23
HETATM   23  O   UNL     1     -34.782  37.915 -53.667  1.00  0.00    -0.389 OA
HETATM   24  H   UNL     1     -34.868  36.980 -53.416  1.00  0.00     0.210 HD
ENDBRANCH   2  23
BRANCH  10  25
HETATM   25  O   UNL     1     -30.668  40.408 -56.787  1.00  0.00    -0.343 OA
HETATM   26  H   UNL     1     -31.046  40.085 -57.623  1.00  0.00     0.219 HD
ENDBRANCH  10  25
TORSDOF 5
ENDMDL
MODEL 6
REMARK VINA RESULT:      -6.7      1.923      2.895
REMARK  5 active torsions:
REMARK  status: ('A' for Active; 'I' for Inactive)
REMARK    1  A    between atoms: C_2  and  O_3 
REMARK    2  A    between atoms: C_4  and  C_5 
REMARK    3  A    between atoms: C_5  and  O_6 
REMARK    4  A    between atoms: C_9  and  C_10 
REMARK    5  A    between atoms: C_22  and  O_23 
ROOT
HETATM    1  C   UNL     1     -44.417  56.925 -53.076  1.00  0.00     0.047 C 
HETATM    2  C   UNL     1     -43.392  55.975 -52.432  1.00  0.00     0.073 C 
HETATM    3  C   UNL     1     -41.996  56.056 -53.135  1.00  0.00     0.133 C 
HETATM    4  C   UNL     1     -40.806  55.338 -52.430  1.00  0.00     0.074 C 
HETATM    5  C   UNL     1     -41.004  55.229 -50.959  1.00  0.00     0.030 A 
HETATM    6  C   UNL     1     -42.152  55.613 -50.299  1.00  0.00     0.042 A 
HETATM    7  N   UNL     1     -41.934  55.404 -48.967  1.00  0.00    -0.279 N 
HETATM    8  H   UNL     1     -42.554  55.588 -48.184  1.00  0.00     0.189 HD
HETATM    9  N   UNL     1     -40.705  54.907 -48.711  1.00  0.00    -0.149 NA
HETATM   10  C   UNL     1     -40.160  54.838 -49.917  1.00  0.00     0.190 A 
HETATM   11  C   UNL     1     -43.366  56.222 -50.896  1.00  0.00     0.097 C 
ENDROOT
BRANCH   4  12
HETATM   12  C   UNL     1     -40.529  53.942 -52.985  1.00  0.00    -0.048 A 
HETATM   13  C   UNL     1     -40.217  52.921 -52.066  1.00  0.00     0.009 A 
HETATM   14  C   UNL     1     -39.943  51.619 -52.494  1.00  0.00     0.024 A 
HETATM   15  C   UNL     1     -39.966  51.319 -53.851  1.00  0.00     0.034 A 
HETATM   16 CL   UNL     1     -39.631  49.717 -54.381  1.00  0.00    -0.084 Cl
HETATM   17  C   UNL     1     -40.262  52.309 -54.782  1.00  0.00     0.024 A 
HETATM   18  C   UNL     1     -40.544  53.611 -54.352  1.00  0.00     0.009 A 
ENDBRANCH   4  12
BRANCH   3  19
HETATM   19  C   UNL     1     -41.587  57.503 -53.315  1.00  0.00     0.266 C 
HETATM   20  O   UNL     1     -41.144  58.221 -52.429  1.00  0.00    -0.265 OA
BRANCH  19  21
HETATM   21  O   UNL     1     -41.788  57.892 -54.605  1.00  0.00    -0.326 OA
HETATM   22  C   UNL     1     -41.851  56.815 -55.542  1.00  0.00     0.213 C 
ENDBRANCH  19  21
ENDBRANCH   3  19
BRANCH   2  23
HETATM   23  O   UNL     1     -43.940  54.663 -52.677  1.00  0.00    -0.389 OA
HETATM   24  H   UNL     1     -44.850  54.649 -52.336  1.00  0.00     0.210 HD
ENDBRANCH   2  23
BRANCH  10  25
HETATM   25  O   UNL     1     -38.901  54.418 -49.952  1.00  0.00    -0.343 OA
HETATM   26  H   UNL     1     -38.602  54.614 -50.857  1.00  0.00     0.219 HD
ENDBRANCH  10  25
TORSDOF 5
ENDMDL
MODEL 7
REMARK VINA RESULT:      -6.7      2.390      3.997
REMARK  5 active torsions:
REMARK  status: ('A' for Active; 'I' for Inactive)
REMARK    1  A    between atoms: C_2  and  O_3 
REMARK    2  A    between atoms: C_4  and  C_5 
REMARK    3  A    between atoms: C_5  and  O_6 
REMARK    4  A    between atoms: C_9  and  C_10 
REMARK    5  A    between atoms: C_22  and  O_23 
ROOT
HETATM    1  C   UNL     1     -45.290  58.657 -51.242  1.00  0.00     0.047 C 
HETATM    2  C   UNL     1     -43.804  58.310 -51.440  1.00  0.00     0.073 C 
HETATM    3  C   UNL     1     -43.430  58.175 -52.953  1.00  0.00     0.133 C 
HETATM    4  C   UNL     1     -41.915  58.075 -53.301  1.00  0.00     0.074 C 
HETATM    5  C   UNL     1     -41.055  58.725 -52.275  1.00  0.00     0.030 A 
HETATM    6  C   UNL     1     -41.525  59.259 -51.094  1.00  0.00     0.042 A 
HETATM    7  N   UNL     1     -40.450  59.802 -50.448  1.00  0.00    -0.279 N 
HETATM    8  H   UNL     1     -40.424  60.293 -49.559  1.00  0.00     0.189 HD
HETATM    9  N   UNL     1     -39.300  59.658 -51.139  1.00  0.00    -0.149 NA
HETATM   10  C   UNL     1     -39.694  59.036 -52.240  1.00  0.00     0.190 A 
HETATM   11  C   UNL     1     -42.935  59.321 -50.638  1.00  0.00     0.097 C 
ENDROOT
BRANCH   4  12
HETATM   12  C   UNL     1     -41.434  56.638 -53.494  1.00  0.00    -0.048 A 
HETATM   13  C   UNL     1     -41.343  55.818 -52.352  1.00  0.00     0.009 A 
HETATM   14  C   UNL     1     -40.904  54.494 -52.443  1.00  0.00     0.024 A 
HETATM   15  C   UNL     1     -40.539  53.971 -53.678  1.00  0.00     0.034 A 
HETATM   16 CL   UNL     1     -40.001  52.340 -53.794  1.00  0.00    -0.084 Cl
HETATM   17  C   UNL     1     -40.611  54.759 -54.821  1.00  0.00     0.024 A 
HETATM   18  C   UNL     1     -41.057  56.083 -54.730  1.00  0.00     0.009 A 
ENDBRANCH   4  12
BRANCH   3  19
HETATM   19  C   UNL     1     -43.979  59.353 -53.731  1.00  0.00     0.266 C 
HETATM   20  O   UNL     1     -43.494  60.476 -53.736  1.00  0.00    -0.265 OA
BRANCH  19  21
HETATM   21  O   UNL     1     -45.094  58.983 -54.422  1.00  0.00    -0.326 OA
HETATM   22  C   UNL     1     -44.833  58.163 -55.563  1.00  0.00     0.213 C 
ENDBRANCH  19  21
ENDBRANCH   3  19
BRANCH   2  23
HETATM   23  O   UNL     1     -43.674  57.009 -50.830  1.00  0.00    -0.389 OA
HETATM   24  H   UNL     1     -42.773  56.686 -50.999  1.00  0.00     0.210 HD
ENDBRANCH   2  23
BRANCH  10  25
HETATM   25  O   UNL     1     -38.745  58.810 -53.141  1.00  0.00    -0.343 OA
HETATM   26  H   UNL     1     -38.610  57.847 -53.118  1.00  0.00     0.219 HD
ENDBRANCH  10  25
TORSDOF 5
ENDMDL
MODEL 8
REMARK VINA RESULT:      -6.6     15.905     17.682
REMARK  5 active torsions:
REMARK  status: ('A' for Active; 'I' for Inactive)
REMARK    1  A    between atoms: C_2  and  O_3 
REMARK    2  A    between atoms: C_4  and  C_5 
REMARK    3  A    between atoms: C_5  and  O_6 
REMARK    4  A    between atoms: C_9  and  C_10 
REMARK    5  A    between atoms: C_22  and  O_23 
ROOT
HETATM    1  C   UNL     1     -36.526  39.086 -51.542  1.00  0.00     0.047 C 
HETATM    2  C   UNL     1     -36.056  39.288 -52.993  1.00  0.00     0.073 C 
HETATM    3  C   UNL     1     -36.924  40.350 -53.747  1.00  0.00     0.133 C 
HETATM    4  C   UNL     1     -36.404  40.831 -55.135  1.00  0.00     0.074 C 
HETATM    5  C   UNL     1     -34.926  40.709 -55.258  1.00  0.00     0.030 A 
HETATM    6  C   UNL     1     -34.113  40.133 -54.305  1.00  0.00     0.042 A 
HETATM    7  N   UNL     1     -32.828  40.252 -54.756  1.00  0.00    -0.279 N 
HETATM    8  H   UNL     1     -31.967  39.954 -54.307  1.00  0.00     0.189 HD
HETATM    9  N   UNL     1     -32.749  40.876 -55.950  1.00  0.00    -0.149 NA
HETATM   10  C   UNL     1     -34.016  41.163 -56.214  1.00  0.00     0.190 A 
HETATM   11  C   UNL     1     -34.527  39.570 -52.997  1.00  0.00     0.097 C 
ENDROOT
BRANCH   4  12
HETATM   12  C   UNL     1     -37.050  40.097 -56.309  1.00  0.00    -0.048 A 
HETATM   13  C   UNL     1     -37.878  40.841 -57.173  1.00  0.00     0.009 A 
HETATM   14  C   UNL     1     -38.511  40.242 -58.265  1.00  0.00     0.024 A 
HETATM   15  C   UNL     1     -38.334  38.884 -58.506  1.00  0.00     0.034 A 
HETATM   16 CL   UNL     1     -39.110  38.143 -59.851  1.00  0.00    -0.084 Cl
HETATM   17  C   UNL     1     -37.529  38.122 -57.666  1.00  0.00     0.024 A 
HETATM   18  C   UNL     1     -36.889  38.725 -56.576  1.00  0.00     0.009 A 
ENDBRANCH   4  12
BRANCH   3  19
HETATM   19  C   UNL     1     -37.090  41.588 -52.891  1.00  0.00     0.266 C 
HETATM   20  O   UNL     1     -36.277  42.498 -52.810  1.00  0.00    -0.265 OA
BRANCH  19  21
HETATM   21  O   UNL     1     -38.276  41.541 -52.221  1.00  0.00    -0.326 OA
HETATM   22  C   UNL     1     -39.384  41.111 -53.014  1.00  0.00     0.213 C 
ENDBRANCH  19  21
ENDBRANCH   3  19
BRANCH   2  23
HETATM   23  O   UNL     1     -36.288  38.004 -53.609  1.00  0.00    -0.389 OA
HETATM   24  H   UNL     1     -35.697  37.927 -54.377  1.00  0.00     0.210 HD
ENDBRANCH   2  23
BRANCH  10  25
HETATM   25  O   UNL     1     -34.225  41.841 -57.337  1.00  0.00    -0.343 OA
HETATM   26  H   UNL     1     -35.173  41.721 -57.523  1.00  0.00     0.219 HD
ENDBRANCH  10  25
TORSDOF 5
ENDMDL
MODEL 9
REMARK VINA RESULT:      -6.5      3.837      6.155
REMARK  5 active torsions:
REMARK  status: ('A' for Active; 'I' for Inactive)
REMARK    1  A    between atoms: C_2  and  O_3 
REMARK    2  A    between atoms: C_4  and  C_5 
REMARK    3  A    between atoms: C_5  and  O_6 
REMARK    4  A    between atoms: C_9  and  C_10 
REMARK    5  A    between atoms: C_22  and  O_23 
ROOT
HETATM    1  C   UNL     1     -43.923  54.340 -50.380  1.00  0.00     0.047 C 
HETATM    2  C   UNL     1     -43.671  55.607 -51.217  1.00  0.00     0.073 C 
HETATM    3  C   UNL     1     -42.543  56.501 -50.603  1.00  0.00     0.133 C 
HETATM    4  C   UNL     1     -42.018  57.678 -51.478  1.00  0.00     0.074 C 
HETATM    5  C   UNL     1     -42.192  57.421 -52.934  1.00  0.00     0.030 A 
HETATM    6  C   UNL     1     -42.841  56.323 -53.456  1.00  0.00     0.042 A 
HETATM    7  N   UNL     1     -42.751  56.418 -54.816  1.00  0.00    -0.279 N 
HETATM    8  H   UNL     1     -43.102  55.778 -55.523  1.00  0.00     0.189 HD
HETATM    9  N   UNL     1     -42.076  57.515 -55.219  1.00  0.00    -0.149 NA
HETATM   10  C   UNL     1     -41.728  58.082 -54.073  1.00  0.00     0.190 A 
HETATM   11  C   UNL     1     -43.448  55.199 -52.701  1.00  0.00     0.097 C 
ENDROOT
BRANCH   4  12
HETATM   12  C   UNL     1     -42.672  59.018 -51.143  1.00  0.00    -0.048 A 
HETATM   13  C   UNL     1     -41.860  60.020 -50.576  1.00  0.00     0.009 A 
HETATM   14  C   UNL     1     -42.384  61.270 -50.234  1.00  0.00     0.024 A 
HETATM   15  C   UNL     1     -43.732  61.535 -50.444  1.00  0.00     0.034 A 
HETATM   16 CL   UNL     1     -44.380  63.073 -50.027  1.00  0.00    -0.084 Cl
HETATM   17  C   UNL     1     -44.560  60.562 -50.995  1.00  0.00     0.024 A 
HETATM   18  C   UNL     1     -44.033  59.312 -51.344  1.00  0.00     0.009 A 
ENDBRANCH   4  12
BRANCH   3  19
HETATM   19  C   UNL     1     -41.341  55.650 -50.250  1.00  0.00     0.266 C 
HETATM   20  O   UNL     1     -40.637  55.062 -51.059  1.00  0.00    -0.265 OA
BRANCH  19  21
HETATM   21  O   UNL     1     -41.158  55.632 -48.900  1.00  0.00    -0.326 OA
HETATM   22  C   UNL     1     -40.662  54.392 -48.390  1.00  0.00     0.213 C 
ENDBRANCH  19  21
ENDBRANCH   3  19
BRANCH   2  23
HETATM   23  O   UNL     1     -44.916  56.331 -51.122  1.00  0.00    -0.389 OA
HETATM   24  H   UNL     1     -45.621  55.693 -50.922  1.00  0.00     0.210 HD
ENDBRANCH   2  23
BRANCH  10  25
HETATM   25  O   UNL     1     -40.992  59.182 -54.180  1.00  0.00    -0.343 OA
HETATM   26  H   UNL     1     -41.460  59.728 -54.835  1.00  0.00     0.219 HD
ENDBRANCH  10  25
TORSDOF 5
ENDMDL
MODEL 10
REMARK VINA RESULT:      -6.4      3.894      6.108
REMARK  5 active torsions:
REMARK  status: ('A' for Active; 'I' for Inactive)
REMARK    1  A    between atoms: C_2  and  O_3 
REMARK    2  A    between atoms: C_4  and  C_5 
REMARK    3  A    between atoms: C_5  and  O_6 
REMARK    4  A    between atoms: C_9  and  C_10 
REMARK    5  A    between atoms: C_22  and  O_23 
ROOT
HETATM    1  C   UNL     1     -43.273  53.920 -54.638  1.00  0.00     0.047 C 
HETATM    2  C   UNL     1     -43.356  55.447 -54.808  1.00  0.00     0.073 C 
HETATM    3  C   UNL     1     -42.529  56.205 -53.717  1.00  0.00     0.133 C 
HETATM    4  C   UNL     1     -42.324  57.735 -53.921  1.00  0.00     0.074 C 
HETATM    5  C   UNL     1     -42.386  58.128 -55.356  1.00  0.00     0.030 A 
HETATM    6  C   UNL     1     -42.699  57.264 -56.384  1.00  0.00     0.042 A 
HETATM    7  N   UNL     1     -42.606  57.979 -57.545  1.00  0.00    -0.279 N 
HETATM    8  H   UNL     1     -42.753  57.663 -58.499  1.00  0.00     0.189 HD
HETATM    9  N   UNL     1     -42.246  59.263 -57.339  1.00  0.00    -0.149 NA
HETATM   10  C   UNL     1     -42.093  59.318 -56.024  1.00  0.00     0.190 A 
HETATM   11  C   UNL     1     -42.995  55.815 -56.276  1.00  0.00     0.097 C 
ENDROOT
BRANCH   4  12
HETATM   12  C   UNL     1     -43.326  58.588 -53.144  1.00  0.00    -0.048 A 
HETATM   13  C   UNL     1     -42.950  59.035 -51.861  1.00  0.00     0.009 A 
HETATM   14  C   UNL     1     -43.812  59.813 -51.083  1.00  0.00     0.024 A 
HETATM   15  C   UNL     1     -45.070  60.147 -51.571  1.00  0.00     0.034 A 
HETATM   16 CL   UNL     1     -46.134  61.106 -50.617  1.00  0.00    -0.084 Cl
HETATM   17  C   UNL     1     -45.471  59.713 -52.830  1.00  0.00     0.024 A 
HETATM   18  C   UNL     1     -44.604  58.940 -53.612  1.00  0.00     0.009 A 
ENDBRANCH   4  12
BRANCH   3  19
HETATM   19  C   UNL     1     -41.149  55.593 -53.593  1.00  0.00     0.266 C 
HETATM   20  O   UNL     1     -40.318  55.552 -54.489  1.00  0.00    -0.265 OA
BRANCH  19  21
HETATM   21  O   UNL     1     -40.968  55.090 -52.339  1.00  0.00    -0.326 OA
HETATM   22  C   UNL     1     -40.552  53.724 -52.307  1.00  0.00     0.213 C 
ENDBRANCH  19  21
ENDBRANCH   3  19
BRANCH   2  23
HETATM   23  O   UNL     1     -44.753  55.739 -54.593  1.00  0.00    -0.389 OA
HETATM   24  H   UNL     1     -45.268  54.956 -54.853  1.00  0.00     0.210 HD
ENDBRANCH   2  23
BRANCH  10  25
HETATM   25  O   UNL     1     -41.682  60.487 -55.545  1.00  0.00    -0.343 OA
HETATM   26  H   UNL     1     -41.819  61.113 -56.276  1.00  0.00     0.219 HD
ENDBRANCH  10  25
TORSDOF 5
ENDMDL
