MODEL 1
REMARK VINA RESULT:      -8.6      0.000      0.000
REMARK  4 active torsions:
REMARK  status: ('A' for Active; 'I' for Inactive)
REMARK    1  A    between atoms: C_3  and  C_4 
REMARK    2  A    between atoms: C_5  and  C_6 
REMARK       I    between atoms: C_6  and  N_7 
REMARK    3  A    between atoms: N_7  and  C_8 
REMARK    4  A    between atoms: C_15  and  C_16 
REMARK       I    between atoms: C_16  and  N_17 
ROOT
HETATM    1  C   UNL     1     -42.540  56.156 -56.863  1.00  0.00     0.035 A 
HETATM    2  C   UNL     1     -43.111  55.583 -58.008  1.00  0.00     0.046 A 
HETATM    3  C   UNL     1     -44.083  56.303 -58.737  1.00  0.00     0.030 A 
HETATM    4  C   UNL     1     -44.436  57.577 -58.308  1.00  0.00     0.063 A 
HETATM    5  N   UNL     1     -45.376  58.013 -59.198  1.00  0.00    -0.277 N 
HETATM    6  H   UNL     1     -45.855  58.907 -59.197  1.00  0.00     0.189 HD
HETATM    7  N   UNL     1     -45.685  57.128 -60.160  1.00  0.00    -0.168 NA
HETATM    8  C   UNL     1     -44.895  56.064 -59.888  1.00  0.00     0.156 A 
HETATM    9  C   UNL     1     -43.879  58.183 -57.180  1.00  0.00     0.034 A 
HETATM   10  C   UNL     1     -42.932  57.442 -56.464  1.00  0.00     0.032 A 
ENDROOT
BRANCH   1  11
HETATM   11  N   UNL     1     -41.598  55.498 -56.043  1.00  0.00    -0.327 N 
HETATM   12  C   UNL     1     -41.788  54.358 -55.292  1.00  0.00     0.227 C 
HETATM   13  O   UNL     1     -42.792  53.662 -55.252  1.00  0.00    -0.273 OA
HETATM   14  H   UNL     1     -40.681  55.915 -56.003  1.00  0.00     0.169 HD
BRANCH  12  15
HETATM   15  C   UNL     1     -40.653  53.987 -54.400  1.00  0.00     0.087 A 
HETATM   16  C   UNL     1     -40.614  54.339 -52.921  1.00  0.00     0.034 A 
HETATM   17  C   UNL     1     -40.677  52.894 -53.372  1.00  0.00     0.025 A 
BRANCH  16  18
HETATM   18  C   UNL     1     -41.781  54.909 -52.133  1.00  0.00    -0.031 A 
HETATM   19  C   UNL     1     -42.650  54.063 -51.417  1.00  0.00     0.009 A 
HETATM   20  C   UNL     1     -43.743  54.559 -50.699  1.00  0.00     0.001 A 
HETATM   21  C   UNL     1     -44.016  55.921 -50.694  1.00  0.00     0.002 A 
HETATM   22  C   UNL     1     -43.201  56.786 -51.417  1.00  0.00     0.024 A 
HETATM   23  C   UNL     1     -42.105  56.286 -52.132  1.00  0.00     0.040 A 
HETATM   24 CL   UNL     1     -41.179  57.426 -53.049  1.00  0.00    -0.084 Cl
ENDBRANCH  16  18
ENDBRANCH  12  15
ENDBRANCH   1  11
BRANCH   8  25
HETATM   25  C   UNL     1     -44.943  54.852 -60.717  1.00  0.00     0.270 C 
HETATM   26  N   UNL     1     -44.983  53.687 -59.999  1.00  0.00    -0.365 N 
HETATM   27  H   UNL     1     -44.962  53.740 -58.986  1.00  0.00     0.159 HD
HETATM   28  H   UNL     1     -44.993  52.803 -60.481  1.00  0.00     0.159 HD
HETATM   29  O   UNL     1     -44.940  54.840 -61.942  1.00  0.00    -0.266 OA
ENDBRANCH   8  25
TORSDOF 4
ENDMDL
MODEL 2
REMARK VINA RESULT:      -8.1      3.032      4.878
REMARK  4 active torsions:
REMARK  status: ('A' for Active; 'I' for Inactive)
REMARK    1  A    between atoms: C_3  and  C_4 
REMARK    2  A    between atoms: C_5  and  C_6 
REMARK       I    between atoms: C_6  and  N_7 
REMARK    3  A    between atoms: N_7  and  C_8 
REMARK    4  A    between atoms: C_15  and  C_16 
REMARK       I    between atoms: C_16  and  N_17 
ROOT
HETATM    1  C   UNL     1     -42.865  56.401 -52.471  1.00  0.00     0.035 A 
HETATM    2  C   UNL     1     -42.770  56.428 -53.869  1.00  0.00     0.046 A 
HETATM    3  C   UNL     1     -43.707  57.175 -54.618  1.00  0.00     0.030 A 
HETATM    4  C   UNL     1     -44.692  57.884 -53.942  1.00  0.00     0.063 A 
HETATM    5  N   UNL     1     -45.430  58.498 -54.915  1.00  0.00    -0.277 N 
HETATM    6  H   UNL     1     -46.233  59.104 -54.786  1.00  0.00     0.189 HD
HETATM    7  N   UNL     1     -45.027  58.236 -56.168  1.00  0.00    -0.168 NA
HETATM    8  C   UNL     1     -43.963  57.417 -56.002  1.00  0.00     0.156 A 
HETATM    9  C   UNL     1     -44.810  57.890 -52.551  1.00  0.00     0.034 A 
HETATM   10  C   UNL     1     -43.881  57.127 -51.833  1.00  0.00     0.032 A 
ENDROOT
BRANCH   1  11
HETATM   11  N   UNL     1     -42.008  55.647 -51.640  1.00  0.00    -0.327 N 
HETATM   12  C   UNL     1     -42.271  54.433 -51.042  1.00  0.00     0.227 C 
HETATM   13  O   UNL     1     -43.274  53.748 -51.178  1.00  0.00    -0.273 OA
HETATM   14  H   UNL     1     -41.100  56.047 -51.466  1.00  0.00     0.169 HD
BRANCH  12  15
HETATM   15  C   UNL     1     -41.229  53.954 -50.091  1.00  0.00     0.087 A 
HETATM   16  C   UNL     1     -40.260  52.831 -50.422  1.00  0.00     0.034 A 
HETATM   17  C   UNL     1     -39.760  54.243 -50.194  1.00  0.00     0.025 A 
BRANCH  16  18
HETATM   18  C   UNL     1     -40.088  52.210 -51.799  1.00  0.00    -0.031 A 
HETATM   19  C   UNL     1     -40.312  52.967 -52.965  1.00  0.00     0.009 A 
HETATM   20  C   UNL     1     -40.181  52.416 -54.244  1.00  0.00     0.001 A 
HETATM   21  C   UNL     1     -39.840  51.078 -54.396  1.00  0.00     0.002 A 
HETATM   22  C   UNL     1     -39.644  50.288 -53.268  1.00  0.00     0.024 A 
HETATM   23  C   UNL     1     -39.774  50.844 -51.990  1.00  0.00     0.040 A 
HETATM   24 CL   UNL     1     -39.567  49.775 -50.643  1.00  0.00    -0.084 Cl
ENDBRANCH  16  18
ENDBRANCH  12  15
ENDBRANCH   1  11
BRANCH   8  25
HETATM   25  C   UNL     1     -43.230  56.880 -57.158  1.00  0.00     0.270 C 
HETATM   26  N   UNL     1     -43.580  55.601 -57.494  1.00  0.00    -0.365 N 
HETATM   27  H   UNL     1     -44.281  55.126 -56.935  1.00  0.00     0.159 HD
HETATM   28  H   UNL     1     -43.114  55.140 -58.259  1.00  0.00     0.159 HD
HETATM   29  O   UNL     1     -42.370  57.487 -57.786  1.00  0.00    -0.266 OA
ENDBRANCH   8  25
TORSDOF 4
ENDMDL
MODEL 3
REMARK VINA RESULT:      -8.0      2.075      3.242
REMARK  4 active torsions:
REMARK  status: ('A' for Active; 'I' for Inactive)
REMARK    1  A    between atoms: C_3  and  C_4 
REMARK    2  A    between atoms: C_5  and  C_6 
REMARK       I    between atoms: C_6  and  N_7 
REMARK    3  A    between atoms: N_7  and  C_8 
REMARK    4  A    between atoms: C_15  and  C_16 
REMARK       I    between atoms: C_16  and  N_17 
ROOT
HETATM    1  C   UNL     1     -42.849  56.878 -56.018  1.00  0.00     0.035 A 
HETATM    2  C   UNL     1     -43.343  56.011 -57.003  1.00  0.00     0.046 A 
HETATM    3  C   UNL     1     -43.216  56.360 -58.366  1.00  0.00     0.030 A 
HETATM    4  C   UNL     1     -42.583  57.551 -58.697  1.00  0.00     0.063 A 
HETATM    5  N   UNL     1     -42.609  57.610 -60.062  1.00  0.00    -0.277 N 
HETATM    6  H   UNL     1     -42.232  58.343 -60.652  1.00  0.00     0.189 HD
HETATM    7  N   UNL     1     -43.223  56.572 -60.652  1.00  0.00    -0.168 NA
HETATM    8  C   UNL     1     -43.606  55.791 -59.617  1.00  0.00     0.156 A 
HETATM    9  C   UNL     1     -42.068  58.432 -57.744  1.00  0.00     0.034 A 
HETATM   10  C   UNL     1     -42.223  58.073 -56.399  1.00  0.00     0.032 A 
ENDROOT
BRANCH   1  11
HETATM   11  N   UNL     1     -42.970  56.641 -54.632  1.00  0.00    -0.327 N 
HETATM   12  C   UNL     1     -41.955  56.489 -53.712  1.00  0.00     0.227 C 
HETATM   13  O   UNL     1     -40.755  56.603 -53.916  1.00  0.00    -0.273 OA
HETATM   14  H   UNL     1     -43.911  56.574 -54.277  1.00  0.00     0.169 HD
BRANCH  12  15
HETATM   15  C   UNL     1     -42.390  56.091 -52.344  1.00  0.00     0.087 A 
HETATM   16  C   UNL     1     -42.187  54.691 -51.786  1.00  0.00     0.034 A 
HETATM   17  C   UNL     1     -41.480  55.880 -51.169  1.00  0.00     0.025 A 
BRANCH  16  18
HETATM   18  C   UNL     1     -41.351  53.606 -52.444  1.00  0.00    -0.031 A 
HETATM   19  C   UNL     1     -41.571  53.241 -53.787  1.00  0.00     0.009 A 
HETATM   20  C   UNL     1     -40.830  52.233 -54.412  1.00  0.00     0.001 A 
HETATM   21  C   UNL     1     -39.857  51.539 -53.703  1.00  0.00     0.002 A 
HETATM   22  C   UNL     1     -39.634  51.847 -52.365  1.00  0.00     0.024 A 
HETATM   23  C   UNL     1     -40.376  52.859 -51.744  1.00  0.00     0.040 A 
HETATM   24 CL   UNL     1     -40.071  53.137 -50.061  1.00  0.00    -0.084 Cl
ENDBRANCH  16  18
ENDBRANCH  12  15
ENDBRANCH   1  11
BRANCH   8  25
HETATM   25  C   UNL     1     -44.339  54.537 -59.842  1.00  0.00     0.270 C 
HETATM   26  N   UNL     1     -44.950  54.461 -61.065  1.00  0.00    -0.365 N 
HETATM   27  H   UNL     1     -44.869  55.249 -61.698  1.00  0.00     0.159 HD
HETATM   28  H   UNL     1     -45.496  53.648 -61.301  1.00  0.00     0.159 HD
HETATM   29  O   UNL     1     -44.429  53.621 -59.032  1.00  0.00    -0.266 OA
ENDBRANCH   8  25
TORSDOF 4
ENDMDL
MODEL 4
REMARK VINA RESULT:      -7.6      2.903      4.395
REMARK  4 active torsions:
REMARK  status: ('A' for Active; 'I' for Inactive)
REMARK    1  A    between atoms: C_3  and  C_4 
REMARK    2  A    between atoms: C_5  and  C_6 
REMARK       I    between atoms: C_6  and  N_7 
REMARK    3  A    between atoms: N_7  and  C_8 
REMARK    4  A    between atoms: C_15  and  C_16 
REMARK       I    between atoms: C_16  and  N_17 
ROOT
HETATM    1  C   UNL     1     -42.841  56.800 -55.888  1.00  0.00     0.035 A 
HETATM    2  C   UNL     1     -42.524  58.034 -56.473  1.00  0.00     0.046 A 
HETATM    3  C   UNL     1     -42.386  58.125 -57.876  1.00  0.00     0.030 A 
HETATM    4  C   UNL     1     -42.589  56.985 -58.645  1.00  0.00     0.063 A 
HETATM    5  N   UNL     1     -42.393  57.380 -59.939  1.00  0.00    -0.277 N 
HETATM    6  H   UNL     1     -42.462  56.808 -60.773  1.00  0.00     0.189 HD
HETATM    7  N   UNL     1     -42.060  58.673 -60.082  1.00  0.00    -0.168 NA
HETATM    8  C   UNL     1     -42.049  59.147 -58.815  1.00  0.00     0.156 A 
HETATM    9  C   UNL     1     -42.917  55.744 -58.098  1.00  0.00     0.034 A 
HETATM   10  C   UNL     1     -43.029  55.675 -56.704  1.00  0.00     0.032 A 
ENDROOT
BRANCH   1  11
HETATM   11  N   UNL     1     -42.952  56.598 -54.495  1.00  0.00    -0.327 N 
HETATM   12  C   UNL     1     -41.939  56.607 -53.561  1.00  0.00     0.227 C 
HETATM   13  O   UNL     1     -40.760  56.863 -53.756  1.00  0.00    -0.273 OA
HETATM   14  H   UNL     1     -43.883  56.425 -54.149  1.00  0.00     0.169 HD
BRANCH  12  15
HETATM   15  C   UNL     1     -42.341  56.205 -52.183  1.00  0.00     0.087 A 
HETATM   16  C   UNL     1     -42.136  54.800 -51.638  1.00  0.00     0.034 A 
HETATM   17  C   UNL     1     -41.402  55.980 -51.034  1.00  0.00     0.025 A 
BRANCH  16  18
HETATM   18  C   UNL     1     -41.327  53.712 -52.325  1.00  0.00    -0.031 A 
HETATM   19  C   UNL     1     -41.599  53.342 -53.656  1.00  0.00     0.009 A 
HETATM   20  C   UNL     1     -40.883  52.330 -54.305  1.00  0.00     0.001 A 
HETATM   21  C   UNL     1     -39.883  51.639 -53.633  1.00  0.00     0.002 A 
HETATM   22  C   UNL     1     -39.608  51.952 -52.306  1.00  0.00     0.024 A 
HETATM   23  C   UNL     1     -40.325  52.967 -51.660  1.00  0.00     0.040 A 
HETATM   24 CL   UNL     1     -39.954  53.251 -49.992  1.00  0.00    -0.084 Cl
ENDBRANCH  16  18
ENDBRANCH  12  15
ENDBRANCH   1  11
BRANCH   8  25
HETATM   25  C   UNL     1     -41.709  60.549 -58.532  1.00  0.00     0.270 C 
HETATM   26  N   UNL     1     -42.482  61.457 -59.204  1.00  0.00    -0.365 N 
HETATM   27  H   UNL     1     -43.196  61.113 -59.836  1.00  0.00     0.159 HD
HETATM   28  H   UNL     1     -42.306  62.442 -59.091  1.00  0.00     0.159 HD
HETATM   29  O   UNL     1     -40.815  60.914 -57.777  1.00  0.00    -0.266 OA
ENDBRANCH   8  25
TORSDOF 4
ENDMDL
MODEL 5
REMARK VINA RESULT:      -7.6      4.757      6.754
REMARK  4 active torsions:
REMARK  status: ('A' for Active; 'I' for Inactive)
REMARK    1  A    between atoms: C_3  and  C_4 
REMARK    2  A    between atoms: C_5  and  C_6 
REMARK       I    between atoms: C_6  and  N_7 
REMARK    3  A    between atoms: N_7  and  C_8 
REMARK    4  A    between atoms: C_15  and  C_16 
REMARK       I    between atoms: C_16  and  N_17 
ROOT
HETATM    1  C   UNL     1     -42.972  56.701 -51.865  1.00  0.00     0.035 A 
HETATM    2  C   UNL     1     -43.578  57.855 -51.350  1.00  0.00     0.046 A 
HETATM    3  C   UNL     1     -44.411  58.636 -52.182  1.00  0.00     0.030 A 
HETATM    4  C   UNL     1     -44.624  58.225 -53.492  1.00  0.00     0.063 A 
HETATM    5  N   UNL     1     -45.458  59.161 -54.036  1.00  0.00    -0.277 N 
HETATM    6  H   UNL     1     -45.828  59.180 -54.980  1.00  0.00     0.189 HD
HETATM    7  N   UNL     1     -45.793  60.159 -53.203  1.00  0.00    -0.168 NA
HETATM    8  C   UNL     1     -45.152  59.850 -52.052  1.00  0.00     0.156 A 
HETATM    9  C   UNL     1     -44.046  57.076 -54.035  1.00  0.00     0.034 A 
HETATM   10  C   UNL     1     -43.210  56.330 -53.196  1.00  0.00     0.032 A 
ENDROOT
BRANCH   1  11
HETATM   11  N   UNL     1     -42.087  55.884 -51.128  1.00  0.00    -0.327 N 
HETATM   12  C   UNL     1     -42.321  54.614 -50.645  1.00  0.00     0.227 C 
HETATM   13  O   UNL     1     -43.316  53.929 -50.828  1.00  0.00    -0.273 OA
HETATM   14  H   UNL     1     -41.181  56.280 -50.933  1.00  0.00     0.169 HD
BRANCH  12  15
HETATM   15  C   UNL     1     -41.252  54.062 -49.765  1.00  0.00     0.087 A 
HETATM   16  C   UNL     1     -40.283  52.982 -50.218  1.00  0.00     0.034 A 
HETATM   17  C   UNL     1     -39.788  54.373 -49.875  1.00  0.00     0.025 A 
BRANCH  16  18
HETATM   18  C   UNL     1     -40.139  52.489 -51.648  1.00  0.00    -0.031 A 
HETATM   19  C   UNL     1     -40.390  53.346 -52.736  1.00  0.00     0.009 A 
HETATM   20  C   UNL     1     -40.285  52.913 -54.062  1.00  0.00     0.001 A 
HETATM   21  C   UNL     1     -39.945  51.595 -54.341  1.00  0.00     0.002 A 
HETATM   22  C   UNL     1     -39.722  50.709 -53.293  1.00  0.00     0.024 A 
HETATM   23  C   UNL     1     -39.826  51.147 -51.967  1.00  0.00     0.040 A 
HETATM   24 CL   UNL     1     -39.587  49.961 -50.727  1.00  0.00    -0.084 Cl
ENDBRANCH  16  18
ENDBRANCH  12  15
ENDBRANCH   1  11
BRANCH   8  25
HETATM   25  C   UNL     1     -45.251  60.719 -50.871  1.00  0.00     0.270 C 
HETATM   26  N   UNL     1     -44.201  61.586 -50.728  1.00  0.00    -0.365 N 
HETATM   27  H   UNL     1     -43.452  61.558 -51.411  1.00  0.00     0.159 HD
HETATM   28  H   UNL     1     -44.170  62.205 -49.934  1.00  0.00     0.159 HD
HETATM   29  O   UNL     1     -46.168  60.696 -50.058  1.00  0.00    -0.266 OA
ENDBRANCH   8  25
TORSDOF 4
ENDMDL
MODEL 6
REMARK VINA RESULT:      -7.6      4.581      7.209
REMARK  4 active torsions:
REMARK  status: ('A' for Active; 'I' for Inactive)
REMARK    1  A    between atoms: C_3  and  C_4 
REMARK    2  A    between atoms: C_5  and  C_6 
REMARK       I    between atoms: C_6  and  N_7 
REMARK    3  A    between atoms: N_7  and  C_8 
REMARK    4  A    between atoms: C_15  and  C_16 
REMARK       I    between atoms: C_16  and  N_17 
ROOT
HETATM    1  C   UNL     1     -40.967  54.333 -52.562  1.00  0.00     0.035 A 
HETATM    2  C   UNL     1     -40.764  53.114 -53.226  1.00  0.00     0.046 A 
HETATM    3  C   UNL     1     -40.279  52.000 -52.505  1.00  0.00     0.030 A 
HETATM    4  C   UNL     1     -40.033  52.138 -51.144  1.00  0.00     0.063 A 
HETATM    5  N   UNL     1     -39.585  50.915 -50.730  1.00  0.00    -0.277 N 
HETATM    6  H   UNL     1     -39.312  50.646 -49.791  1.00  0.00     0.189 HD
HETATM    7  N   UNL     1     -39.496  49.996 -51.705  1.00  0.00    -0.168 NA
HETATM    8  C   UNL     1     -39.919  50.652 -52.809  1.00  0.00     0.156 A 
HETATM    9  C   UNL     1     -40.236  53.331 -50.449  1.00  0.00     0.034 A 
HETATM   10  C   UNL     1     -40.698  54.425 -51.189  1.00  0.00     0.032 A 
ENDROOT
BRANCH   1  11
HETATM   11  N   UNL     1     -41.402  55.512 -53.204  1.00  0.00    -0.327 N 
HETATM   12  C   UNL     1     -42.647  56.098 -53.132  1.00  0.00     0.227 C 
HETATM   13  O   UNL     1     -43.589  55.742 -52.440  1.00  0.00    -0.273 OA
HETATM   14  H   UNL     1     -40.719  55.976 -53.783  1.00  0.00     0.169 HD
BRANCH  12  15
HETATM   15  C   UNL     1     -42.859  57.255 -54.047  1.00  0.00     0.087 A 
HETATM   16  C   UNL     1     -42.441  58.675 -53.697  1.00  0.00     0.034 A 
HETATM   17  C   UNL     1     -41.789  57.937 -54.849  1.00  0.00     0.025 A 
BRANCH  16  18
HETATM   18  C   UNL     1     -41.586  59.058 -52.500  1.00  0.00    -0.031 A 
HETATM   19  C   UNL     1     -40.190  58.873 -52.521  1.00  0.00     0.009 A 
HETATM   20  C   UNL     1     -39.382  59.197 -51.427  1.00  0.00     0.001 A 
HETATM   21  C   UNL     1     -39.951  59.699 -50.263  1.00  0.00     0.002 A 
HETATM   22  C   UNL     1     -41.330  59.865 -50.191  1.00  0.00     0.024 A 
HETATM   23  C   UNL     1     -42.135  59.541 -51.290  1.00  0.00     0.040 A 
HETATM   24 CL   UNL     1     -43.846  59.725 -51.091  1.00  0.00    -0.084 Cl
ENDBRANCH  16  18
ENDBRANCH  12  15
ENDBRANCH   1  11
BRANCH   8  25
HETATM   25  C   UNL     1     -39.959  49.986 -54.119  1.00  0.00     0.270 C 
HETATM   26  N   UNL     1     -41.207  49.928 -54.678  1.00  0.00    -0.365 N 
HETATM   27  H   UNL     1     -41.988  50.319 -54.162  1.00  0.00     0.159 HD
HETATM   28  H   UNL     1     -41.336  49.469 -55.565  1.00  0.00     0.159 HD
HETATM   29  O   UNL     1     -38.987  49.505 -54.691  1.00  0.00    -0.266 OA
ENDBRANCH   8  25
TORSDOF 4
ENDMDL
MODEL 7
REMARK VINA RESULT:      -7.6      2.601      3.892
REMARK  4 active torsions:
REMARK  status: ('A' for Active; 'I' for Inactive)
REMARK    1  A    between atoms: C_3  and  C_4 
REMARK    2  A    between atoms: C_5  and  C_6 
REMARK       I    between atoms: C_6  and  N_7 
REMARK    3  A    between atoms: N_7  and  C_8 
REMARK    4  A    between atoms: C_15  and  C_16 
REMARK       I    between atoms: C_16  and  N_17 
ROOT
HETATM    1  C   UNL     1     -42.771  58.120 -54.595  1.00  0.00     0.035 A 
HETATM    2  C   UNL     1     -42.718  57.557 -55.878  1.00  0.00     0.046 A 
HETATM    3  C   UNL     1     -42.376  58.369 -56.982  1.00  0.00     0.030 A 
HETATM    4  C   UNL     1     -42.081  59.708 -56.763  1.00  0.00     0.063 A 
HETATM    5  N   UNL     1     -41.790  60.223 -57.995  1.00  0.00    -0.277 N 
HETATM    6  H   UNL     1     -41.525  61.177 -58.216  1.00  0.00     0.189 HD
HETATM    7  N   UNL     1     -41.890  59.342 -59.004  1.00  0.00    -0.168 NA
HETATM    8  C   UNL     1     -42.253  58.191 -58.394  1.00  0.00     0.156 A 
HETATM    9  C   UNL     1     -42.111  60.300 -55.499  1.00  0.00     0.034 A 
HETATM   10  C   UNL     1     -42.471  59.479 -54.424  1.00  0.00     0.032 A 
ENDROOT
BRANCH   1  11
HETATM   11  N   UNL     1     -43.148  57.404 -53.439  1.00  0.00    -0.327 N 
HETATM   12  C   UNL     1     -42.330  56.954 -52.424  1.00  0.00     0.227 C 
HETATM   13  O   UNL     1     -41.131  57.155 -52.302  1.00  0.00    -0.273 OA
HETATM   14  H   UNL     1     -44.130  57.198 -53.350  1.00  0.00     0.169 HD
BRANCH  12  15
HETATM   15  C   UNL     1     -42.994  56.087 -51.410  1.00  0.00     0.087 A 
HETATM   16  C   UNL     1     -42.887  54.570 -51.420  1.00  0.00     0.034 A 
HETATM   17  C   UNL     1     -42.299  55.380 -50.283  1.00  0.00     0.025 A 
BRANCH  16  18
HETATM   18  C   UNL     1     -41.947  53.773 -52.309  1.00  0.00    -0.031 A 
HETATM   19  C   UNL     1     -40.753  53.232 -51.795  1.00  0.00     0.009 A 
HETATM   20  C   UNL     1     -39.860  52.511 -52.595  1.00  0.00     0.001 A 
HETATM   21  C   UNL     1     -40.125  52.326 -53.946  1.00  0.00     0.002 A 
HETATM   22  C   UNL     1     -41.278  52.874 -54.499  1.00  0.00     0.024 A 
HETATM   23  C   UNL     1     -42.170  53.593 -53.694  1.00  0.00     0.040 A 
HETATM   24 CL   UNL     1     -43.550  54.288 -54.478  1.00  0.00    -0.084 Cl
ENDBRANCH  16  18
ENDBRANCH  12  15
ENDBRANCH   1  11
BRANCH   8  25
HETATM   25  C   UNL     1     -42.486  56.963 -59.168  1.00  0.00     0.270 C 
HETATM   26  N   UNL     1     -41.485  56.663 -60.052  1.00  0.00    -0.365 N 
HETATM   27  H   UNL     1     -40.693  57.293 -60.119  1.00  0.00     0.159 HD
HETATM   28  H   UNL     1     -41.567  55.852 -60.643  1.00  0.00     0.159 HD
HETATM   29  O   UNL     1     -43.476  56.248 -59.067  1.00  0.00    -0.266 OA
ENDBRANCH   8  25
TORSDOF 4
ENDMDL
MODEL 8
REMARK VINA RESULT:      -7.5      3.437      8.012
REMARK  4 active torsions:
REMARK  status: ('A' for Active; 'I' for Inactive)
REMARK    1  A    between atoms: C_3  and  C_4 
REMARK    2  A    between atoms: C_5  and  C_6 
REMARK       I    between atoms: C_6  and  N_7 
REMARK    3  A    between atoms: N_7  and  C_8 
REMARK    4  A    between atoms: C_15  and  C_16 
REMARK       I    between atoms: C_16  and  N_17 
ROOT
HETATM    1  C   UNL     1     -42.156  55.093 -54.013  1.00  0.00     0.035 A 
HETATM    2  C   UNL     1     -41.823  54.966 -52.657  1.00  0.00     0.046 A 
HETATM    3  C   UNL     1     -41.049  53.865 -52.229  1.00  0.00     0.030 A 
HETATM    4  C   UNL     1     -40.619  52.941 -53.173  1.00  0.00     0.063 A 
HETATM    5  N   UNL     1     -39.904  52.011 -52.472  1.00  0.00    -0.277 N 
HETATM    6  H   UNL     1     -39.437  51.189 -52.840  1.00  0.00     0.189 HD
HETATM    7  N   UNL     1     -39.846  52.234 -51.149  1.00  0.00    -0.168 NA
HETATM    8  C   UNL     1     -40.551  53.377 -50.982  1.00  0.00     0.156 A 
HETATM    9  C   UNL     1     -40.921  53.041 -54.532  1.00  0.00     0.034 A 
HETATM   10  C   UNL     1     -41.705  54.131 -54.928  1.00  0.00     0.032 A 
ENDROOT
BRANCH   1  11
HETATM   11  N   UNL     1     -42.963  56.129 -54.529  1.00  0.00    -0.327 N 
HETATM   12  C   UNL     1     -42.623  57.455 -54.698  1.00  0.00     0.227 C 
HETATM   13  O   UNL     1     -41.532  57.966 -54.497  1.00  0.00    -0.273 OA
HETATM   14  H   UNL     1     -43.896  55.865 -54.803  1.00  0.00     0.169 HD
BRANCH  12  15
HETATM   15  C   UNL     1     -43.739  58.348 -55.119  1.00  0.00     0.087 A 
HETATM   16  C   UNL     1     -44.047  58.657 -56.576  1.00  0.00     0.034 A 
HETATM   17  C   UNL     1     -45.037  57.894 -55.720  1.00  0.00     0.025 A 
BRANCH  16  18
HETATM   18  C   UNL     1     -43.416  57.953 -57.765  1.00  0.00    -0.031 A 
HETATM   19  C   UNL     1     -43.869  56.685 -58.177  1.00  0.00     0.009 A 
HETATM   20  C   UNL     1     -43.293  56.005 -59.255  1.00  0.00     0.001 A 
HETATM   21  C   UNL     1     -42.226  56.566 -59.945  1.00  0.00     0.002 A 
HETATM   22  C   UNL     1     -41.728  57.802 -59.547  1.00  0.00     0.024 A 
HETATM   23  C   UNL     1     -42.309  58.480 -58.469  1.00  0.00     0.040 A 
HETATM   24 CL   UNL     1     -41.587  59.986 -58.008  1.00  0.00    -0.084 Cl
ENDBRANCH  16  18
ENDBRANCH  12  15
ENDBRANCH   1  11
BRANCH   8  25
HETATM   25  C   UNL     1     -40.742  53.963 -49.648  1.00  0.00     0.270 C 
HETATM   26  N   UNL     1     -39.577  54.192 -48.968  1.00  0.00    -0.365 N 
HETATM   27  H   UNL     1     -38.700  53.937 -49.408  1.00  0.00     0.159 HD
HETATM   28  H   UNL     1     -39.610  54.570 -48.035  1.00  0.00     0.159 HD
HETATM   29  O   UNL     1     -41.830  54.229 -49.148  1.00  0.00    -0.266 OA
ENDBRANCH   8  25
TORSDOF 4
ENDMDL
MODEL 9
REMARK VINA RESULT:      -7.4      3.321      7.835
REMARK  4 active torsions:
REMARK  status: ('A' for Active; 'I' for Inactive)
REMARK    1  A    between atoms: C_3  and  C_4 
REMARK    2  A    between atoms: C_5  and  C_6 
REMARK       I    between atoms: C_6  and  N_7 
REMARK    3  A    between atoms: N_7  and  C_8 
REMARK    4  A    between atoms: C_15  and  C_16 
REMARK       I    between atoms: C_16  and  N_17 
ROOT
HETATM    1  C   UNL     1     -42.393  56.331 -55.918  1.00  0.00     0.035 A 
HETATM    2  C   UNL     1     -42.290  56.883 -54.633  1.00  0.00     0.046 A 
HETATM    3  C   UNL     1     -42.732  56.137 -53.517  1.00  0.00     0.030 A 
HETATM    4  C   UNL     1     -43.242  54.862 -53.723  1.00  0.00     0.063 A 
HETATM    5  N   UNL     1     -43.576  54.400 -52.481  1.00  0.00    -0.277 N 
HETATM    6  H   UNL     1     -43.976  53.497 -52.248  1.00  0.00     0.189 HD
HETATM    7  N   UNL     1     -43.349  55.269 -51.484  1.00  0.00    -0.168 NA
HETATM    8  C   UNL     1     -42.828  56.350 -52.108  1.00  0.00     0.156 A 
HETATM    9  C   UNL     1     -43.349  54.276 -54.985  1.00  0.00     0.034 A 
HETATM   10  C   UNL     1     -42.921  55.042 -56.077  1.00  0.00     0.032 A 
ENDROOT
BRANCH   1  11
HETATM   11  N   UNL     1     -42.024  57.014 -57.097  1.00  0.00    -0.327 N 
HETATM   12  C   UNL     1     -42.532  58.204 -57.573  1.00  0.00     0.227 C 
HETATM   13  O   UNL     1     -43.350  58.927 -57.024  1.00  0.00    -0.273 OA
HETATM   14  H   UNL     1     -41.306  56.577 -57.652  1.00  0.00     0.169 HD
BRANCH  12  15
HETATM   15  C   UNL     1     -42.057  58.600 -58.929  1.00  0.00     0.087 A 
HETATM   16  C   UNL     1     -42.854  58.332 -60.196  1.00  0.00     0.034 A 
HETATM   17  C   UNL     1     -42.589  59.750 -59.734  1.00  0.00     0.025 A 
BRANCH  16  18
HETATM   18  C   UNL     1     -44.289  57.832 -60.230  1.00  0.00    -0.031 A 
HETATM   19  C   UNL     1     -45.364  58.734 -60.348  1.00  0.00     0.009 A 
HETATM   20  C   UNL     1     -46.695  58.303 -60.361  1.00  0.00     0.001 A 
HETATM   21  C   UNL     1     -46.994  56.953 -60.233  1.00  0.00     0.002 A 
HETATM   22  C   UNL     1     -45.961  56.035 -60.080  1.00  0.00     0.024 A 
HETATM   23  C   UNL     1     -44.630  56.469 -60.070  1.00  0.00     0.040 A 
HETATM   24 CL   UNL     1     -43.412  55.264 -59.818  1.00  0.00    -0.084 Cl
ENDBRANCH  16  18
ENDBRANCH  12  15
ENDBRANCH   1  11
BRANCH   8  25
HETATM   25  C   UNL     1     -42.450  57.554 -51.354  1.00  0.00     0.270 C 
HETATM   26  N   UNL     1     -41.642  57.306 -50.277  1.00  0.00    -0.365 N 
HETATM   27  H   UNL     1     -41.384  56.347 -50.075  1.00  0.00     0.159 HD
HETATM   28  H   UNL     1     -41.351  58.068 -49.686  1.00  0.00     0.159 HD
HETATM   29  O   UNL     1     -42.811  58.693 -51.625  1.00  0.00    -0.266 OA
ENDBRANCH   8  25
TORSDOF 4
ENDMDL
MODEL 10
REMARK VINA RESULT:      -7.3      2.550      3.994
REMARK  4 active torsions:
REMARK  status: ('A' for Active; 'I' for Inactive)
REMARK    1  A    between atoms: C_3  and  C_4 
REMARK    2  A    between atoms: C_5  and  C_6 
REMARK       I    between atoms: C_6  and  N_7 
REMARK    3  A    between atoms: N_7  and  C_8 
REMARK    4  A    between atoms: C_15  and  C_16 
REMARK       I    between atoms: C_16  and  N_17 
ROOT
HETATM    1  C   UNL     1     -44.431  57.639 -53.773  1.00  0.00     0.035 A 
HETATM    2  C   UNL     1     -44.061  57.251 -55.068  1.00  0.00     0.046 A 
HETATM    3  C   UNL     1     -44.281  58.134 -56.150  1.00  0.00     0.030 A 
HETATM    4  C   UNL     1     -44.844  59.378 -55.896  1.00  0.00     0.063 A 
HETATM    5  N   UNL     1     -44.928  59.994 -57.112  1.00  0.00    -0.277 N 
HETATM    6  H   UNL     1     -45.288  60.922 -57.307  1.00  0.00     0.189 HD
HETATM    7  N   UNL     1     -44.488  59.255 -58.142  1.00  0.00    -0.168 NA
HETATM    8  C   UNL     1     -44.085  58.100 -57.564  1.00  0.00     0.156 A 
HETATM    9  C   UNL     1     -45.215  59.802 -54.618  1.00  0.00     0.034 A 
HETATM   10  C   UNL     1     -45.004  58.902 -53.566  1.00  0.00     0.032 A 
ENDROOT
BRANCH   1  11
HETATM   11  N   UNL     1     -44.297  56.810 -52.638  1.00  0.00    -0.327 N 
HETATM   12  C   UNL     1     -43.191  56.668 -51.827  1.00  0.00     0.227 C 
HETATM   13  O   UNL     1     -42.141  57.289 -51.899  1.00  0.00    -0.273 OA
HETATM   14  H   UNL     1     -45.106  56.259 -52.397  1.00  0.00     0.169 HD
BRANCH  12  15
HETATM   15  C   UNL     1     -43.293  55.599 -50.794  1.00  0.00     0.087 A 
HETATM   16  C   UNL     1     -42.780  54.184 -51.014  1.00  0.00     0.034 A 
HETATM   17  C   UNL     1     -42.155  55.081 -49.965  1.00  0.00     0.025 A 
BRANCH  16  18
HETATM   18  C   UNL     1     -41.931  53.743 -52.195  1.00  0.00    -0.031 A 
HETATM   19  C   UNL     1     -42.340  54.005 -53.517  1.00  0.00     0.009 A 
HETATM   20  C   UNL     1     -41.588  53.593 -54.622  1.00  0.00     0.001 A 
HETATM   21  C   UNL     1     -40.409  52.881 -54.439  1.00  0.00     0.002 A 
HETATM   22  C   UNL     1     -39.989  52.573 -53.149  1.00  0.00     0.024 A 
HETATM   23  C   UNL     1     -40.743  52.990 -52.045  1.00  0.00     0.040 A 
HETATM   24 CL   UNL     1     -40.175  52.512 -50.480  1.00  0.00    -0.084 Cl
ENDBRANCH  16  18
ENDBRANCH  12  15
ENDBRANCH   1  11
BRANCH   8  25
HETATM   25  C   UNL     1     -43.541  56.997 -58.369  1.00  0.00     0.270 C 
HETATM   26  N   UNL     1     -42.175  56.980 -58.441  1.00  0.00    -0.365 N 
HETATM   27  H   UNL     1     -41.655  57.709 -57.965  1.00  0.00     0.159 HD
HETATM   28  H   UNL     1     -41.712  56.274 -58.990  1.00  0.00     0.159 HD
HETATM   29  O   UNL     1     -44.216  56.153 -58.948  1.00  0.00    -0.266 OA
ENDBRANCH   8  25
TORSDOF 4
ENDMDL
