MODEL 1
REMARK VINA RESULT:      -7.5      0.000      0.000
REMARK  7 active torsions:
REMARK  status: ('A' for Active; 'I' for Inactive)
REMARK    1  A    between atoms: C_6  and  C_7 
REMARK    2  A    between atoms: C_7  and  S_8 
REMARK    3  A    between atoms: S_8  and  C_9 
REMARK    4  A    between atoms: N_10  and  C_11 
REMARK    5  A    between atoms: C_14  and  C_15 
REMARK    6  A    between atoms: C_15  and  O_16 
REMARK    7  A    between atoms: C_20  and  N_21 
ROOT
HETATM    1  C   UNL     1     -39.410  49.415 -52.582  1.00  0.00     0.001 A 
HETATM    2  C   UNL     1     -39.619  50.578 -51.844  1.00  0.00     0.017 A 
HETATM    3  C   UNL     1     -39.961  51.791 -52.490  1.00  0.00     0.033 A 
HETATM    4  C   UNL     1     -40.085  51.829 -53.882  1.00  0.00     0.072 A 
HETATM    5  N   UNL     1     -40.388  52.950 -54.548  1.00  0.00    -0.232 NA
HETATM    6  C   UNL     1     -40.559  54.077 -53.832  1.00  0.00     0.138 A 
HETATM    7  N   UNL     1     -40.461  54.149 -52.491  1.00  0.00    -0.220 NA
HETATM    8  C   UNL     1     -40.186  53.010 -51.843  1.00  0.00     0.115 A 
HETATM    9  C   UNL     1     -39.876  50.655 -54.597  1.00  0.00     0.032 A 
HETATM   10  C   UNL     1     -39.543  49.454 -53.963  1.00  0.00     0.002 A 
ENDROOT
BRANCH   6  11
HETATM   11  C   UNL     1     -40.830  55.353 -54.592  1.00  0.00     0.163 C 
BRANCH  11  12
HETATM   12  S   UNL     1     -42.123  56.373 -53.810  1.00  0.00    -0.082 SA
BRANCH  12  13
HETATM   13  C   UNL     1     -41.139  57.589 -53.072  1.00  0.00     0.192 A 
HETATM   14  N   UNL     1     -41.114  57.942 -51.742  1.00  0.00    -0.305 N 
HETATM   15  C   UNL     1     -40.199  58.974 -51.661  1.00  0.00     0.154 A 
HETATM   16  N   UNL     1     -39.687  59.196 -52.858  1.00  0.00    -0.132 NA
HETATM   17  N   UNL     1     -40.280  58.331 -53.737  1.00  0.00    -0.123 NA
BRANCH  14  18
HETATM   18  C   UNL     1     -41.815  57.405 -50.584  1.00  0.00     0.094 A 
HETATM   19  C   UNL     1     -42.540  56.074 -50.581  1.00  0.00     0.028 A 
HETATM   20  C   UNL     1     -41.310  56.241 -49.753  1.00  0.00     0.028 A 
ENDBRANCH  14  18
BRANCH  15  21
HETATM   21  C   UNL     1     -39.825  59.704 -50.424  1.00  0.00     0.244 C 
BRANCH  21  22
HETATM   22  O   UNL     1     -38.459  60.100 -50.523  1.00  0.00    -0.393 OA
HETATM   23  H   UNL     1     -38.362  60.913 -49.988  1.00  0.00     0.209 HD
ENDBRANCH  21  22
ENDBRANCH  15  21
ENDBRANCH  12  13
ENDBRANCH  11  12
ENDBRANCH   6  11
BRANCH   8  24
HETATM   24  N   UNL     1     -40.119  53.130 -50.449  1.00  0.00    -0.286 NA
HETATM   25  H   UNL     1     -39.133  53.187 -50.209  1.00  0.00     0.125 HD
HETATM   26  H   UNL     1     -40.625  53.949 -50.132  1.00  0.00     0.125 HD
ENDBRANCH   8  24
TORSDOF 7
ENDMDL
MODEL 2
REMARK VINA RESULT:      -7.3      2.611      3.270
REMARK  7 active torsions:
REMARK  status: ('A' for Active; 'I' for Inactive)
REMARK    1  A    between atoms: C_6  and  C_7 
REMARK    2  A    between atoms: C_7  and  S_8 
REMARK    3  A    between atoms: S_8  and  C_9 
REMARK    4  A    between atoms: N_10  and  C_11 
REMARK    5  A    between atoms: C_14  and  C_15 
REMARK    6  A    between atoms: C_15  and  O_16 
REMARK    7  A    between atoms: C_20  and  N_21 
ROOT
HETATM    1  C   UNL     1     -39.469  49.832 -52.642  1.00  0.00     0.001 A 
HETATM    2  C   UNL     1     -39.670  50.825 -51.685  1.00  0.00     0.017 A 
HETATM    3  C   UNL     1     -40.150  52.104 -52.062  1.00  0.00     0.033 A 
HETATM    4  C   UNL     1     -40.420  52.380 -53.405  1.00  0.00     0.072 A 
HETATM    5  N   UNL     1     -40.857  53.573 -53.822  1.00  0.00    -0.232 NA
HETATM    6  C   UNL     1     -41.021  54.538 -52.897  1.00  0.00     0.138 A 
HETATM    7  N   UNL     1     -40.789  54.377 -51.580  1.00  0.00    -0.220 NA
HETATM    8  C   UNL     1     -40.381  53.166 -51.182  1.00  0.00     0.115 A 
HETATM    9  C   UNL     1     -40.216  51.372 -54.341  1.00  0.00     0.032 A 
HETATM   10  C   UNL     1     -39.746  50.106 -53.974  1.00  0.00     0.002 A 
ENDROOT
BRANCH   6  11
HETATM   11  C   UNL     1     -41.446  55.904 -53.380  1.00  0.00     0.163 C 
BRANCH  11  12
HETATM   12  S   UNL     1     -41.180  57.203 -52.129  1.00  0.00    -0.082 SA
BRANCH  12  13
HETATM   13  C   UNL     1     -42.812  57.474 -51.627  1.00  0.00     0.192 A 
HETATM   14  N   UNL     1     -43.393  58.680 -51.303  1.00  0.00    -0.305 N 
HETATM   15  C   UNL     1     -44.688  58.369 -50.939  1.00  0.00     0.154 A 
HETATM   16  N   UNL     1     -44.877  57.069 -51.071  1.00  0.00    -0.132 NA
HETATM   17  N   UNL     1     -43.702  56.514 -51.497  1.00  0.00    -0.123 NA
BRANCH  14  18
HETATM   18  C   UNL     1     -42.876  60.041 -51.333  1.00  0.00     0.094 A 
HETATM   19  C   UNL     1     -43.041  61.030 -50.196  1.00  0.00     0.028 A 
HETATM   20  C   UNL     1     -41.682  60.511 -50.525  1.00  0.00     0.028 A 
ENDBRANCH  14  18
BRANCH  15  21
HETATM   21  C   UNL     1     -45.718  59.341 -50.494  1.00  0.00     0.244 C 
BRANCH  21  22
HETATM   22  O   UNL     1     -45.923  59.179 -49.092  1.00  0.00    -0.393 OA
HETATM   23  H   UNL     1     -45.146  59.571 -48.646  1.00  0.00     0.209 HD
ENDBRANCH  21  22
ENDBRANCH  15  21
ENDBRANCH  12  13
ENDBRANCH  11  12
ENDBRANCH   6  11
BRANCH   8  24
HETATM   24  N   UNL     1     -40.177  53.040 -49.802  1.00  0.00    -0.286 NA
HETATM   25  H   UNL     1     -40.200  53.981 -49.417  1.00  0.00     0.125 HD
HETATM   26  H   UNL     1     -40.889  52.452 -49.384  1.00  0.00     0.125 HD
ENDBRANCH   8  24
TORSDOF 7
ENDMDL
MODEL 3
REMARK VINA RESULT:      -7.3      1.829      2.963
REMARK  7 active torsions:
REMARK  status: ('A' for Active; 'I' for Inactive)
REMARK    1  A    between atoms: C_6  and  C_7 
REMARK    2  A    between atoms: C_7  and  S_8 
REMARK    3  A    between atoms: S_8  and  C_9 
REMARK    4  A    between atoms: N_10  and  C_11 
REMARK    5  A    between atoms: C_14  and  C_15 
REMARK    6  A    between atoms: C_15  and  O_16 
REMARK    7  A    between atoms: C_20  and  N_21 
ROOT
HETATM    1  C   UNL     1     -39.653  49.750 -54.057  1.00  0.00     0.001 A 
HETATM    2  C   UNL     1     -39.986  51.056 -54.410  1.00  0.00     0.017 A 
HETATM    3  C   UNL     1     -40.119  52.060 -53.419  1.00  0.00     0.033 A 
HETATM    4  C   UNL     1     -39.923  51.741 -52.072  1.00  0.00     0.072 A 
HETATM    5  N   UNL     1     -40.053  52.642 -51.091  1.00  0.00    -0.232 NA
HETATM    6  C   UNL     1     -40.404  53.896 -51.436  1.00  0.00     0.138 A 
HETATM    7  N   UNL     1     -40.617  54.306 -52.700  1.00  0.00    -0.220 NA
HETATM    8  C   UNL     1     -40.453  53.395 -53.667  1.00  0.00     0.115 A 
HETATM    9  C   UNL     1     -39.588  50.432 -51.745  1.00  0.00     0.032 A 
HETATM   10  C   UNL     1     -39.451  49.438 -52.719  1.00  0.00     0.002 A 
ENDROOT
BRANCH   6  11
HETATM   11  C   UNL     1     -40.620  54.891 -50.322  1.00  0.00     0.163 C 
BRANCH  11  12
HETATM   12  S   UNL     1     -42.290  55.623 -50.351  1.00  0.00    -0.082 SA
BRANCH  12  13
HETATM   13  C   UNL     1     -41.920  57.188 -50.988  1.00  0.00     0.192 A 
HETATM   14  N   UNL     1     -42.431  57.762 -52.130  1.00  0.00    -0.305 N 
HETATM   15  C   UNL     1     -41.807  58.991 -52.225  1.00  0.00     0.154 A 
HETATM   16  N   UNL     1     -41.005  59.152 -51.189  1.00  0.00    -0.132 NA
HETATM   17  N   UNL     1     -41.076  58.023 -50.421  1.00  0.00    -0.123 NA
BRANCH  14  18
HETATM   18  C   UNL     1     -43.429  57.298 -53.083  1.00  0.00     0.094 A 
HETATM   19  C   UNL     1     -43.097  56.789 -54.471  1.00  0.00     0.028 A 
HETATM   20  C   UNL     1     -43.635  55.842 -53.452  1.00  0.00     0.028 A 
ENDBRANCH  14  18
BRANCH  15  21
HETATM   21  C   UNL     1     -42.021  59.988 -53.303  1.00  0.00     0.244 C 
BRANCH  21  22
HETATM   22  O   UNL     1     -41.047  59.773 -54.323  1.00  0.00    -0.393 OA
HETATM   23  H   UNL     1     -41.486  59.254 -55.027  1.00  0.00     0.209 HD
ENDBRANCH  21  22
ENDBRANCH  15  21
ENDBRANCH  12  13
ENDBRANCH  11  12
ENDBRANCH   6  11
BRANCH   8  24
HETATM   24  N   UNL     1     -40.661  53.874 -54.967  1.00  0.00    -0.286 NA
HETATM   25  H   UNL     1     -39.831  53.632 -55.503  1.00  0.00     0.125 HD
HETATM   26  H   UNL     1     -41.495  53.467 -55.373  1.00  0.00     0.125 HD
ENDBRANCH   8  24
TORSDOF 7
ENDMDL
MODEL 4
REMARK VINA RESULT:      -7.1      2.585      3.621
REMARK  7 active torsions:
REMARK  status: ('A' for Active; 'I' for Inactive)
REMARK    1  A    between atoms: C_6  and  C_7 
REMARK    2  A    between atoms: C_7  and  S_8 
REMARK    3  A    between atoms: S_8  and  C_9 
REMARK    4  A    between atoms: N_10  and  C_11 
REMARK    5  A    between atoms: C_14  and  C_15 
REMARK    6  A    between atoms: C_15  and  O_16 
REMARK    7  A    between atoms: C_20  and  N_21 
ROOT
HETATM    1  C   UNL     1     -39.653  51.309 -53.593  1.00  0.00     0.001 A 
HETATM    2  C   UNL     1     -40.173  52.420 -54.255  1.00  0.00     0.017 A 
HETATM    3  C   UNL     1     -40.588  53.564 -53.528  1.00  0.00     0.033 A 
HETATM    4  C   UNL     1     -40.483  53.580 -52.134  1.00  0.00     0.072 A 
HETATM    5  N   UNL     1     -40.876  54.624 -51.395  1.00  0.00    -0.232 NA
HETATM    6  C   UNL     1     -41.404  55.683 -52.037  1.00  0.00     0.138 A 
HETATM    7  N   UNL     1     -41.550  55.768 -53.373  1.00  0.00    -0.220 NA
HETATM    8  C   UNL     1     -41.124  54.724 -54.095  1.00  0.00     0.115 A 
HETATM    9  C   UNL     1     -39.958  52.462 -51.497  1.00  0.00     0.032 A 
HETATM   10  C   UNL     1     -39.543  51.332 -52.209  1.00  0.00     0.002 A 
ENDROOT
BRANCH   6  11
HETATM   11  C   UNL     1     -41.912  56.828 -51.195  1.00  0.00     0.163 C 
BRANCH  11  12
HETATM   12  S   UNL     1     -40.715  58.200 -51.085  1.00  0.00    -0.082 SA
BRANCH  12  13
HETATM   13  C   UNL     1     -41.207  59.137 -52.453  1.00  0.00     0.192 A 
HETATM   14  N   UNL     1     -42.270  60.010 -52.524  1.00  0.00    -0.305 N 
HETATM   15  C   UNL     1     -42.264  60.479 -53.823  1.00  0.00     0.154 A 
HETATM   16  N   UNL     1     -41.245  59.948 -54.472  1.00  0.00    -0.132 NA
HETATM   17  N   UNL     1     -40.590  59.108 -53.614  1.00  0.00    -0.123 NA
BRANCH  14  18
HETATM   18  C   UNL     1     -43.229  60.449 -51.521  1.00  0.00     0.094 A 
HETATM   19  C   UNL     1     -42.878  60.691 -50.066  1.00  0.00     0.028 A 
HETATM   20  C   UNL     1     -43.258  61.846 -50.930  1.00  0.00     0.028 A 
ENDBRANCH  14  18
BRANCH  15  21
HETATM   21  C   UNL     1     -43.231  61.447 -54.396  1.00  0.00     0.244 C 
BRANCH  21  22
HETATM   22  O   UNL     1     -42.646  62.747 -54.369  1.00  0.00    -0.393 OA
HETATM   23  H   UNL     1     -42.184  62.831 -53.511  1.00  0.00     0.209 HD
ENDBRANCH  21  22
ENDBRANCH  15  21
ENDBRANCH  12  13
ENDBRANCH  11  12
ENDBRANCH   6  11
BRANCH   8  24
HETATM   24  N   UNL     1     -41.273  54.868 -55.480  1.00  0.00    -0.286 NA
HETATM   25  H   UNL     1     -41.841  55.699 -55.627  1.00  0.00     0.125 HD
HETATM   26  H   UNL     1     -40.371  54.953 -55.934  1.00  0.00     0.125 HD
ENDBRANCH   8  24
TORSDOF 7
ENDMDL
MODEL 5
REMARK VINA RESULT:      -7.1      2.676      3.776
REMARK  7 active torsions:
REMARK  status: ('A' for Active; 'I' for Inactive)
REMARK    1  A    between atoms: C_6  and  C_7 
REMARK    2  A    between atoms: C_7  and  S_8 
REMARK    3  A    between atoms: S_8  and  C_9 
REMARK    4  A    between atoms: N_10  and  C_11 
REMARK    5  A    between atoms: C_14  and  C_15 
REMARK    6  A    between atoms: C_15  and  O_16 
REMARK    7  A    between atoms: C_20  and  N_21 
ROOT
HETATM    1  C   UNL     1     -39.449  49.526 -52.260  1.00  0.00     0.001 A 
HETATM    2  C   UNL     1     -39.622  50.715 -51.555  1.00  0.00     0.017 A 
HETATM    3  C   UNL     1     -39.972  51.910 -52.231  1.00  0.00     0.033 A 
HETATM    4  C   UNL     1     -40.140  51.902 -53.619  1.00  0.00     0.072 A 
HETATM    5  N   UNL     1     -40.453  53.002 -54.313  1.00  0.00    -0.232 NA
HETATM    6  C   UNL     1     -40.590  54.155 -53.630  1.00  0.00     0.138 A 
HETATM    7  N   UNL     1     -40.448  54.271 -52.296  1.00  0.00    -0.220 NA
HETATM    8  C   UNL     1     -40.165  53.152 -51.619  1.00  0.00     0.115 A 
HETATM    9  C   UNL     1     -39.966  50.702 -54.299  1.00  0.00     0.032 A 
HETATM   10  C   UNL     1     -39.625  49.519 -53.637  1.00  0.00     0.002 A 
ENDROOT
BRANCH   6  11
HETATM   11  C   UNL     1     -40.872  55.408 -54.425  1.00  0.00     0.163 C 
BRANCH  11  12
HETATM   12  S   UNL     1     -42.386  56.260 -53.874  1.00  0.00    -0.082 SA
BRANCH  12  13
HETATM   13  C   UNL     1     -42.145  57.806 -54.611  1.00  0.00     0.192 A 
HETATM   14  N   UNL     1     -42.526  58.190 -55.878  1.00  0.00    -0.305 N 
HETATM   15  C   UNL     1     -42.084  59.493 -56.006  1.00  0.00     0.154 A 
HETATM   16  N   UNL     1     -41.512  59.870 -54.878  1.00  0.00    -0.132 NA
HETATM   17  N   UNL     1     -41.549  58.813 -54.011  1.00  0.00    -0.123 NA
BRANCH  14  18
HETATM   18  C   UNL     1     -43.259  57.489 -56.922  1.00  0.00     0.094 A 
HETATM   19  C   UNL     1     -42.727  57.270 -58.325  1.00  0.00     0.028 A 
HETATM   20  C   UNL     1     -42.907  56.100 -57.418  1.00  0.00     0.028 A 
ENDBRANCH  14  18
BRANCH  15  21
HETATM   21  C   UNL     1     -42.248  60.347 -57.208  1.00  0.00     0.244 C 
BRANCH  21  22
HETATM   22  O   UNL     1     -41.115  61.205 -57.317  1.00  0.00    -0.393 OA
HETATM   23  H   UNL     1     -40.971  61.362 -58.271  1.00  0.00     0.209 HD
ENDBRANCH  21  22
ENDBRANCH  15  21
ENDBRANCH  12  13
ENDBRANCH  11  12
ENDBRANCH   6  11
BRANCH   8  24
HETATM   24  N   UNL     1     -40.052  53.317 -50.233  1.00  0.00    -0.286 NA
HETATM   25  H   UNL     1     -40.695  52.655 -49.807  1.00  0.00     0.125 HD
HETATM   26  H   UNL     1     -39.099  53.157 -49.926  1.00  0.00     0.125 HD
ENDBRANCH   8  24
TORSDOF 7
ENDMDL
MODEL 6
REMARK VINA RESULT:      -7.0      1.658      2.550
REMARK  7 active torsions:
REMARK  status: ('A' for Active; 'I' for Inactive)
REMARK    1  A    between atoms: C_6  and  C_7 
REMARK    2  A    between atoms: C_7  and  S_8 
REMARK    3  A    between atoms: S_8  and  C_9 
REMARK    4  A    between atoms: N_10  and  C_11 
REMARK    5  A    between atoms: C_14  and  C_15 
REMARK    6  A    between atoms: C_15  and  O_16 
REMARK    7  A    between atoms: C_20  and  N_21 
ROOT
HETATM    1  C   UNL     1     -39.864  49.703 -50.467  1.00  0.00     0.001 A 
HETATM    2  C   UNL     1     -39.746  49.625 -51.853  1.00  0.00     0.017 A 
HETATM    3  C   UNL     1     -39.894  50.783 -52.656  1.00  0.00     0.033 A 
HETATM    4  C   UNL     1     -40.167  52.016 -52.058  1.00  0.00     0.072 A 
HETATM    5  N   UNL     1     -40.334  53.139 -52.766  1.00  0.00    -0.232 NA
HETATM    6  C   UNL     1     -40.249  53.052 -54.107  1.00  0.00     0.138 A 
HETATM    7  N   UNL     1     -39.992  51.915 -54.781  1.00  0.00    -0.220 NA
HETATM    8  C   UNL     1     -39.798  50.810 -54.051  1.00  0.00     0.115 A 
HETATM    9  C   UNL     1     -40.276  52.069 -50.673  1.00  0.00     0.032 A 
HETATM   10  C   UNL     1     -40.126  50.930 -49.875  1.00  0.00     0.002 A 
ENDROOT
BRANCH   6  11
HETATM   11  C   UNL     1     -40.509  54.306 -54.906  1.00  0.00     0.163 C 
BRANCH  11  12
HETATM   12  S   UNL     1     -42.116  55.070 -54.505  1.00  0.00    -0.082 SA
BRANCH  12  13
HETATM   13  C   UNL     1     -41.585  56.371 -53.496  1.00  0.00     0.192 A 
HETATM   14  N   UNL     1     -42.001  56.650 -52.213  1.00  0.00    -0.305 N 
HETATM   15  C   UNL     1     -41.316  57.795 -51.855  1.00  0.00     0.154 A 
HETATM   16  N   UNL     1     -40.520  58.153 -52.845  1.00  0.00    -0.132 NA
HETATM   17  N   UNL     1     -40.694  57.263 -53.870  1.00  0.00    -0.123 NA
BRANCH  14  18
HETATM   18  C   UNL     1     -42.917  55.955 -51.321  1.00  0.00     0.094 A 
HETATM   19  C   UNL     1     -43.266  54.486 -51.447  1.00  0.00     0.028 A 
HETATM   20  C   UNL     1     -42.479  54.954 -50.269  1.00  0.00     0.028 A 
ENDBRANCH  14  18
BRANCH  15  21
HETATM   21  C   UNL     1     -41.433  58.501 -50.555  1.00  0.00     0.244 C 
BRANCH  21  22
HETATM   22  O   UNL     1     -42.600  59.319 -50.583  1.00  0.00    -0.393 OA
HETATM   23  H   UNL     1     -42.403  60.071 -51.177  1.00  0.00     0.209 HD
ENDBRANCH  21  22
ENDBRANCH  15  21
ENDBRANCH  12  13
ENDBRANCH  11  12
ENDBRANCH   6  11
BRANCH   8  24
HETATM   24  N   UNL     1     -39.509  49.659 -54.794  1.00  0.00    -0.286 NA
HETATM   25  H   UNL     1     -38.526  49.451 -54.638  1.00  0.00     0.125 HD
HETATM   26  H   UNL     1     -40.100  48.886 -54.508  1.00  0.00     0.125 HD
ENDBRANCH   8  24
TORSDOF 7
ENDMDL
MODEL 7
REMARK VINA RESULT:      -6.9      3.987      5.410
REMARK  7 active torsions:
REMARK  status: ('A' for Active; 'I' for Inactive)
REMARK    1  A    between atoms: C_6  and  C_7 
REMARK    2  A    between atoms: C_7  and  S_8 
REMARK    3  A    between atoms: S_8  and  C_9 
REMARK    4  A    between atoms: N_10  and  C_11 
REMARK    5  A    between atoms: C_14  and  C_15 
REMARK    6  A    between atoms: C_15  and  O_16 
REMARK    7  A    between atoms: C_20  and  N_21 
ROOT
HETATM    1  C   UNL     1     -39.803  51.676 -52.505  1.00  0.00     0.001 A 
HETATM    2  C   UNL     1     -40.268  52.720 -51.709  1.00  0.00     0.017 A 
HETATM    3  C   UNL     1     -40.689  53.941 -52.293  1.00  0.00     0.033 A 
HETATM    4  C   UNL     1     -40.631  54.107 -53.680  1.00  0.00     0.072 A 
HETATM    5  N   UNL     1     -40.997  55.242 -54.286  1.00  0.00    -0.232 NA
HETATM    6  C   UNL     1     -41.418  56.259 -53.509  1.00  0.00     0.138 A 
HETATM    7  N   UNL     1     -41.509  56.203 -52.167  1.00  0.00    -0.220 NA
HETATM    8  C   UNL     1     -41.166  55.048 -51.584  1.00  0.00     0.115 A 
HETATM    9  C   UNL     1     -40.167  53.049 -54.454  1.00  0.00     0.032 A 
HETATM   10  C   UNL     1     -39.755  51.841 -53.883  1.00  0.00     0.002 A 
ENDROOT
BRANCH   6  11
HETATM   11  C   UNL     1     -41.761  57.562 -54.189  1.00  0.00     0.163 C 
BRANCH  11  12
HETATM   12  S   UNL     1     -43.471  57.591 -54.823  1.00  0.00    -0.082 SA
BRANCH  12  13
HETATM   13  C   UNL     1     -43.202  57.030 -56.437  1.00  0.00     0.192 A 
HETATM   14  N   UNL     1     -42.998  57.800 -57.561  1.00  0.00    -0.305 N 
HETATM   15  C   UNL     1     -42.867  56.895 -58.596  1.00  0.00     0.154 A 
HETATM   16  N   UNL     1     -42.950  55.669 -58.116  1.00  0.00    -0.132 NA
HETATM   17  N   UNL     1     -43.163  55.758 -56.767  1.00  0.00    -0.123 NA
BRANCH  14  18
HETATM   18  C   UNL     1     -42.891  59.240 -57.740  1.00  0.00     0.094 A 
HETATM   19  C   UNL     1     -42.363  60.186 -56.679  1.00  0.00     0.028 A 
HETATM   20  C   UNL     1     -41.577  59.975 -57.929  1.00  0.00     0.028 A 
ENDBRANCH  14  18
BRANCH  15  21
HETATM   21  C   UNL     1     -42.641  57.241 -60.022  1.00  0.00     0.244 C 
BRANCH  21  22
HETATM   22  O   UNL     1     -41.401  56.672 -60.438  1.00  0.00    -0.393 OA
HETATM   23  H   UNL     1     -41.284  55.846 -59.927  1.00  0.00     0.209 HD
ENDBRANCH  21  22
ENDBRANCH  15  21
ENDBRANCH  12  13
ENDBRANCH  11  12
ENDBRANCH   6  11
BRANCH   8  24
HETATM   24  N   UNL     1     -41.302  55.030 -50.191  1.00  0.00    -0.286 NA
HETATM   25  H   UNL     1     -41.885  54.227 -49.965  1.00  0.00     0.125 HD
HETATM   26  H   UNL     1     -40.396  54.966 -49.740  1.00  0.00     0.125 HD
ENDBRANCH   8  24
TORSDOF 7
ENDMDL
MODEL 8
REMARK VINA RESULT:      -6.9      2.128      3.298
REMARK  7 active torsions:
REMARK  status: ('A' for Active; 'I' for Inactive)
REMARK    1  A    between atoms: C_6  and  C_7 
REMARK    2  A    between atoms: C_7  and  S_8 
REMARK    3  A    between atoms: S_8  and  C_9 
REMARK    4  A    between atoms: N_10  and  C_11 
REMARK    5  A    between atoms: C_14  and  C_15 
REMARK    6  A    between atoms: C_15  and  O_16 
REMARK    7  A    between atoms: C_20  and  N_21 
ROOT
HETATM    1  C   UNL     1     -40.069  52.441 -54.366  1.00  0.00     0.001 A 
HETATM    2  C   UNL     1     -40.660  53.372 -55.217  1.00  0.00     0.017 A 
HETATM    3  C   UNL     1     -41.592  54.315 -54.718  1.00  0.00     0.033 A 
HETATM    4  C   UNL     1     -41.931  54.311 -53.362  1.00  0.00     0.072 A 
HETATM    5  N   UNL     1     -42.818  55.164 -52.838  1.00  0.00    -0.232 NA
HETATM    6  C   UNL     1     -43.408  56.043 -53.670  1.00  0.00     0.138 A 
HETATM    7  N   UNL     1     -43.154  56.130 -54.990  1.00  0.00    -0.220 NA
HETATM    8  C   UNL     1     -42.242  55.286 -55.487  1.00  0.00     0.115 A 
HETATM    9  C   UNL     1     -41.325  53.374 -52.532  1.00  0.00     0.032 A 
HETATM   10  C   UNL     1     -40.401  52.444 -53.018  1.00  0.00     0.002 A 
ENDROOT
BRANCH   6  11
HETATM   11  C   UNL     1     -44.461  56.957 -53.090  1.00  0.00     0.163 C 
BRANCH  11  12
HETATM   12  S   UNL     1     -44.058  57.501 -51.396  1.00  0.00    -0.082 SA
BRANCH  12  13
HETATM   13  C   UNL     1     -42.574  58.337 -51.695  1.00  0.00     0.192 A 
HETATM   14  N   UNL     1     -41.369  58.146 -51.055  1.00  0.00    -0.305 N 
HETATM   15  C   UNL     1     -40.511  59.067 -51.624  1.00  0.00     0.154 A 
HETATM   16  N   UNL     1     -41.152  59.736 -52.564  1.00  0.00    -0.132 NA
HETATM   17  N   UNL     1     -42.440  59.279 -52.603  1.00  0.00    -0.123 NA
BRANCH  14  18
HETATM   18  C   UNL     1     -40.960  57.201 -50.027  1.00  0.00     0.094 A 
HETATM   19  C   UNL     1     -41.666  55.887 -49.758  1.00  0.00     0.028 A 
HETATM   20  C   UNL     1     -40.283  55.875 -50.316  1.00  0.00     0.028 A 
ENDBRANCH  14  18
BRANCH  15  21
HETATM   21  C   UNL     1     -39.086  59.260 -51.258  1.00  0.00     0.244 C 
BRANCH  21  22
HETATM   22  O   UNL     1     -38.313  59.331 -52.455  1.00  0.00    -0.393 OA
HETATM   23  H   UNL     1     -38.279  60.274 -52.712  1.00  0.00     0.209 HD
ENDBRANCH  21  22
ENDBRANCH  15  21
ENDBRANCH  12  13
ENDBRANCH  11  12
ENDBRANCH   6  11
BRANCH   8  24
HETATM   24  N   UNL     1     -41.993  55.431 -56.857  1.00  0.00    -0.286 NA
HETATM   25  H   UNL     1     -42.380  54.608 -57.312  1.00  0.00     0.125 HD
HETATM   26  H   UNL     1     -42.414  56.282 -57.213  1.00  0.00     0.125 HD
ENDBRANCH   8  24
TORSDOF 7
ENDMDL
MODEL 9
REMARK VINA RESULT:      -6.6      2.823      3.722
REMARK  7 active torsions:
REMARK  status: ('A' for Active; 'I' for Inactive)
REMARK    1  A    between atoms: C_6  and  C_7 
REMARK    2  A    between atoms: C_7  and  S_8 
REMARK    3  A    between atoms: S_8  and  C_9 
REMARK    4  A    between atoms: N_10  and  C_11 
REMARK    5  A    between atoms: C_14  and  C_15 
REMARK    6  A    between atoms: C_15  and  O_16 
REMARK    7  A    between atoms: C_20  and  N_21 
ROOT
HETATM    1  C   UNL     1     -39.582  50.802 -53.611  1.00  0.00     0.001 A 
HETATM    2  C   UNL     1     -39.980  51.946 -54.299  1.00  0.00     0.017 A 
HETATM    3  C   UNL     1     -40.318  53.130 -53.597  1.00  0.00     0.033 A 
HETATM    4  C   UNL     1     -40.258  53.154 -52.201  1.00  0.00     0.072 A 
HETATM    5  N   UNL     1     -40.582  54.236 -51.484  1.00  0.00    -0.232 NA
HETATM    6  C   UNL     1     -40.995  55.329 -52.154  1.00  0.00     0.138 A 
HETATM    7  N   UNL     1     -41.089  55.411 -53.494  1.00  0.00    -0.220 NA
HETATM    8  C   UNL     1     -40.732  54.325 -54.192  1.00  0.00     0.115 A 
HETATM    9  C   UNL     1     -39.853  52.001 -51.537  1.00  0.00     0.032 A 
HETATM   10  C   UNL     1     -39.515  50.832 -52.224  1.00  0.00     0.002 A 
ENDROOT
BRANCH   6  11
HETATM   11  C   UNL     1     -41.428  56.524 -51.339  1.00  0.00     0.163 C 
BRANCH  11  12
HETATM   12  S   UNL     1     -41.021  58.107 -52.148  1.00  0.00    -0.082 SA
BRANCH  12  13
HETATM   13  C   UNL     1     -42.108  59.160 -51.310  1.00  0.00     0.192 A 
HETATM   14  N   UNL     1     -43.481  59.185 -51.409  1.00  0.00    -0.305 N 
HETATM   15  C   UNL     1     -43.882  60.213 -50.577  1.00  0.00     0.154 A 
HETATM   16  N   UNL     1     -42.821  60.740 -49.995  1.00  0.00    -0.132 NA
HETATM   17  N   UNL     1     -41.715  60.082 -50.458  1.00  0.00    -0.123 NA
BRANCH  14  18
HETATM   18  C   UNL     1     -44.413  58.352 -52.154  1.00  0.00     0.094 A 
HETATM   19  C   UNL     1     -45.206  58.837 -53.352  1.00  0.00     0.028 A 
HETATM   20  C   UNL     1     -44.140  57.811 -53.545  1.00  0.00     0.028 A 
ENDBRANCH  14  18
BRANCH  15  21
HETATM   21  C   UNL     1     -45.284  60.643 -50.349  1.00  0.00     0.244 C 
BRANCH  21  22
HETATM   22  O   UNL     1     -45.755  60.044 -49.144  1.00  0.00    -0.393 OA
HETATM   23  H   UNL     1     -46.533  59.502 -49.384  1.00  0.00     0.209 HD
ENDBRANCH  21  22
ENDBRANCH  15  21
ENDBRANCH  12  13
ENDBRANCH  11  12
ENDBRANCH   6  11
BRANCH   8  24
HETATM   24  N   UNL     1     -40.822  54.466 -55.583  1.00  0.00    -0.286 NA
HETATM   25  H   UNL     1     -40.797  53.527 -55.973  1.00  0.00     0.125 HD
HETATM   26  H   UNL     1     -41.674  54.950 -55.842  1.00  0.00     0.125 HD
ENDBRANCH   8  24
TORSDOF 7
ENDMDL
MODEL 10
REMARK VINA RESULT:      -6.6     14.437     15.953
REMARK  7 active torsions:
REMARK  status: ('A' for Active; 'I' for Inactive)
REMARK    1  A    between atoms: C_6  and  C_7 
REMARK    2  A    between atoms: C_7  and  S_8 
REMARK    3  A    between atoms: S_8  and  C_9 
REMARK    4  A    between atoms: N_10  and  C_11 
REMARK    5  A    between atoms: C_14  and  C_15 
REMARK    6  A    between atoms: C_15  and  O_16 
REMARK    7  A    between atoms: C_20  and  N_21 
ROOT
HETATM    1  C   UNL     1     -36.932  41.433 -58.824  1.00  0.00     0.001 A 
HETATM    2  C   UNL     1     -36.194  41.938 -57.757  1.00  0.00     0.017 A 
HETATM    3  C   UNL     1     -36.608  41.711 -56.421  1.00  0.00     0.033 A 
HETATM    4  C   UNL     1     -37.771  40.980 -56.166  1.00  0.00     0.072 A 
HETATM    5  N   UNL     1     -38.221  40.749 -54.927  1.00  0.00    -0.232 NA
HETATM    6  C   UNL     1     -37.519  41.265 -53.901  1.00  0.00     0.138 A 
HETATM    7  N   UNL     1     -36.389  41.984 -54.036  1.00  0.00    -0.220 NA
HETATM    8  C   UNL     1     -35.941  42.177 -55.283  1.00  0.00     0.115 A 
HETATM    9  C   UNL     1     -38.489  40.482 -57.248  1.00  0.00     0.032 A 
HETATM   10  C   UNL     1     -38.083  40.699 -58.568  1.00  0.00     0.002 A 
ENDROOT
BRANCH   6  11
HETATM   11  C   UNL     1     -38.068  41.064 -52.509  1.00  0.00     0.163 C 
BRANCH  11  12
HETATM   12  S   UNL     1     -37.342  39.616 -51.672  1.00  0.00    -0.082 SA
BRANCH  12  13
HETATM   13  C   UNL     1     -35.689  40.119 -51.584  1.00  0.00     0.192 A 
HETATM   14  N   UNL     1     -34.625  39.605 -52.291  1.00  0.00    -0.305 N 
HETATM   15  C   UNL     1     -33.524  40.311 -51.848  1.00  0.00     0.154 A 
HETATM   16  N   UNL     1     -33.912  41.211 -50.964  1.00  0.00    -0.132 NA
HETATM   17  N   UNL     1     -35.264  41.085 -50.799  1.00  0.00    -0.123 NA
BRANCH  14  18
HETATM   18  C   UNL     1     -34.554  38.577 -53.320  1.00  0.00     0.094 A 
HETATM   19  C   UNL     1     -35.722  38.186 -54.203  1.00  0.00     0.028 A 
HETATM   20  C   UNL     1     -34.542  38.868 -54.808  1.00  0.00     0.028 A 
ENDBRANCH  14  18
BRANCH  15  21
HETATM   21  C   UNL     1     -32.128  40.114 -52.311  1.00  0.00     0.244 C 
BRANCH  21  22
HETATM   22  O   UNL     1     -31.885  40.983 -53.415  1.00  0.00    -0.393 OA
HETATM   23  H   UNL     1     -31.043  41.445 -53.230  1.00  0.00     0.209 HD
ENDBRANCH  21  22
ENDBRANCH  15  21
ENDBRANCH  12  13
ENDBRANCH  11  12
ENDBRANCH   6  11
BRANCH   8  24
HETATM   24  N   UNL     1     -34.750  42.908 -55.373  1.00  0.00    -0.286 NA
HETATM   25  H   UNL     1     -34.977  43.779 -55.846  1.00  0.00     0.125 HD
HETATM   26  H   UNL     1     -34.361  43.079 -54.453  1.00  0.00     0.125 HD
ENDBRANCH   8  24
TORSDOF 7
ENDMDL
