MODEL 1
REMARK VINA RESULT:      -9.0      0.000      0.000
REMARK  6 active torsions:
REMARK  status: ('A' for Active; 'I' for Inactive)
REMARK    1  A    between atoms: C_6  and  C_7 
REMARK    2  A    between atoms: C_7  and  N_8 
REMARK    3  A    between atoms: C_12  and  C_13 
REMARK    4  A    between atoms: C_13  and  C_14 
REMARK    5  A    between atoms: N_23  and  C_24 
REMARK    6  A    between atoms: C_24  and  C_25 
ROOT
HETATM    1  C   UNL     1     -43.746  59.213 -52.398  1.00  0.00     0.149 C 
HETATM    2  N   UNL     1     -44.839  58.423 -51.847  1.00  0.00    -0.220 NA
HETATM    3  C   UNL     1     -45.587  59.162 -50.954  1.00  0.00     0.304 C 
HETATM    4  O   UNL     1     -46.447  58.662 -50.251  1.00  0.00    -0.253 OA
HETATM    5  N   UNL     1     -45.210  60.462 -51.019  1.00  0.00    -0.270 N 
HETATM    6  C   UNL     1     -44.161  60.609 -51.879  1.00  0.00     0.257 C 
HETATM    7  O   UNL     1     -43.633  61.665 -52.199  1.00  0.00    -0.270 OA
HETATM    8  H   UNL     1     -44.609  57.503 -51.473  1.00  0.00     0.134 HD
ENDROOT
BRANCH   1   9
HETATM    9  C   UNL     1     -43.701  59.169 -53.960  1.00  0.00     0.028 C 
HETATM   10  C   UNL     1     -44.854  58.372 -54.608  1.00  0.00     0.035 C 
HETATM   11  C   UNL     1     -44.691  56.854 -54.566  1.00  0.00     0.235 C 
HETATM   12  N   UNL     1     -43.345  56.447 -55.113  1.00  0.00    -0.067 N 
HETATM   13  H   UNL     1     -43.344  56.699 -56.108  1.00  0.00     0.280 HD
HETATM   14  C   UNL     1     -42.189  57.156 -54.453  1.00  0.00     0.235 C 
HETATM   15  C   UNL     1     -42.376  58.661 -54.561  1.00  0.00     0.035 C 
BRANCH  12  16
HETATM   16  C   UNL     1     -43.132  54.941 -55.066  1.00  0.00     0.273 C 
BRANCH  16  17
HETATM   17  C   UNL     1     -42.410  54.460 -53.833  1.00  0.00    -0.027 A 
HETATM   18  C   UNL     1     -41.054  54.072 -53.844  1.00  0.00    -0.054 A 
HETATM   19  C   UNL     1     -40.471  53.585 -52.660  1.00  0.00     0.014 A 
HETATM   20  C   UNL     1     -40.191  54.168 -55.075  1.00  0.00     0.049 C 
HETATM   21  C   UNL     1     -41.200  53.501 -51.468  1.00  0.00    -0.061 A 
HETATM   22  C   UNL     1     -40.567  52.961 -50.219  1.00  0.00     0.048 C 
HETATM   23  C   UNL     1     -42.539  53.889 -51.464  1.00  0.00     0.007 A 
HETATM   24  C   UNL     1     -43.136  54.368 -52.629  1.00  0.00     0.010 A 
ENDBRANCH  16  17
ENDBRANCH  12  16
ENDBRANCH   1   9
BRANCH   1  25
HETATM   25  C   UNL     1     -42.431  58.760 -51.763  1.00  0.00     0.067 A 
HETATM   26  N   UNL     1     -41.408  59.663 -51.829  1.00  0.00    -0.263 NA
HETATM   27  C   UNL     1     -40.217  59.296 -51.302  1.00  0.00     0.117 A 
HETATM   28  C   UNL     1     -39.999  58.086 -50.669  1.00  0.00     0.019 A 
HETATM   29  C   UNL     1     -41.060  57.195 -50.570  1.00  0.00     0.003 A 
HETATM   30  C   UNL     1     -42.294  57.532 -51.119  1.00  0.00     0.030 A 
ENDBRANCH   1  25
BRANCH   5  31
HETATM   31  C   UNL     1     -45.776  61.524 -50.208  1.00  0.00     0.168 C 
BRANCH  31  32
HETATM   32  C   UNL     1     -45.282  61.525 -48.760  1.00  0.00     0.140 C 
HETATM   33  O   UNL     1     -46.313  60.976 -47.914  1.00  0.00    -0.384 OA
HETATM   34  C   UNL     1     -46.549  61.881 -46.829  1.00  0.00     0.168 C 
HETATM   35  C   UNL     1     -45.326  62.765 -46.751  1.00  0.00     0.029 C 
HETATM   36  C   UNL     1     -44.962  62.909 -48.208  1.00  0.00     0.036 C 
ENDBRANCH  31  32
ENDBRANCH   5  31
TORSDOF 6
ENDMDL
MODEL 2
REMARK VINA RESULT:      -8.8      1.810      3.436
REMARK  6 active torsions:
REMARK  status: ('A' for Active; 'I' for Inactive)
REMARK    1  A    between atoms: C_6  and  C_7 
REMARK    2  A    between atoms: C_7  and  N_8 
REMARK    3  A    between atoms: C_12  and  C_13 
REMARK    4  A    between atoms: C_13  and  C_14 
REMARK    5  A    between atoms: N_23  and  C_24 
REMARK    6  A    between atoms: C_24  and  C_25 
ROOT
HETATM    1  C   UNL     1     -44.308  59.175 -52.341  1.00  0.00     0.149 C 
HETATM    2  N   UNL     1     -43.061  59.408 -51.625  1.00  0.00    -0.220 NA
HETATM    3  C   UNL     1     -43.221  60.366 -50.645  1.00  0.00     0.304 C 
HETATM    4  O   UNL     1     -42.279  60.838 -50.033  1.00  0.00    -0.253 OA
HETATM    5  N   UNL     1     -44.539  60.648 -50.502  1.00  0.00    -0.270 N 
HETATM    6  C   UNL     1     -45.273  59.961 -51.424  1.00  0.00     0.257 C 
HETATM    7  O   UNL     1     -46.493  59.955 -51.515  1.00  0.00    -0.270 OA
HETATM    8  H   UNL     1     -42.225  59.577 -52.183  1.00  0.00     0.134 HD
ENDROOT
BRANCH   1   9
HETATM    9  C   UNL     1     -44.686  57.660 -52.412  1.00  0.00     0.028 C 
HETATM   10  C   UNL     1     -44.306  56.849 -51.154  1.00  0.00     0.035 C 
HETATM   11  C   UNL     1     -42.830  56.471 -51.053  1.00  0.00     0.235 C 
HETATM   12  N   UNL     1     -42.365  55.798 -52.321  1.00  0.00    -0.067 N 
HETATM   13  H   UNL     1     -42.875  54.910 -52.388  1.00  0.00     0.280 HD
HETATM   14  C   UNL     1     -42.658  56.596 -53.567  1.00  0.00     0.235 C 
HETATM   15  C   UNL     1     -44.144  56.908 -53.644  1.00  0.00     0.035 C 
BRANCH  12  16
HETATM   16  C   UNL     1     -40.890  55.426 -52.273  1.00  0.00     0.273 C 
BRANCH  16  17
HETATM   17  C   UNL     1     -40.596  54.017 -52.723  1.00  0.00    -0.027 A 
HETATM   18  C   UNL     1     -40.204  52.997 -51.831  1.00  0.00    -0.054 A 
HETATM   19  C   UNL     1     -39.897  51.722 -52.341  1.00  0.00     0.014 A 
HETATM   20  C   UNL     1     -40.108  53.210 -50.343  1.00  0.00     0.049 C 
HETATM   21  C   UNL     1     -39.998  51.438 -53.708  1.00  0.00    -0.061 A 
HETATM   22  C   UNL     1     -39.649  50.078 -54.237  1.00  0.00     0.048 C 
HETATM   23  C   UNL     1     -40.390  52.451 -54.583  1.00  0.00     0.007 A 
HETATM   24  C   UNL     1     -40.691  53.723 -54.097  1.00  0.00     0.010 A 
ENDBRANCH  16  17
ENDBRANCH  12  16
ENDBRANCH   1   9
BRANCH   1  25
HETATM   25  C   UNL     1     -44.218  59.820 -53.724  1.00  0.00     0.067 A 
HETATM   26  N   UNL     1     -42.963  60.186 -54.119  1.00  0.00    -0.263 NA
HETATM   27  C   UNL     1     -42.839  60.784 -55.328  1.00  0.00     0.117 A 
HETATM   28  C   UNL     1     -43.899  60.999 -56.189  1.00  0.00     0.019 A 
HETATM   29  C   UNL     1     -45.163  60.581 -55.793  1.00  0.00     0.003 A 
HETATM   30  C   UNL     1     -45.331  59.981 -54.549  1.00  0.00     0.030 A 
ENDBRANCH   1  25
BRANCH   5  31
HETATM   31  C   UNL     1     -45.075  61.622 -49.570  1.00  0.00     0.168 C 
BRANCH  31  32
HETATM   32  C   UNL     1     -45.625  61.007 -48.282  1.00  0.00     0.140 C 
HETATM   33  O   UNL     1     -46.872  61.650 -47.952  1.00  0.00    -0.384 OA
HETATM   34  C   UNL     1     -46.818  62.090 -46.589  1.00  0.00     0.168 C 
HETATM   35  C   UNL     1     -45.710  61.294 -45.939  1.00  0.00     0.029 C 
HETATM   36  C   UNL     1     -44.717  61.177 -47.069  1.00  0.00     0.036 C 
ENDBRANCH  31  32
ENDBRANCH   5  31
TORSDOF 6
ENDMDL
MODEL 3
REMARK VINA RESULT:      -8.5      2.580      4.347
REMARK  6 active torsions:
REMARK  status: ('A' for Active; 'I' for Inactive)
REMARK    1  A    between atoms: C_6  and  C_7 
REMARK    2  A    between atoms: C_7  and  N_8 
REMARK    3  A    between atoms: C_12  and  C_13 
REMARK    4  A    between atoms: C_13  and  C_14 
REMARK    5  A    between atoms: N_23  and  C_24 
REMARK    6  A    between atoms: C_24  and  C_25 
ROOT
HETATM    1  C   UNL     1     -43.146  58.723 -55.577  1.00  0.00     0.149 C 
HETATM    2  N   UNL     1     -42.007  58.879 -54.683  1.00  0.00    -0.220 NA
HETATM    3  C   UNL     1     -42.262  59.823 -53.709  1.00  0.00     0.304 C 
HETATM    4  O   UNL     1     -41.398  60.234 -52.955  1.00  0.00    -0.253 OA
HETATM    5  N   UNL     1     -43.573  60.166 -53.748  1.00  0.00    -0.270 N 
HETATM    6  C   UNL     1     -44.197  59.536 -54.785  1.00  0.00     0.257 C 
HETATM    7  O   UNL     1     -45.389  59.592 -55.050  1.00  0.00    -0.270 OA
HETATM    8  H   UNL     1     -41.092  59.018 -55.111  1.00  0.00     0.134 HD
ENDROOT
BRANCH   1   9
HETATM    9  C   UNL     1     -43.579  57.231 -55.744  1.00  0.00     0.028 C 
HETATM   10  C   UNL     1     -44.246  56.617 -54.494  1.00  0.00     0.035 C 
HETATM   11  C   UNL     1     -43.280  56.207 -53.384  1.00  0.00     0.235 C 
HETATM   12  N   UNL     1     -42.184  55.326 -53.930  1.00  0.00    -0.067 N 
HETATM   13  H   UNL     1     -42.633  54.457 -54.242  1.00  0.00     0.280 HD
HETATM   14  C   UNL     1     -41.463  55.926 -55.112  1.00  0.00     0.235 C 
HETATM   15  C   UNL     1     -42.462  56.274 -56.204  1.00  0.00     0.035 C 
BRANCH  12  16
HETATM   16  C   UNL     1     -41.183  54.914 -52.860  1.00  0.00     0.273 C 
BRANCH  16  17
HETATM   17  C   UNL     1     -40.716  53.485 -52.972  1.00  0.00    -0.027 A 
HETATM   18  C   UNL     1     -40.041  52.819 -51.928  1.00  0.00    -0.054 A 
HETATM   19  C   UNL     1     -39.591  51.501 -52.134  1.00  0.00     0.014 A 
HETATM   20  C   UNL     1     -39.787  53.455 -50.587  1.00  0.00     0.049 C 
HETATM   21  C   UNL     1     -39.822  50.831 -53.341  1.00  0.00    -0.061 A 
HETATM   22  C   UNL     1     -39.319  49.432 -53.550  1.00  0.00     0.048 C 
HETATM   23  C   UNL     1     -40.493  51.496 -54.368  1.00  0.00     0.007 A 
HETATM   24  C   UNL     1     -40.940  52.803 -54.185  1.00  0.00     0.010 A 
ENDBRANCH  16  17
ENDBRANCH  12  16
ENDBRANCH   1   9
BRANCH   1  25
HETATM   25  C   UNL     1     -42.829  59.392 -56.914  1.00  0.00     0.067 A 
HETATM   26  N   UNL     1     -41.682  60.135 -56.939  1.00  0.00    -0.263 NA
HETATM   27  C   UNL     1     -41.374  60.767 -58.096  1.00  0.00     0.117 A 
HETATM   28  C   UNL     1     -42.127  60.663 -59.251  1.00  0.00     0.019 A 
HETATM   29  C   UNL     1     -43.266  59.868 -59.224  1.00  0.00     0.003 A 
HETATM   30  C   UNL     1     -43.625  59.220 -58.045  1.00  0.00     0.030 A 
ENDBRANCH   1  25
BRANCH   5  31
HETATM   31  C   UNL     1     -44.192  61.145 -52.876  1.00  0.00     0.168 C 
BRANCH  31  32
HETATM   32  C   UNL     1     -44.572  60.594 -51.501  1.00  0.00     0.140 C 
HETATM   33  O   UNL     1     -45.927  60.985 -51.198  1.00  0.00    -0.384 OA
HETATM   34  C   UNL     1     -45.951  61.596 -49.901  1.00  0.00     0.168 C 
HETATM   35  C   UNL     1     -44.684  61.151 -49.208  1.00  0.00     0.029 C 
HETATM   36  C   UNL     1     -43.707  61.112 -50.357  1.00  0.00     0.036 C 
ENDBRANCH  31  32
ENDBRANCH   5  31
TORSDOF 6
ENDMDL
MODEL 4
REMARK VINA RESULT:      -8.4      2.431      4.962
REMARK  6 active torsions:
REMARK  status: ('A' for Active; 'I' for Inactive)
REMARK    1  A    between atoms: C_6  and  C_7 
REMARK    2  A    between atoms: C_7  and  N_8 
REMARK    3  A    between atoms: C_12  and  C_13 
REMARK    4  A    between atoms: C_13  and  C_14 
REMARK    5  A    between atoms: N_23  and  C_24 
REMARK    6  A    between atoms: C_24  and  C_25 
ROOT
HETATM    1  C   UNL     1     -42.286  56.841 -52.302  1.00  0.00     0.149 C 
HETATM    2  N   UNL     1     -40.930  57.360 -52.194  1.00  0.00    -0.220 NA
HETATM    3  C   UNL     1     -40.879  58.697 -52.533  1.00  0.00     0.304 C 
HETATM    4  O   UNL     1     -39.828  59.297 -52.673  1.00  0.00    -0.253 OA
HETATM    5  N   UNL     1     -42.140  59.178 -52.658  1.00  0.00    -0.270 N 
HETATM    6  C   UNL     1     -43.048  58.173 -52.493  1.00  0.00     0.257 C 
HETATM    7  O   UNL     1     -44.265  58.295 -52.488  1.00  0.00    -0.270 OA
HETATM    8  H   UNL     1     -40.188  56.829 -52.649  1.00  0.00     0.134 HD
ENDROOT
BRANCH   1   9
HETATM    9  C   UNL     1     -42.748  56.093 -51.010  1.00  0.00     0.028 C 
HETATM   10  C   UNL     1     -41.762  56.199 -49.826  1.00  0.00     0.035 C 
HETATM   11  C   UNL     1     -40.545  55.281 -49.917  1.00  0.00     0.235 C 
HETATM   12  N   UNL     1     -40.971  53.856 -50.172  1.00  0.00    -0.067 N 
HETATM   13  H   UNL     1     -41.489  53.550 -49.340  1.00  0.00     0.280 HD
HETATM   14  C   UNL     1     -41.882  53.706 -51.365  1.00  0.00     0.235 C 
HETATM   15  C   UNL     1     -43.097  54.605 -51.205  1.00  0.00     0.035 C 
BRANCH  12  16
HETATM   16  C   UNL     1     -39.786  52.909 -50.294  1.00  0.00     0.273 C 
BRANCH  16  17
HETATM   17  C   UNL     1     -39.824  52.031 -51.519  1.00  0.00    -0.027 A 
HETATM   18  C   UNL     1     -39.826  50.622 -51.448  1.00  0.00    -0.054 A 
HETATM   19  C   UNL     1     -39.809  49.876 -52.641  1.00  0.00     0.014 A 
HETATM   20  C   UNL     1     -39.856  49.873 -50.141  1.00  0.00     0.049 C 
HETATM   21  C   UNL     1     -39.817  50.501 -53.893  1.00  0.00    -0.061 A 
HETATM   22  C   UNL     1     -39.779  49.690 -55.155  1.00  0.00     0.048 C 
HETATM   23  C   UNL     1     -39.818  51.895 -53.955  1.00  0.00     0.007 A 
HETATM   24  C   UNL     1     -39.828  52.650 -52.784  1.00  0.00     0.010 A 
ENDBRANCH  16  17
ENDBRANCH  12  16
ENDBRANCH   1   9
BRANCH   1  25
HETATM   25  C   UNL     1     -42.390  55.966 -53.551  1.00  0.00     0.067 A 
HETATM   26  N   UNL     1     -43.655  55.578 -53.891  1.00  0.00    -0.263 NA
HETATM   27  C   UNL     1     -43.793  54.781 -54.976  1.00  0.00     0.117 A 
HETATM   28  C   UNL     1     -42.736  54.382 -55.774  1.00  0.00     0.019 A 
HETATM   29  C   UNL     1     -41.460  54.821 -55.443  1.00  0.00     0.003 A 
HETATM   30  C   UNL     1     -41.279  55.625 -54.321  1.00  0.00     0.030 A 
ENDBRANCH   1  25
BRANCH   5  31
HETATM   31  C   UNL     1     -42.467  60.544 -53.020  1.00  0.00     0.168 C 
BRANCH  31  32
HETATM   32  C   UNL     1     -43.312  61.274 -51.976  1.00  0.00     0.140 C 
HETATM   33  O   UNL     1     -43.604  62.602 -52.455  1.00  0.00    -0.384 OA
HETATM   34  C   UNL     1     -43.251  63.548 -51.437  1.00  0.00     0.168 C 
HETATM   35  C   UNL     1     -43.183  62.764 -50.148  1.00  0.00     0.029 C 
HETATM   36  C   UNL     1     -42.630  61.443 -50.623  1.00  0.00     0.036 C 
ENDBRANCH  31  32
ENDBRANCH   5  31
TORSDOF 6
ENDMDL
MODEL 5
REMARK VINA RESULT:      -8.4      2.874      6.273
REMARK  6 active torsions:
REMARK  status: ('A' for Active; 'I' for Inactive)
REMARK    1  A    between atoms: C_6  and  C_7 
REMARK    2  A    between atoms: C_7  and  N_8 
REMARK    3  A    between atoms: C_12  and  C_13 
REMARK    4  A    between atoms: C_13  and  C_14 
REMARK    5  A    between atoms: N_23  and  C_24 
REMARK    6  A    between atoms: C_24  and  C_25 
ROOT
HETATM    1  C   UNL     1     -42.846  59.434 -53.634  1.00  0.00     0.149 C 
HETATM    2  N   UNL     1     -43.882  58.411 -53.655  1.00  0.00    -0.220 NA
HETATM    3  C   UNL     1     -44.329  58.180 -54.940  1.00  0.00     0.304 C 
HETATM    4  O   UNL     1     -45.303  57.488 -55.178  1.00  0.00    -0.253 OA
HETATM    5  N   UNL     1     -43.521  58.820 -55.819  1.00  0.00    -0.270 N 
HETATM    6  C   UNL     1     -42.581  59.551 -55.153  1.00  0.00     0.257 C 
HETATM    7  O   UNL     1     -41.672  60.192 -55.663  1.00  0.00    -0.270 OA
HETATM    8  H   UNL     1     -44.657  58.516 -53.001  1.00  0.00     0.134 HD
ENDROOT
BRANCH   1   9
HETATM    9  C   UNL     1     -41.567  58.978 -52.861  1.00  0.00     0.028 C 
HETATM   10  C   UNL     1     -40.782  57.837 -53.543  1.00  0.00     0.035 C 
HETATM   11  C   UNL     1     -41.382  56.444 -53.363  1.00  0.00     0.235 C 
HETATM   12  N   UNL     1     -41.637  56.160 -51.903  1.00  0.00    -0.067 N 
HETATM   13  H   UNL     1     -40.720  56.129 -51.444  1.00  0.00     0.280 HD
HETATM   14  C   UNL     1     -42.462  57.222 -51.219  1.00  0.00     0.235 C 
HETATM   15  C   UNL     1     -41.800  58.580 -51.390  1.00  0.00     0.035 C 
BRANCH  12  16
HETATM   16  C   UNL     1     -42.259  54.789 -51.679  1.00  0.00     0.273 C 
BRANCH  16  17
HETATM   17  C   UNL     1     -41.484  53.654 -52.299  1.00  0.00    -0.027 A 
HETATM   18  C   UNL     1     -40.450  52.976 -51.620  1.00  0.00    -0.054 A 
HETATM   19  C   UNL     1     -39.740  51.962 -52.290  1.00  0.00     0.014 A 
HETATM   20  C   UNL     1     -40.075  53.283 -50.194  1.00  0.00     0.049 C 
HETATM   21  C   UNL     1     -40.056  51.595 -53.603  1.00  0.00    -0.061 A 
HETATM   22  C   UNL     1     -39.277  50.524 -54.309  1.00  0.00     0.048 C 
HETATM   23  C   UNL     1     -41.082  52.268 -54.267  1.00  0.00     0.007 A 
HETATM   24  C   UNL     1     -41.792  53.280 -53.622  1.00  0.00     0.010 A 
ENDBRANCH  16  17
ENDBRANCH  12  16
ENDBRANCH   1   9
BRANCH   1  25
HETATM   25  C   UNL     1     -43.433  60.731 -53.078  1.00  0.00     0.067 A 
HETATM   26  N   UNL     1     -44.613  60.597 -52.402  1.00  0.00    -0.263 NA
HETATM   27  C   UNL     1     -45.183  61.723 -51.913  1.00  0.00     0.117 A 
HETATM   28  C   UNL     1     -44.617  62.979 -52.023  1.00  0.00     0.019 A 
HETATM   29  C   UNL     1     -43.395  63.095 -52.675  1.00  0.00     0.003 A 
HETATM   30  C   UNL     1     -42.789  61.961 -53.208  1.00  0.00     0.030 A 
ENDBRANCH   1  25
BRANCH   5  31
HETATM   31  C   UNL     1     -43.700  58.809 -57.259  1.00  0.00     0.168 C 
BRANCH  31  32
HETATM   32  C   UNL     1     -42.777  57.833 -57.989  1.00  0.00     0.140 C 
HETATM   33  O   UNL     1     -42.606  58.279 -59.349  1.00  0.00    -0.384 OA
HETATM   34  C   UNL     1     -42.885  57.185 -60.232  1.00  0.00     0.168 C 
HETATM   35  C   UNL     1     -42.768  55.934 -59.393  1.00  0.00     0.029 C 
HETATM   36  C   UNL     1     -43.308  56.406 -58.066  1.00  0.00     0.036 C 
ENDBRANCH  31  32
ENDBRANCH   5  31
TORSDOF 6
ENDMDL
MODEL 6
REMARK VINA RESULT:      -7.9      3.424      7.131
REMARK  6 active torsions:
REMARK  status: ('A' for Active; 'I' for Inactive)
REMARK    1  A    between atoms: C_6  and  C_7 
REMARK    2  A    between atoms: C_7  and  N_8 
REMARK    3  A    between atoms: C_12  and  C_13 
REMARK    4  A    between atoms: C_13  and  C_14 
REMARK    5  A    between atoms: N_23  and  C_24 
REMARK    6  A    between atoms: C_24  and  C_25 
ROOT
HETATM    1  C   UNL     1     -42.557  57.605 -53.018  1.00  0.00     0.149 C 
HETATM    2  N   UNL     1     -41.952  57.286 -54.303  1.00  0.00    -0.220 NA
HETATM    3  C   UNL     1     -41.655  55.941 -54.395  1.00  0.00     0.304 C 
HETATM    4  O   UNL     1     -40.998  55.478 -55.310  1.00  0.00    -0.253 OA
HETATM    5  N   UNL     1     -42.210  55.286 -53.346  1.00  0.00    -0.270 N 
HETATM    6  C   UNL     1     -42.809  56.171 -52.498  1.00  0.00     0.257 C 
HETATM    7  O   UNL     1     -43.446  55.887 -51.493  1.00  0.00    -0.270 OA
HETATM    8  H   UNL     1     -41.171  57.865 -54.610  1.00  0.00     0.134 HD
ENDROOT
BRANCH   1   9
HETATM    9  C   UNL     1     -43.890  58.407 -53.164  1.00  0.00     0.028 C 
HETATM   10  C   UNL     1     -44.946  57.729 -54.064  1.00  0.00     0.035 C 
HETATM   11  C   UNL     1     -44.701  57.873 -55.564  1.00  0.00     0.235 C 
HETATM   12  N   UNL     1     -44.489  59.321 -55.933  1.00  0.00    -0.067 N 
HETATM   13  H   UNL     1     -45.376  59.804 -55.749  1.00  0.00     0.280 HD
HETATM   14  C   UNL     1     -43.414  59.997 -55.119  1.00  0.00     0.235 C 
HETATM   15  C   UNL     1     -43.728  59.865 -53.637  1.00  0.00     0.035 C 
BRANCH  12  16
HETATM   16  C   UNL     1     -44.217  59.507 -57.419  1.00  0.00     0.273 C 
BRANCH  16  17
HETATM   17  C   UNL     1     -44.431  58.264 -58.244  1.00  0.00    -0.027 A 
HETATM   18  C   UNL     1     -45.699  57.878 -58.727  1.00  0.00    -0.054 A 
HETATM   19  C   UNL     1     -45.821  56.674 -59.446  1.00  0.00     0.014 A 
HETATM   20  C   UNL     1     -46.937  58.709 -58.517  1.00  0.00     0.049 C 
HETATM   21  C   UNL     1     -44.709  55.867 -59.713  1.00  0.00    -0.061 A 
HETATM   22  C   UNL     1     -44.860  54.577 -60.464  1.00  0.00     0.048 C 
HETATM   23  C   UNL     1     -43.458  56.257 -59.234  1.00  0.00     0.007 A 
HETATM   24  C   UNL     1     -43.319  57.443 -58.514  1.00  0.00     0.010 A 
ENDBRANCH  16  17
ENDBRANCH  12  16
ENDBRANCH   1   9
BRANCH   1  25
HETATM   25  C   UNL     1     -41.531  58.332 -52.148  1.00  0.00     0.067 A 
HETATM   26  N   UNL     1     -41.969  58.694 -50.905  1.00  0.00    -0.263 NA
HETATM   27  C   UNL     1     -41.102  59.362 -50.109  1.00  0.00     0.117 A 
HETATM   28  C   UNL     1     -39.799  59.653 -50.468  1.00  0.00     0.019 A 
HETATM   29  C   UNL     1     -39.353  59.240 -51.718  1.00  0.00     0.003 A 
HETATM   30  C   UNL     1     -40.224  58.568 -52.571  1.00  0.00     0.030 A 
ENDBRANCH   1  25
BRANCH   5  31
HETATM   31  C   UNL     1     -42.090  53.860 -53.112  1.00  0.00     0.168 C 
BRANCH  31  32
HETATM   32  C   UNL     1     -40.663  53.403 -52.803  1.00  0.00     0.140 C 
HETATM   33  O   UNL     1     -40.235  52.481 -53.826  1.00  0.00    -0.384 OA
HETATM   34  C   UNL     1     -39.731  51.296 -53.198  1.00  0.00     0.168 C 
HETATM   35  C   UNL     1     -39.413  51.685 -51.773  1.00  0.00     0.029 C 
HETATM   36  C   UNL     1     -40.513  52.672 -51.474  1.00  0.00     0.036 C 
ENDBRANCH  31  32
ENDBRANCH   5  31
TORSDOF 6
ENDMDL
MODEL 7
REMARK VINA RESULT:      -7.8      4.480      7.650
REMARK  6 active torsions:
REMARK  status: ('A' for Active; 'I' for Inactive)
REMARK    1  A    between atoms: C_6  and  C_7 
REMARK    2  A    between atoms: C_7  and  N_8 
REMARK    3  A    between atoms: C_12  and  C_13 
REMARK    4  A    between atoms: C_13  and  C_14 
REMARK    5  A    between atoms: N_23  and  C_24 
REMARK    6  A    between atoms: C_24  and  C_25 
ROOT
HETATM    1  C   UNL     1     -43.661  58.843 -57.216  1.00  0.00     0.149 C 
HETATM    2  N   UNL     1     -42.262  59.221 -57.078  1.00  0.00    -0.220 NA
HETATM    3  C   UNL     1     -42.006  60.423 -57.706  1.00  0.00     0.304 C 
HETATM    4  O   UNL     1     -40.876  60.852 -57.860  1.00  0.00    -0.253 OA
HETATM    5  N   UNL     1     -43.177  60.994 -58.078  1.00  0.00    -0.270 N 
HETATM    6  C   UNL     1     -44.221  60.165 -57.791  1.00  0.00     0.257 C 
HETATM    7  O   UNL     1     -45.407  60.417 -57.951  1.00  0.00    -0.270 OA
HETATM    8  H   UNL     1     -41.562  58.518 -57.312  1.00  0.00     0.134 HD
ENDROOT
BRANCH   1   9
HETATM    9  C   UNL     1     -44.325  58.484 -55.847  1.00  0.00     0.028 C 
HETATM   10  C   UNL     1     -43.781  59.288 -54.645  1.00  0.00     0.035 C 
HETATM   11  C   UNL     1     -42.432  58.814 -54.110  1.00  0.00     0.235 C 
HETATM   12  N   UNL     1     -42.460  57.331 -53.832  1.00  0.00    -0.067 N 
HETATM   13  H   UNL     1     -43.128  57.189 -53.066  1.00  0.00     0.280 HD
HETATM   14  C   UNL     1     -42.921  56.508 -55.008  1.00  0.00     0.235 C 
HETATM   15  C   UNL     1     -44.286  56.989 -55.474  1.00  0.00     0.035 C 
BRANCH  12  16
HETATM   16  C   UNL     1     -41.125  56.812 -53.319  1.00  0.00     0.273 C 
BRANCH  16  17
HETATM   17  C   UNL     1     -40.920  55.333 -53.525  1.00  0.00    -0.027 A 
HETATM   18  C   UNL     1     -41.294  54.370 -52.564  1.00  0.00    -0.054 A 
HETATM   19  C   UNL     1     -41.019  53.012 -52.812  1.00  0.00     0.014 A 
HETATM   20  C   UNL     1     -41.989  54.731 -51.278  1.00  0.00     0.049 C 
HETATM   21  C   UNL     1     -40.408  52.596 -54.002  1.00  0.00    -0.061 A 
HETATM   22  C   UNL     1     -40.106  51.146 -54.242  1.00  0.00     0.048 C 
HETATM   23  C   UNL     1     -40.045  53.554 -54.948  1.00  0.00     0.007 A 
HETATM   24  C   UNL     1     -40.303  54.905 -54.716  1.00  0.00     0.010 A 
ENDBRANCH  16  17
ENDBRANCH  12  16
ENDBRANCH   1   9
BRANCH   1  25
HETATM   25  C   UNL     1     -43.776  57.709 -58.235  1.00  0.00     0.067 A 
HETATM   26  N   UNL     1     -45.035  57.477 -58.712  1.00  0.00    -0.263 NA
HETATM   27  C   UNL     1     -45.189  56.465 -59.599  1.00  0.00     0.117 A 
HETATM   28  C   UNL     1     -44.142  55.695 -60.073  1.00  0.00     0.019 A 
HETATM   29  C   UNL     1     -42.861  55.972 -59.612  1.00  0.00     0.003 A 
HETATM   30  C   UNL     1     -42.669  56.992 -58.684  1.00  0.00     0.030 A 
ENDBRANCH   1  25
BRANCH   5  31
HETATM   31  C   UNL     1     -43.288  62.260 -58.778  1.00  0.00     0.168 C 
BRANCH  31  32
HETATM   32  C   UNL     1     -43.221  62.132 -60.301  1.00  0.00     0.140 C 
HETATM   33  O   UNL     1     -41.865  62.367 -60.731  1.00  0.00    -0.384 OA
HETATM   34  C   UNL     1     -41.875  63.354 -61.770  1.00  0.00     0.168 C 
HETATM   35  C   UNL     1     -43.288  63.379 -62.305  1.00  0.00     0.029 C 
HETATM   36  C   UNL     1     -44.092  63.132 -61.053  1.00  0.00     0.036 C 
ENDBRANCH  31  32
ENDBRANCH   5  31
TORSDOF 6
ENDMDL
MODEL 8
REMARK VINA RESULT:      -7.7      3.863      5.943
REMARK  6 active torsions:
REMARK  status: ('A' for Active; 'I' for Inactive)
REMARK    1  A    between atoms: C_6  and  C_7 
REMARK    2  A    between atoms: C_7  and  N_8 
REMARK    3  A    between atoms: C_12  and  C_13 
REMARK    4  A    between atoms: C_13  and  C_14 
REMARK    5  A    between atoms: N_23  and  C_24 
REMARK    6  A    between atoms: C_24  and  C_25 
ROOT
HETATM    1  C   UNL     1     -43.407  57.568 -56.220  1.00  0.00     0.149 C 
HETATM    2  N   UNL     1     -42.172  58.031 -55.603  1.00  0.00    -0.220 NA
HETATM    3  C   UNL     1     -42.344  59.267 -55.011  1.00  0.00     0.304 C 
HETATM    4  O   UNL     1     -41.411  59.920 -54.578  1.00  0.00    -0.253 OA
HETATM    5  N   UNL     1     -43.663  59.579 -54.997  1.00  0.00    -0.270 N 
HETATM    6  C   UNL     1     -44.384  58.618 -55.644  1.00  0.00     0.257 C 
HETATM    7  O   UNL     1     -45.602  58.581 -55.751  1.00  0.00    -0.270 OA
HETATM    8  H   UNL     1     -41.325  58.001 -56.169  1.00  0.00     0.134 HD
ENDROOT
BRANCH   1   9
HETATM    9  C   UNL     1     -43.793  56.119 -55.778  1.00  0.00     0.028 C 
HETATM   10  C   UNL     1     -44.078  55.969 -54.268  1.00  0.00     0.035 C 
HETATM   11  C   UNL     1     -42.837  55.904 -53.381  1.00  0.00     0.235 C 
HETATM   12  N   UNL     1     -41.878  54.852 -53.882  1.00  0.00    -0.067 N 
HETATM   13  H   UNL     1     -42.349  53.947 -53.768  1.00  0.00     0.280 HD
HETATM   14  C   UNL     1     -41.522  55.009 -55.339  1.00  0.00     0.235 C 
HETATM   15  C   UNL     1     -42.787  55.023 -56.182  1.00  0.00     0.035 C 
BRANCH  12  16
HETATM   16  C   UNL     1     -40.614  54.771 -53.039  1.00  0.00     0.273 C 
BRANCH  16  17
HETATM   17  C   UNL     1     -40.380  53.421 -52.410  1.00  0.00    -0.027 A 
HETATM   18  C   UNL     1     -40.536  53.186 -51.027  1.00  0.00    -0.054 A 
HETATM   19  C   UNL     1     -40.246  51.909 -50.512  1.00  0.00     0.014 A 
HETATM   20  C   UNL     1     -41.014  54.247 -50.071  1.00  0.00     0.049 C 
HETATM   21  C   UNL     1     -39.833  50.863 -51.345  1.00  0.00    -0.061 A 
HETATM   22  C   UNL     1     -39.510  49.512 -50.776  1.00  0.00     0.048 C 
HETATM   23  C   UNL     1     -39.684  51.102 -52.711  1.00  0.00     0.007 A 
HETATM   24  C   UNL     1     -39.959  52.362 -53.238  1.00  0.00     0.010 A 
ENDBRANCH  16  17
ENDBRANCH  12  16
ENDBRANCH   1   9
BRANCH   1  25
HETATM   25  C   UNL     1     -43.289  57.703 -57.738  1.00  0.00     0.067 A 
HETATM   26  N   UNL     1     -42.031  57.960 -58.207  1.00  0.00    -0.263 NA
HETATM   27  C   UNL     1     -41.883  58.112 -59.544  1.00  0.00     0.117 A 
HETATM   28  C   UNL     1     -42.919  57.978 -60.450  1.00  0.00     0.019 A 
HETATM   29  C   UNL     1     -44.184  57.673 -59.964  1.00  0.00     0.003 A 
HETATM   30  C   UNL     1     -44.377  57.529 -58.592  1.00  0.00     0.030 A 
ENDBRANCH   1  25
BRANCH   5  31
HETATM   31  C   UNL     1     -44.210  60.812 -54.464  1.00  0.00     0.168 C 
BRANCH  31  32
HETATM   32  C   UNL     1     -44.485  61.877 -55.526  1.00  0.00     0.140 C 
HETATM   33  O   UNL     1     -45.885  61.849 -55.866  1.00  0.00    -0.384 OA
HETATM   34  C   UNL     1     -46.012  61.761 -57.291  1.00  0.00     0.168 C 
HETATM   35  C   UNL     1     -44.685  62.214 -57.855  1.00  0.00     0.029 C 
HETATM   36  C   UNL     1     -43.719  61.675 -56.829  1.00  0.00     0.036 C 
ENDBRANCH  31  32
ENDBRANCH   5  31
TORSDOF 6
ENDMDL
MODEL 9
REMARK VINA RESULT:      -7.7      2.735      5.032
REMARK  6 active torsions:
REMARK  status: ('A' for Active; 'I' for Inactive)
REMARK    1  A    between atoms: C_6  and  C_7 
REMARK    2  A    between atoms: C_7  and  N_8 
REMARK    3  A    between atoms: C_12  and  C_13 
REMARK    4  A    between atoms: C_13  and  C_14 
REMARK    5  A    between atoms: N_23  and  C_24 
REMARK    6  A    between atoms: C_24  and  C_25 
ROOT
HETATM    1  C   UNL     1     -43.450  57.641 -56.201  1.00  0.00     0.149 C 
HETATM    2  N   UNL     1     -42.306  58.168 -55.471  1.00  0.00    -0.220 NA
HETATM    3  C   UNL     1     -42.621  59.354 -54.839  1.00  0.00     0.304 C 
HETATM    4  O   UNL     1     -41.778  60.056 -54.307  1.00  0.00    -0.253 OA
HETATM    5  N   UNL     1     -43.959  59.560 -54.910  1.00  0.00    -0.270 N 
HETATM    6  C   UNL     1     -44.550  58.580 -55.653  1.00  0.00     0.257 C 
HETATM    7  O   UNL     1     -45.750  58.452 -55.853  1.00  0.00    -0.270 OA
HETATM    8  H   UNL     1     -41.421  58.235 -55.973  1.00  0.00     0.134 HD
ENDROOT
BRANCH   1   9
HETATM    9  C   UNL     1     -43.745  56.145 -55.855  1.00  0.00     0.028 C 
HETATM   10  C   UNL     1     -44.092  55.891 -54.373  1.00  0.00     0.035 C 
HETATM   11  C   UNL     1     -42.895  55.868 -53.425  1.00  0.00     0.235 C 
HETATM   12  N   UNL     1     -41.835  54.919 -53.929  1.00  0.00    -0.067 N 
HETATM   13  H   UNL     1     -42.240  53.977 -53.887  1.00  0.00     0.280 HD
HETATM   14  C   UNL     1     -41.421  55.183 -55.355  1.00  0.00     0.235 C 
HETATM   15  C   UNL     1     -42.641  55.150 -56.262  1.00  0.00     0.035 C 
BRANCH  12  16
HETATM   16  C   UNL     1     -40.611  54.884 -53.025  1.00  0.00     0.273 C 
BRANCH  16  17
HETATM   17  C   UNL     1     -40.337  53.534 -52.412  1.00  0.00    -0.027 A 
HETATM   18  C   UNL     1     -39.989  52.404 -53.181  1.00  0.00    -0.054 A 
HETATM   19  C   UNL     1     -39.802  51.168 -52.535  1.00  0.00     0.014 A 
HETATM   20  C   UNL     1     -39.796  52.463 -54.673  1.00  0.00     0.049 C 
HETATM   21  C   UNL     1     -39.928  51.043 -51.146  1.00  0.00    -0.061 A 
HETATM   22  C   UNL     1     -39.743  49.713 -50.476  1.00  0.00     0.048 C 
HETATM   23  C   UNL     1     -40.270  52.166 -50.393  1.00  0.00     0.007 A 
HETATM   24  C   UNL     1     -40.466  53.398 -51.016  1.00  0.00     0.010 A 
ENDBRANCH  16  17
ENDBRANCH  12  16
ENDBRANCH   1   9
BRANCH   1  25
HETATM   25  C   UNL     1     -43.236  57.863 -57.698  1.00  0.00     0.067 A 
HETATM   26  N   UNL     1     -44.207  57.351 -58.511  1.00  0.00    -0.263 NA
HETATM   27  C   UNL     1     -44.047  57.502 -59.847  1.00  0.00     0.117 A 
HETATM   28  C   UNL     1     -42.985  58.178 -60.420  1.00  0.00     0.019 A 
HETATM   29  C   UNL     1     -42.027  58.732 -59.579  1.00  0.00     0.003 A 
HETATM   30  C   UNL     1     -42.150  58.578 -58.201  1.00  0.00     0.030 A 
ENDBRANCH   1  25
BRANCH   5  31
HETATM   31  C   UNL     1     -44.643  60.716 -54.364  1.00  0.00     0.168 C 
BRANCH  31  32
HETATM   32  C   UNL     1     -45.078  60.545 -52.908  1.00  0.00     0.140 C 
HETATM   33  O   UNL     1     -44.207  61.325 -52.064  1.00  0.00    -0.384 OA
HETATM   34  C   UNL     1     -43.710  60.486 -51.014  1.00  0.00     0.168 C 
HETATM   35  C   UNL     1     -44.652  59.307 -50.942  1.00  0.00     0.029 C 
HETATM   36  C   UNL     1     -45.005  59.111 -52.396  1.00  0.00     0.036 C 
ENDBRANCH  31  32
ENDBRANCH   5  31
TORSDOF 6
ENDMDL
MODEL 10
REMARK VINA RESULT:      -7.6      2.981      5.696
REMARK  6 active torsions:
REMARK  status: ('A' for Active; 'I' for Inactive)
REMARK    1  A    between atoms: C_6  and  C_7 
REMARK    2  A    between atoms: C_7  and  N_8 
REMARK    3  A    between atoms: C_12  and  C_13 
REMARK    4  A    between atoms: C_13  and  C_14 
REMARK    5  A    between atoms: N_23  and  C_24 
REMARK    6  A    between atoms: C_24  and  C_25 
ROOT
HETATM    1  C   UNL     1     -42.025  55.634 -51.903  1.00  0.00     0.149 C 
HETATM    2  N   UNL     1     -43.476  55.673 -51.790  1.00  0.00    -0.220 NA
HETATM    3  C   UNL     1     -43.912  56.920 -51.390  1.00  0.00     0.304 C 
HETATM    4  O   UNL     1     -45.068  57.138 -51.074  1.00  0.00    -0.253 OA
HETATM    5  N   UNL     1     -42.876  57.792 -51.429  1.00  0.00    -0.270 N 
HETATM    6  C   UNL     1     -41.723  57.144 -51.767  1.00  0.00     0.257 C 
HETATM    7  O   UNL     1     -40.630  57.663 -51.943  1.00  0.00    -0.270 OA
HETATM    8  H   UNL     1     -43.924  54.929 -51.256  1.00  0.00     0.134 HD
ENDROOT
BRANCH   1   9
HETATM    9  C   UNL     1     -41.543  55.072 -53.279  1.00  0.00     0.028 C 
HETATM   10  C   UNL     1     -40.898  56.125 -54.207  1.00  0.00     0.035 C 
HETATM   11  C   UNL     1     -41.886  57.038 -54.930  1.00  0.00     0.235 C 
HETATM   12  N   UNL     1     -42.938  56.225 -55.644  1.00  0.00    -0.067 N 
HETATM   13  H   UNL     1     -42.454  55.700 -56.381  1.00  0.00     0.280 HD
HETATM   14  C   UNL     1     -43.639  55.233 -54.750  1.00  0.00     0.235 C 
HETATM   15  C   UNL     1     -42.618  54.320 -54.090  1.00  0.00     0.035 C 
BRANCH  12  16
HETATM   16  C   UNL     1     -43.959  57.099 -56.359  1.00  0.00     0.273 C 
BRANCH  16  17
HETATM   17  C   UNL     1     -43.446  57.730 -57.628  1.00  0.00    -0.027 A 
HETATM   18  C   UNL     1     -43.271  57.005 -58.825  1.00  0.00    -0.054 A 
HETATM   19  C   UNL     1     -42.737  57.659 -59.950  1.00  0.00     0.014 A 
HETATM   20  C   UNL     1     -43.643  55.551 -58.957  1.00  0.00     0.049 C 
HETATM   21  C   UNL     1     -42.402  59.018 -59.915  1.00  0.00    -0.061 A 
HETATM   22  C   UNL     1     -41.816  59.694 -61.120  1.00  0.00     0.048 C 
HETATM   23  C   UNL     1     -42.581  59.729 -58.728  1.00  0.00     0.007 A 
HETATM   24  C   UNL     1     -43.102  59.096 -57.601  1.00  0.00     0.010 A 
ENDBRANCH  16  17
ENDBRANCH  12  16
ENDBRANCH   1   9
BRANCH   1  25
HETATM   25  C   UNL     1     -41.452  54.852 -50.721  1.00  0.00     0.067 A 
HETATM   26  N   UNL     1     -41.005  53.594 -51.012  1.00  0.00    -0.263 NA
HETATM   27  C   UNL     1     -40.512  52.855 -49.991  1.00  0.00     0.117 A 
HETATM   28  C   UNL     1     -40.398  53.320 -48.693  1.00  0.00     0.019 A 
HETATM   29  C   UNL     1     -40.814  54.617 -48.420  1.00  0.00     0.003 A 
HETATM   30  C   UNL     1     -41.345  55.398 -49.442  1.00  0.00     0.030 A 
ENDBRANCH   1  25
BRANCH   5  31
HETATM   31  C   UNL     1     -42.965  59.192 -51.060  1.00  0.00     0.168 C 
BRANCH  31  32
HETATM   32  C   UNL     1     -43.614  60.073 -52.128  1.00  0.00     0.140 C 
HETATM   33  O   UNL     1     -43.120  59.679 -53.424  1.00  0.00    -0.384 OA
HETATM   34  C   UNL     1     -42.648  60.844 -54.111  1.00  0.00     0.168 C 
HETATM   35  C   UNL     1     -43.290  62.024 -53.419  1.00  0.00     0.029 C 
HETATM   36  C   UNL     1     -43.311  61.560 -51.984  1.00  0.00     0.036 C 
ENDBRANCH  31  32
ENDBRANCH   5  31
TORSDOF 6
ENDMDL
