MODEL 1
REMARK VINA RESULT:      -8.4      0.000      0.000
REMARK  10 active torsions:
REMARK  status: ('A' for Active; 'I' for Inactive)
REMARK    1  A    between atoms: N_2  and  C_4 
REMARK    2  A    between atoms: C_4  and  C_5 
REMARK    3  A    between atoms: N_6  and  C_7 
REMARK    4  A    between atoms: C_11  and  N_12 
REMARK    5  A    between atoms: C_15  and  C_16 
REMARK       I    between atoms: C_16  and  N_17 
REMARK    6  A    between atoms: N_17  and  N_18 
REMARK    7  A    between atoms: C_19  and  C_20 
REMARK    8  A    between atoms: C_22  and  O_23 
REMARK    9  A    between atoms: O_23  and  C_24 
REMARK   10  A    between atoms: C_24  and  C_25 
ROOT
HETATM    1  C   UNL     1     -43.128  56.594 -57.343  1.00  0.00     0.293 C 
HETATM    2  N   UNL     1     -43.536  55.659 -56.412  1.00  0.00    -0.242 N 
HETATM    3  O   UNL     1     -42.208  57.401 -57.200  1.00  0.00    -0.264 OA
HETATM    4  H   UNL     1     -44.317  55.037 -56.605  1.00  0.00     0.192 HD
ENDROOT
BRANCH   1   5
HETATM    5  C   UNL     1     -43.895  56.600 -58.581  1.00  0.00     0.170 A 
HETATM    6  C   UNL     1     -45.113  57.240 -58.783  1.00  0.00     0.096 A 
HETATM    7  N   UNL     1     -45.486  56.870 -60.075  1.00  0.00    -0.215 N 
HETATM    8  N   UNL     1     -44.465  56.154 -60.626  1.00  0.00     0.012 NA
HETATM    9  N   UNL     1     -43.517  55.966 -59.723  1.00  0.00    -0.152 NA
BRANCH   6  10
HETATM   10  C   UNL     1     -45.834  58.179 -57.887  1.00  0.00     0.295 C 
BRANCH  10  11
HETATM   11  N   UNL     1     -44.935  59.126 -57.132  1.00  0.00    -0.073 N 
HETATM   12  C   UNL     1     -45.202  59.175 -55.660  1.00  0.00     0.269 C 
HETATM   13  H   UNL     1     -43.967  58.770 -57.278  1.00  0.00     0.279 HD
HETATM   14  C   UNL     1     -44.926  60.498 -57.740  1.00  0.00     0.269 C 
ENDBRANCH  10  11
ENDBRANCH   6  10
BRANCH   7  15
HETATM   15  C   UNL     1     -46.702  57.095 -60.763  1.00  0.00     0.225 A 
HETATM   16  N   UNL     1     -47.565  56.094 -60.948  1.00  0.00    -0.081 NA
HETATM   17  O   UNL     1     -48.606  56.679 -61.673  1.00  0.00    -0.103 OA
HETATM   18  N   UNL     1     -48.345  58.016 -61.932  1.00  0.00    -0.083 NA
HETATM   19  C   UNL     1     -47.165  58.274 -61.372  1.00  0.00     0.201 A 
BRANCH  19  20
HETATM   20  N   UNL     1     -46.555  59.470 -61.403  1.00  0.00    -0.379 N 
HETATM   21  H   UNL     1     -46.944  60.225 -61.960  1.00  0.00     0.158 HD
HETATM   22  H   UNL     1     -45.606  59.628 -61.072  1.00  0.00     0.158 HD
ENDBRANCH  19  20
ENDBRANCH   7  15
ENDBRANCH   1   5
BRANCH   2  23
HETATM   23  N   UNL     1     -42.839  55.544 -55.249  1.00  0.00    -0.184 NA
HETATM   24  C   UNL     1     -43.477  55.825 -54.157  1.00  0.00     0.150 C 
BRANCH  24  25
HETATM   25  C   UNL     1     -42.820  55.704 -52.839  1.00  0.00    -0.014 A 
HETATM   26  C   UNL     1     -42.288  54.473 -52.446  1.00  0.00     0.049 A 
HETATM   27  C   UNL     1     -41.637  54.353 -51.214  1.00  0.00     0.070 A 
HETATM   28  C   UNL     1     -41.546  55.464 -50.371  1.00  0.00     0.037 A 
HETATM   29  C   UNL     1     -42.083  56.691 -50.763  1.00  0.00     0.004 A 
HETATM   30  C   UNL     1     -42.718  56.815 -51.996  1.00  0.00     0.013 A 
BRANCH  27  31
HETATM   31  O   UNL     1     -41.155  53.104 -50.929  1.00  0.00    -0.346 OA
BRANCH  31  32
HETATM   32  C   UNL     1     -39.798  52.857 -51.307  1.00  0.00     0.219 C 
BRANCH  32  33
HETATM   33  C   UNL     1     -39.750  51.762 -52.340  1.00  0.00     0.026 A 
HETATM   34  C   UNL     1     -39.677  50.401 -52.009  1.00  0.00     0.045 A 
HETATM   35 CL   UNL     1     -39.632  49.863 -50.366  1.00  0.00    -0.084 Cl
HETATM   36  C   UNL     1     -39.660  49.421 -53.009  1.00  0.00     0.024 A 
HETATM   37  C   UNL     1     -39.724  49.784 -54.355  1.00  0.00     0.005 A 
HETATM   38  C   UNL     1     -39.805  51.129 -54.699  1.00  0.00     0.043 A 
HETATM   39  C   UNL     1     -39.816  52.098 -53.697  1.00  0.00     0.126 A 
HETATM   40  F   UNL     1     -39.910  53.385 -54.062  1.00  0.00    -0.205 F 
ENDBRANCH  32  33
ENDBRANCH  31  32
ENDBRANCH  27  31
ENDBRANCH  24  25
ENDBRANCH   2  23
TORSDOF 10
ENDMDL
MODEL 2
REMARK VINA RESULT:      -8.4      1.292      1.579
REMARK  10 active torsions:
REMARK  status: ('A' for Active; 'I' for Inactive)
REMARK    1  A    between atoms: N_2  and  C_4 
REMARK    2  A    between atoms: C_4  and  C_5 
REMARK    3  A    between atoms: N_6  and  C_7 
REMARK    4  A    between atoms: C_11  and  N_12 
REMARK    5  A    between atoms: C_15  and  C_16 
REMARK       I    between atoms: C_16  and  N_17 
REMARK    6  A    between atoms: N_17  and  N_18 
REMARK    7  A    between atoms: C_19  and  C_20 
REMARK    8  A    between atoms: C_22  and  O_23 
REMARK    9  A    between atoms: O_23  and  C_24 
REMARK   10  A    between atoms: C_24  and  C_25 
ROOT
HETATM    1  C   UNL     1     -43.151  56.570 -57.317  1.00  0.00     0.293 C 
HETATM    2  N   UNL     1     -43.604  55.647 -56.395  1.00  0.00    -0.242 N 
HETATM    3  O   UNL     1     -42.204  57.343 -57.159  1.00  0.00    -0.264 OA
HETATM    4  H   UNL     1     -44.405  55.054 -56.601  1.00  0.00     0.192 HD
ENDROOT
BRANCH   1   5
HETATM    5  C   UNL     1     -43.901  56.608 -58.565  1.00  0.00     0.170 A 
HETATM    6  C   UNL     1     -45.129  57.227 -58.760  1.00  0.00     0.096 A 
HETATM    7  N   UNL     1     -45.476  56.900 -60.071  1.00  0.00    -0.215 N 
HETATM    8  N   UNL     1     -44.432  56.230 -60.634  1.00  0.00     0.012 NA
HETATM    9  N   UNL     1     -43.493  56.027 -59.725  1.00  0.00    -0.152 NA
BRANCH   6  10
HETATM   10  C   UNL     1     -45.884  58.114 -57.839  1.00  0.00     0.295 C 
BRANCH  10  11
HETATM   11  N   UNL     1     -45.645  59.586 -58.064  1.00  0.00    -0.073 N 
HETATM   12  C   UNL     1     -44.274  59.909 -58.571  1.00  0.00     0.269 C 
HETATM   13  H   UNL     1     -46.339  59.876 -58.785  1.00  0.00     0.279 HD
HETATM   14  C   UNL     1     -45.996  60.404 -56.855  1.00  0.00     0.269 C 
ENDBRANCH  10  11
ENDBRANCH   6  10
BRANCH   7  15
HETATM   15  C   UNL     1     -46.687  57.125 -60.767  1.00  0.00     0.225 A 
HETATM   16  N   UNL     1     -47.544  56.121 -60.969  1.00  0.00    -0.081 NA
HETATM   17  O   UNL     1     -48.582  56.708 -61.697  1.00  0.00    -0.103 OA
HETATM   18  N   UNL     1     -48.326  58.048 -61.942  1.00  0.00    -0.083 NA
HETATM   19  C   UNL     1     -47.152  58.307 -61.370  1.00  0.00     0.201 A 
BRANCH  19  20
HETATM   20  N   UNL     1     -46.548  59.506 -61.384  1.00  0.00    -0.379 N 
HETATM   21  H   UNL     1     -46.644  60.134 -60.591  1.00  0.00     0.158 HD
HETATM   22  H   UNL     1     -46.163  59.935 -62.223  1.00  0.00     0.158 HD
ENDBRANCH  19  20
ENDBRANCH   7  15
ENDBRANCH   1   5
BRANCH   2  23
HETATM   23  N   UNL     1     -42.927  55.503 -55.223  1.00  0.00    -0.184 NA
HETATM   24  C   UNL     1     -43.485  55.999 -54.164  1.00  0.00     0.150 C 
BRANCH  24  25
HETATM   25  C   UNL     1     -42.845  55.871 -52.837  1.00  0.00    -0.014 A 
HETATM   26  C   UNL     1     -42.325  54.636 -52.441  1.00  0.00     0.049 A 
HETATM   27  C   UNL     1     -41.691  54.510 -51.201  1.00  0.00     0.070 A 
HETATM   28  C   UNL     1     -41.606  55.618 -50.353  1.00  0.00     0.037 A 
HETATM   29  C   UNL     1     -42.133  56.849 -50.749  1.00  0.00     0.004 A 
HETATM   30  C   UNL     1     -42.750  56.979 -51.990  1.00  0.00     0.013 A 
BRANCH  27  31
HETATM   31  O   UNL     1     -41.218  53.258 -50.914  1.00  0.00    -0.346 OA
BRANCH  31  32
HETATM   32  C   UNL     1     -39.862  53.000 -51.290  1.00  0.00     0.219 C 
BRANCH  32  33
HETATM   33  C   UNL     1     -39.811  51.827 -52.233  1.00  0.00     0.026 A 
HETATM   34  C   UNL     1     -39.872  51.963 -53.627  1.00  0.00     0.045 A 
HETATM   35 CL   UNL     1     -40.017  53.509 -54.387  1.00  0.00    -0.084 Cl
HETATM   36  C   UNL     1     -39.795  50.839 -54.460  1.00  0.00     0.024 A 
HETATM   37  C   UNL     1     -39.648  49.564 -53.913  1.00  0.00     0.005 A 
HETATM   38  C   UNL     1     -39.578  49.414 -52.532  1.00  0.00     0.043 A 
HETATM   39  C   UNL     1     -39.661  50.537 -51.712  1.00  0.00     0.126 A 
HETATM   40  F   UNL     1     -39.574  50.358 -50.385  1.00  0.00    -0.205 F 
ENDBRANCH  32  33
ENDBRANCH  31  32
ENDBRANCH  27  31
ENDBRANCH  24  25
ENDBRANCH   2  23
TORSDOF 10
ENDMDL
MODEL 3
REMARK VINA RESULT:      -8.1      1.762      2.687
REMARK  10 active torsions:
REMARK  status: ('A' for Active; 'I' for Inactive)
REMARK    1  A    between atoms: N_2  and  C_4 
REMARK    2  A    between atoms: C_4  and  C_5 
REMARK    3  A    between atoms: N_6  and  C_7 
REMARK    4  A    between atoms: C_11  and  N_12 
REMARK    5  A    between atoms: C_15  and  C_16 
REMARK       I    between atoms: C_16  and  N_17 
REMARK    6  A    between atoms: N_17  and  N_18 
REMARK    7  A    between atoms: C_19  and  C_20 
REMARK    8  A    between atoms: C_22  and  O_23 
REMARK    9  A    between atoms: O_23  and  C_24 
REMARK   10  A    between atoms: C_24  and  C_25 
ROOT
HETATM    1  C   UNL     1     -44.360  57.932 -56.525  1.00  0.00     0.293 C 
HETATM    2  N   UNL     1     -44.644  57.222 -55.375  1.00  0.00    -0.242 N 
HETATM    3  O   UNL     1     -43.258  58.383 -56.840  1.00  0.00    -0.264 OA
HETATM    4  H   UNL     1     -45.589  56.896 -55.183  1.00  0.00     0.192 HD
ENDROOT
BRANCH   1   5
HETATM    5  C   UNL     1     -45.500  58.158 -57.403  1.00  0.00     0.170 A 
HETATM    6  C   UNL     1     -45.574  57.816 -58.748  1.00  0.00     0.096 A 
HETATM    7  N   UNL     1     -46.804  58.324 -59.165  1.00  0.00    -0.215 N 
HETATM    8  N   UNL     1     -47.453  58.822 -58.075  1.00  0.00     0.012 NA
HETATM    9  N   UNL     1     -46.662  58.750 -57.017  1.00  0.00    -0.152 NA
BRANCH   6  10
HETATM   10  C   UNL     1     -44.623  57.017 -59.561  1.00  0.00     0.295 C 
BRANCH  10  11
HETATM   11  N   UNL     1     -44.649  55.538 -59.266  1.00  0.00    -0.073 N 
HETATM   12  C   UNL     1     -43.427  55.037 -58.561  1.00  0.00     0.269 C 
HETATM   13  H   UNL     1     -45.471  55.391 -58.642  1.00  0.00     0.279 HD
HETATM   14  C   UNL     1     -44.956  54.726 -60.490  1.00  0.00     0.269 C 
ENDBRANCH  10  11
ENDBRANCH   6  10
BRANCH   7  15
HETATM   15  C   UNL     1     -47.351  58.409 -60.468  1.00  0.00     0.225 A 
HETATM   16  N   UNL     1     -47.609  57.299 -61.162  1.00  0.00    -0.081 NA
HETATM   17  O   UNL     1     -48.101  57.773 -62.381  1.00  0.00    -0.103 OA
HETATM   18  N   UNL     1     -48.111  59.160 -62.411  1.00  0.00    -0.083 NA
HETATM   19  C   UNL     1     -47.644  59.555 -61.228  1.00  0.00     0.201 A 
BRANCH  19  20
HETATM   20  N   UNL     1     -47.495  60.837 -60.860  1.00  0.00    -0.379 N 
HETATM   21  H   UNL     1     -47.058  61.501 -61.493  1.00  0.00     0.158 HD
HETATM   22  H   UNL     1     -47.599  61.166 -59.903  1.00  0.00     0.158 HD
ENDBRANCH  19  20
ENDBRANCH   7  15
ENDBRANCH   1   5
BRANCH   2  23
HETATM   23  N   UNL     1     -43.627  56.915 -54.525  1.00  0.00    -0.184 NA
HETATM   24  C   UNL     1     -43.928  56.814 -53.269  1.00  0.00     0.150 C 
BRANCH  24  25
HETATM   25  C   UNL     1     -42.902  56.456 -52.267  1.00  0.00    -0.014 A 
HETATM   26  C   UNL     1     -42.560  55.114 -52.083  1.00  0.00     0.049 A 
HETATM   27  C   UNL     1     -41.569  54.766 -51.160  1.00  0.00     0.070 A 
HETATM   28  C   UNL     1     -40.944  55.764 -50.407  1.00  0.00     0.037 A 
HETATM   29  C   UNL     1     -41.293  57.104 -50.588  1.00  0.00     0.004 A 
HETATM   30  C   UNL     1     -42.268  57.453 -51.519  1.00  0.00     0.013 A 
BRANCH  27  31
HETATM   31  O   UNL     1     -41.312  53.424 -51.059  1.00  0.00    -0.346 OA
BRANCH  31  32
HETATM   32  C   UNL     1     -39.951  53.032 -51.257  1.00  0.00     0.219 C 
BRANCH  32  33
HETATM   33  C   UNL     1     -39.890  51.891 -52.238  1.00  0.00     0.026 A 
HETATM   34  C   UNL     1     -40.011  52.067 -53.624  1.00  0.00     0.045 A 
HETATM   35 CL   UNL     1     -40.247  53.629 -54.328  1.00  0.00    -0.084 Cl
HETATM   36  C   UNL     1     -39.921  50.974 -54.495  1.00  0.00     0.024 A 
HETATM   37  C   UNL     1     -39.701  49.689 -53.995  1.00  0.00     0.005 A 
HETATM   38  C   UNL     1     -39.572  49.500 -52.624  1.00  0.00     0.043 A 
HETATM   39  C   UNL     1     -39.667  50.593 -51.765  1.00  0.00     0.126 A 
HETATM   40  F   UNL     1     -39.522  50.378 -50.448  1.00  0.00    -0.205 F 
ENDBRANCH  32  33
ENDBRANCH  31  32
ENDBRANCH  27  31
ENDBRANCH  24  25
ENDBRANCH   2  23
TORSDOF 10
ENDMDL
MODEL 4
REMARK VINA RESULT:      -8.1      1.901      2.247
REMARK  10 active torsions:
REMARK  status: ('A' for Active; 'I' for Inactive)
REMARK    1  A    between atoms: N_2  and  C_4 
REMARK    2  A    between atoms: C_4  and  C_5 
REMARK    3  A    between atoms: N_6  and  C_7 
REMARK    4  A    between atoms: C_11  and  N_12 
REMARK    5  A    between atoms: C_15  and  C_16 
REMARK       I    between atoms: C_16  and  N_17 
REMARK    6  A    between atoms: N_17  and  N_18 
REMARK    7  A    between atoms: C_19  and  C_20 
REMARK    8  A    between atoms: C_22  and  O_23 
REMARK    9  A    between atoms: O_23  and  C_24 
REMARK   10  A    between atoms: C_24  and  C_25 
ROOT
HETATM    1  C   UNL     1     -42.697  56.094 -57.181  1.00  0.00     0.293 C 
HETATM    2  N   UNL     1     -41.876  56.721 -56.265  1.00  0.00    -0.242 N 
HETATM    3  O   UNL     1     -43.283  55.024 -57.011  1.00  0.00    -0.264 OA
HETATM    4  H   UNL     1     -41.417  57.600 -56.491  1.00  0.00     0.192 HD
ENDROOT
BRANCH   1   5
HETATM    5  C   UNL     1     -42.838  56.789 -58.453  1.00  0.00     0.170 A 
HETATM    6  C   UNL     1     -43.294  58.091 -58.625  1.00  0.00     0.096 A 
HETATM    7  N   UNL     1     -43.347  58.257 -60.009  1.00  0.00    -0.215 N 
HETATM    8  N   UNL     1     -42.825  57.143 -60.593  1.00  0.00     0.012 NA
HETATM    9  N   UNL     1     -42.542  56.245 -59.664  1.00  0.00    -0.152 NA
BRANCH   6  10
HETATM   10  C   UNL     1     -43.583  59.123 -57.597  1.00  0.00     0.295 C 
BRANCH  10  11
HETATM   11  N   UNL     1     -45.042  59.484 -57.477  1.00  0.00    -0.073 N 
HETATM   12  C   UNL     1     -45.342  60.445 -56.369  1.00  0.00     0.269 C 
HETATM   13  H   UNL     1     -45.295  59.936 -58.381  1.00  0.00     0.279 HD
HETATM   14  C   UNL     1     -45.918  58.267 -57.408  1.00  0.00     0.269 C 
ENDBRANCH  10  11
ENDBRANCH   6  10
BRANCH   7  15
HETATM   15  C   UNL     1     -43.878  59.325 -60.770  1.00  0.00     0.225 A 
HETATM   16  N   UNL     1     -45.195  59.544 -60.794  1.00  0.00    -0.081 NA
HETATM   17  O   UNL     1     -45.337  60.637 -61.653  1.00  0.00    -0.103 OA
HETATM   18  N   UNL     1     -44.109  61.045 -62.151  1.00  0.00    -0.083 NA
HETATM   19  C   UNL     1     -43.206  60.232 -61.608  1.00  0.00     0.201 A 
BRANCH  19  20
HETATM   20  N   UNL     1     -41.885  60.299 -61.842  1.00  0.00    -0.379 N 
HETATM   21  H   UNL     1     -41.494  59.874 -62.678  1.00  0.00     0.158 HD
HETATM   22  H   UNL     1     -41.200  60.567 -61.139  1.00  0.00     0.158 HD
ENDBRANCH  19  20
ENDBRANCH   7  15
ENDBRANCH   1   5
BRANCH   2  23
HETATM   23  N   UNL     1     -41.732  56.171 -55.028  1.00  0.00    -0.184 NA
HETATM   24  C   UNL     1     -41.647  56.994 -54.032  1.00  0.00     0.150 C 
BRANCH  24  25
HETATM   25  C   UNL     1     -41.518  56.499 -52.645  1.00  0.00    -0.014 A 
HETATM   26  C   UNL     1     -41.324  55.134 -52.417  1.00  0.00     0.049 A 
HETATM   27  C   UNL     1     -41.170  54.658 -51.112  1.00  0.00     0.070 A 
HETATM   28  C   UNL     1     -41.238  55.551 -50.038  1.00  0.00     0.037 A 
HETATM   29  C   UNL     1     -41.438  56.913 -50.268  1.00  0.00     0.004 A 
HETATM   30  C   UNL     1     -41.576  57.390 -51.569  1.00  0.00     0.013 A 
BRANCH  27  31
HETATM   31  O   UNL     1     -40.987  53.305 -51.003  1.00  0.00    -0.346 OA
BRANCH  31  32
HETATM   32  C   UNL     1     -39.659  52.834 -51.249  1.00  0.00     0.219 C 
BRANCH  32  33
HETATM   33  C   UNL     1     -39.693  51.738 -52.282  1.00  0.00     0.026 A 
HETATM   34  C   UNL     1     -39.654  50.376 -51.953  1.00  0.00     0.045 A 
HETATM   35 CL   UNL     1     -39.559  49.835 -50.314  1.00  0.00    -0.084 Cl
HETATM   36  C   UNL     1     -39.714  49.396 -52.953  1.00  0.00     0.024 A 
HETATM   37  C   UNL     1     -39.821  49.762 -54.295  1.00  0.00     0.005 A 
HETATM   38  C   UNL     1     -39.868  51.110 -54.636  1.00  0.00     0.043 A 
HETATM   39  C   UNL     1     -39.803  52.077 -53.635  1.00  0.00     0.126 A 
HETATM   40  F   UNL     1     -39.867  53.367 -53.998  1.00  0.00    -0.205 F 
ENDBRANCH  32  33
ENDBRANCH  31  32
ENDBRANCH  27  31
ENDBRANCH  24  25
ENDBRANCH   2  23
TORSDOF 10
ENDMDL
MODEL 5
REMARK VINA RESULT:      -8.0      2.742      4.682
REMARK  10 active torsions:
REMARK  status: ('A' for Active; 'I' for Inactive)
REMARK    1  A    between atoms: N_2  and  C_4 
REMARK    2  A    between atoms: C_4  and  C_5 
REMARK    3  A    between atoms: N_6  and  C_7 
REMARK    4  A    between atoms: C_11  and  N_12 
REMARK    5  A    between atoms: C_15  and  C_16 
REMARK       I    between atoms: C_16  and  N_17 
REMARK    6  A    between atoms: N_17  and  N_18 
REMARK    7  A    between atoms: C_19  and  C_20 
REMARK    8  A    between atoms: C_22  and  O_23 
REMARK    9  A    between atoms: O_23  and  C_24 
REMARK   10  A    between atoms: C_24  and  C_25 
ROOT
HETATM    1  C   UNL     1     -42.821  56.089 -56.784  1.00  0.00     0.293 C 
HETATM    2  N   UNL     1     -41.917  55.067 -56.575  1.00  0.00    -0.242 N 
HETATM    3  O   UNL     1     -43.603  56.543 -55.948  1.00  0.00    -0.264 OA
HETATM    4  H   UNL     1     -41.314  54.741 -57.327  1.00  0.00     0.192 HD
ENDROOT
BRANCH   1   5
HETATM    5  C   UNL     1     -42.826  56.635 -58.134  1.00  0.00     0.170 A 
HETATM    6  C   UNL     1     -42.598  57.963 -58.478  1.00  0.00     0.096 A 
HETATM    7  N   UNL     1     -42.810  58.003 -59.856  1.00  0.00    -0.215 N 
HETATM    8  N   UNL     1     -43.026  56.731 -60.292  1.00  0.00     0.012 NA
HETATM    9  N   UNL     1     -43.064  55.907 -59.258  1.00  0.00    -0.152 NA
BRANCH   6  10
HETATM   10  C   UNL     1     -42.144  59.085 -57.618  1.00  0.00     0.295 C 
BRANCH  10  11
HETATM   11  N   UNL     1     -43.196  59.598 -56.666  1.00  0.00    -0.073 N 
HETATM   12  C   UNL     1     -44.214  60.489 -57.306  1.00  0.00     0.269 C 
HETATM   13  H   UNL     1     -43.683  58.751 -56.303  1.00  0.00     0.279 HD
HETATM   14  C   UNL     1     -42.589  60.233 -55.448  1.00  0.00     0.269 C 
ENDBRANCH  10  11
ENDBRANCH   6  10
BRANCH   7  15
HETATM   15  C   UNL     1     -42.869  59.116 -60.728  1.00  0.00     0.225 A 
HETATM   16  N   UNL     1     -41.745  59.702 -61.147  1.00  0.00    -0.081 NA
HETATM   17  O   UNL     1     -42.194  60.754 -61.949  1.00  0.00    -0.103 OA
HETATM   18  N   UNL     1     -43.580  60.801 -61.983  1.00  0.00    -0.083 NA
HETATM   19  C   UNL     1     -43.998  59.790 -61.224  1.00  0.00     0.201 A 
BRANCH  19  20
HETATM   20  N   UNL     1     -45.288  59.493 -60.999  1.00  0.00    -0.379 N 
HETATM   21  H   UNL     1     -45.562  59.041 -60.131  1.00  0.00     0.158 HD
HETATM   22  H   UNL     1     -46.004  59.495 -61.723  1.00  0.00     0.158 HD
ENDBRANCH  19  20
ENDBRANCH   7  15
ENDBRANCH   1   5
BRANCH   2  23
HETATM   23  N   UNL     1     -41.804  54.536 -55.327  1.00  0.00    -0.184 NA
HETATM   24  C   UNL     1     -40.720  53.873 -55.072  1.00  0.00     0.150 C 
BRANCH  24  25
HETATM   25  C   UNL     1     -40.486  53.281 -53.738  1.00  0.00    -0.014 A 
HETATM   26  C   UNL     1     -41.154  53.804 -52.627  1.00  0.00     0.049 A 
HETATM   27  C   UNL     1     -40.964  53.233 -51.365  1.00  0.00     0.070 A 
HETATM   28  C   UNL     1     -40.084  52.156 -51.219  1.00  0.00     0.037 A 
HETATM   29  C   UNL     1     -39.413  51.641 -52.329  1.00  0.00     0.004 A 
HETATM   30  C   UNL     1     -39.614  52.199 -53.589  1.00  0.00     0.013 A 
BRANCH  27  31
HETATM   31  O   UNL     1     -41.666  53.822 -50.348  1.00  0.00    -0.346 OA
BRANCH  31  32
HETATM   32  C   UNL     1     -41.201  55.109 -49.932  1.00  0.00     0.219 C 
BRANCH  32  33
HETATM   33  C   UNL     1     -42.083  56.181 -50.517  1.00  0.00     0.026 A 
HETATM   34  C   UNL     1     -43.463  56.016 -50.707  1.00  0.00     0.045 A 
HETATM   35 CL   UNL     1     -44.274  54.550 -50.282  1.00  0.00    -0.084 Cl
HETATM   36  C   UNL     1     -44.242  57.055 -51.233  1.00  0.00     0.024 A 
HETATM   37  C   UNL     1     -43.656  58.276 -51.570  1.00  0.00     0.005 A 
HETATM   38  C   UNL     1     -42.290  58.456 -51.381  1.00  0.00     0.043 A 
HETATM   39  C   UNL     1     -41.523  57.416 -50.861  1.00  0.00     0.126 A 
HETATM   40  F   UNL     1     -40.211  57.628 -50.677  1.00  0.00    -0.205 F 
ENDBRANCH  32  33
ENDBRANCH  31  32
ENDBRANCH  27  31
ENDBRANCH  24  25
ENDBRANCH   2  23
TORSDOF 10
ENDMDL
MODEL 6
REMARK VINA RESULT:      -8.0      6.004     10.592
REMARK  10 active torsions:
REMARK  status: ('A' for Active; 'I' for Inactive)
REMARK    1  A    between atoms: N_2  and  C_4 
REMARK    2  A    between atoms: C_4  and  C_5 
REMARK    3  A    between atoms: N_6  and  C_7 
REMARK    4  A    between atoms: C_11  and  N_12 
REMARK    5  A    between atoms: C_15  and  C_16 
REMARK       I    between atoms: C_16  and  N_17 
REMARK    6  A    between atoms: N_17  and  N_18 
REMARK    7  A    between atoms: C_19  and  C_20 
REMARK    8  A    between atoms: C_22  and  O_23 
REMARK    9  A    between atoms: O_23  and  C_24 
REMARK   10  A    between atoms: C_24  and  C_25 
ROOT
HETATM    1  C   UNL     1     -41.898  55.401 -50.985  1.00  0.00     0.293 C 
HETATM    2  N   UNL     1     -41.761  56.525 -51.776  1.00  0.00    -0.242 N 
HETATM    3  O   UNL     1     -42.668  55.279 -50.031  1.00  0.00    -0.264 OA
HETATM    4  H   UNL     1     -41.089  56.548 -52.539  1.00  0.00     0.192 HD
ENDROOT
BRANCH   1   5
HETATM    5  C   UNL     1     -41.021  54.294 -51.338  1.00  0.00     0.170 A 
HETATM    6  C   UNL     1     -41.159  53.464 -52.445  1.00  0.00     0.096 A 
HETATM    7  N   UNL     1     -40.153  52.511 -52.289  1.00  0.00    -0.215 N 
HETATM    8  N   UNL     1     -39.400  52.857 -51.207  1.00  0.00     0.012 NA
HETATM    9  N   UNL     1     -39.933  53.913 -50.615  1.00  0.00    -0.152 NA
BRANCH   6  10
HETATM   10  C   UNL     1     -42.091  53.589 -53.594  1.00  0.00     0.295 C 
BRANCH  10  11
HETATM   11  N   UNL     1     -41.441  54.069 -54.868  1.00  0.00    -0.073 N 
HETATM   12  C   UNL     1     -40.259  54.961 -54.649  1.00  0.00     0.269 C 
HETATM   13  H   UNL     1     -41.117  53.209 -55.359  1.00  0.00     0.279 HD
HETATM   14  C   UNL     1     -42.435  54.687 -55.808  1.00  0.00     0.269 C 
ENDBRANCH  10  11
ENDBRANCH   6  10
BRANCH   7  15
HETATM   15  C   UNL     1     -39.906  51.329 -53.028  1.00  0.00     0.225 A 
HETATM   16  N   UNL     1     -39.997  51.338 -54.359  1.00  0.00    -0.081 NA
HETATM   17  O   UNL     1     -39.720  50.018 -54.723  1.00  0.00    -0.103 OA
HETATM   18  N   UNL     1     -39.488  49.230 -53.605  1.00  0.00    -0.083 NA
HETATM   19  C   UNL     1     -39.607  50.040 -52.555  1.00  0.00     0.201 A 
BRANCH  19  20
HETATM   20  N   UNL     1     -39.455  49.654 -51.278  1.00  0.00    -0.379 N 
HETATM   21  H   UNL     1     -39.303  48.675 -51.057  1.00  0.00     0.158 HD
HETATM   22  H   UNL     1     -39.688  50.241 -50.480  1.00  0.00     0.158 HD
ENDBRANCH  19  20
ENDBRANCH   7  15
ENDBRANCH   1   5
BRANCH   2  23
HETATM   23  N   UNL     1     -42.583  57.587 -51.554  1.00  0.00    -0.184 NA
HETATM   24  C   UNL     1     -43.549  57.762 -52.398  1.00  0.00     0.150 C 
BRANCH  24  25
HETATM   25  C   UNL     1     -44.515  58.869 -52.231  1.00  0.00    -0.014 A 
HETATM   26  C   UNL     1     -44.939  59.223 -50.948  1.00  0.00     0.049 A 
HETATM   27  C   UNL     1     -45.828  60.289 -50.775  1.00  0.00     0.070 A 
HETATM   28  C   UNL     1     -46.308  60.977 -51.893  1.00  0.00     0.037 A 
HETATM   29  C   UNL     1     -45.887  60.616 -53.175  1.00  0.00     0.004 A 
HETATM   30  C   UNL     1     -44.989  59.566 -53.346  1.00  0.00     0.013 A 
BRANCH  27  31
HETATM   31  O   UNL     1     -46.178  60.550 -49.477  1.00  0.00    -0.346 OA
BRANCH  31  32
HETATM   32  C   UNL     1     -45.100  60.612 -48.540  1.00  0.00     0.219 C 
BRANCH  32  33
HETATM   33  C   UNL     1     -45.201  61.880 -47.732  1.00  0.00     0.026 A 
HETATM   34  C   UNL     1     -44.661  63.102 -48.157  1.00  0.00     0.045 A 
HETATM   35 CL   UNL     1     -43.821  63.255 -49.661  1.00  0.00    -0.084 Cl
HETATM   36  C   UNL     1     -44.805  64.257 -47.379  1.00  0.00     0.024 A 
HETATM   37  C   UNL     1     -45.498  64.211 -46.168  1.00  0.00     0.005 A 
HETATM   38  C   UNL     1     -46.045  63.007 -45.737  1.00  0.00     0.043 A 
HETATM   39  C   UNL     1     -45.892  61.862 -46.516  1.00  0.00     0.126 A 
HETATM   40  F   UNL     1     -46.446  60.721 -46.078  1.00  0.00    -0.205 F 
ENDBRANCH  32  33
ENDBRANCH  31  32
ENDBRANCH  27  31
ENDBRANCH  24  25
ENDBRANCH   2  23
TORSDOF 10
ENDMDL
MODEL 7
REMARK VINA RESULT:      -7.9      2.682      3.176
REMARK  10 active torsions:
REMARK  status: ('A' for Active; 'I' for Inactive)
REMARK    1  A    between atoms: N_2  and  C_4 
REMARK    2  A    between atoms: C_4  and  C_5 
REMARK    3  A    between atoms: N_6  and  C_7 
REMARK    4  A    between atoms: C_11  and  N_12 
REMARK    5  A    between atoms: C_15  and  C_16 
REMARK       I    between atoms: C_16  and  N_17 
REMARK    6  A    between atoms: N_17  and  N_18 
REMARK    7  A    between atoms: C_19  and  C_20 
REMARK    8  A    between atoms: C_22  and  O_23 
REMARK    9  A    between atoms: O_23  and  C_24 
REMARK   10  A    between atoms: C_24  and  C_25 
ROOT
HETATM    1  C   UNL     1     -42.859  56.843 -57.716  1.00  0.00     0.293 C 
HETATM    2  N   UNL     1     -42.154  57.201 -56.584  1.00  0.00    -0.242 N 
HETATM    3  O   UNL     1     -43.623  55.882 -57.817  1.00  0.00    -0.264 OA
HETATM    4  H   UNL     1     -41.530  58.004 -56.589  1.00  0.00     0.192 HD
ENDROOT
BRANCH   1   5
HETATM    5  C   UNL     1     -42.631  57.697 -58.874  1.00  0.00     0.170 A 
HETATM    6  C   UNL     1     -43.356  58.837 -59.201  1.00  0.00     0.096 A 
HETATM    7  N   UNL     1     -42.834  59.236 -60.431  1.00  0.00    -0.215 N 
HETATM    8  N   UNL     1     -41.776  58.430 -60.728  1.00  0.00     0.012 NA
HETATM    9  N   UNL     1     -41.666  57.485 -59.808  1.00  0.00    -0.152 NA
BRANCH   6  10
HETATM   10  C   UNL     1     -44.391  59.546 -58.406  1.00  0.00     0.295 C 
BRANCH  10  11
HETATM   11  N   UNL     1     -45.808  59.232 -58.817  1.00  0.00    -0.073 N 
HETATM   12  C   UNL     1     -46.709  60.427 -58.854  1.00  0.00     0.269 C 
HETATM   13  H   UNL     1     -45.740  58.842 -59.780  1.00  0.00     0.279 HD
HETATM   14  C   UNL     1     -46.396  58.119 -58.000  1.00  0.00     0.269 C 
ENDBRANCH  10  11
ENDBRANCH   6  10
BRANCH   7  15
HETATM   15  C   UNL     1     -43.281  60.244 -61.318  1.00  0.00     0.225 A 
HETATM   16  N   UNL     1     -44.570  60.317 -61.657  1.00  0.00    -0.081 NA
HETATM   17  O   UNL     1     -44.622  61.393 -62.547  1.00  0.00    -0.103 OA
HETATM   18  N   UNL     1     -43.362  61.936 -62.749  1.00  0.00    -0.083 NA
HETATM   19  C   UNL     1     -42.531  61.224 -61.991  1.00  0.00     0.201 A 
BRANCH  19  20
HETATM   20  N   UNL     1     -41.208  61.437 -61.907  1.00  0.00    -0.379 N 
HETATM   21  H   UNL     1     -40.833  62.370 -62.051  1.00  0.00     0.158 HD
HETATM   22  H   UNL     1     -40.514  60.692 -61.915  1.00  0.00     0.158 HD
ENDBRANCH  19  20
ENDBRANCH   7  15
ENDBRANCH   1   5
BRANCH   2  23
HETATM   23  N   UNL     1     -42.350  56.492 -55.438  1.00  0.00    -0.184 NA
HETATM   24  C   UNL     1     -42.616  57.175 -54.370  1.00  0.00     0.150 C 
BRANCH  24  25
HETATM   25  C   UNL     1     -42.874  56.500 -53.080  1.00  0.00    -0.014 A 
HETATM   26  C   UNL     1     -42.216  55.303 -52.787  1.00  0.00     0.049 A 
HETATM   27  C   UNL     1     -42.429  54.671 -51.558  1.00  0.00     0.070 A 
HETATM   28  C   UNL     1     -43.320  55.231 -50.639  1.00  0.00     0.037 A 
HETATM   29  C   UNL     1     -43.981  56.424 -50.936  1.00  0.00     0.004 A 
HETATM   30  C   UNL     1     -43.758  57.062 -52.154  1.00  0.00     0.013 A 
BRANCH  27  31
HETATM   31  O   UNL     1     -41.735  53.505 -51.375  1.00  0.00    -0.346 OA
BRANCH  31  32
HETATM   32  C   UNL     1     -40.393  53.492 -51.869  1.00  0.00     0.219 C 
BRANCH  32  33
HETATM   33  C   UNL     1     -40.104  52.165 -52.520  1.00  0.00     0.026 A 
HETATM   34  C   UNL     1     -40.057  51.990 -53.910  1.00  0.00     0.045 A 
HETATM   35 CL   UNL     1     -40.333  53.299 -55.005  1.00  0.00    -0.084 Cl
HETATM   36  C   UNL     1     -39.759  50.738 -54.464  1.00  0.00     0.024 A 
HETATM   37  C   UNL     1     -39.496  49.644 -53.638  1.00  0.00     0.005 A 
HETATM   38  C   UNL     1     -39.531  49.805 -52.257  1.00  0.00     0.043 A 
HETATM   39  C   UNL     1     -39.833  51.053 -51.715  1.00  0.00     0.126 A 
HETATM   40  F   UNL     1     -39.844  51.177 -50.379  1.00  0.00    -0.205 F 
ENDBRANCH  32  33
ENDBRANCH  31  32
ENDBRANCH  27  31
ENDBRANCH  24  25
ENDBRANCH   2  23
TORSDOF 10
ENDMDL
MODEL 8
REMARK VINA RESULT:      -7.8      6.435      8.980
REMARK  10 active torsions:
REMARK  status: ('A' for Active; 'I' for Inactive)
REMARK    1  A    between atoms: N_2  and  C_4 
REMARK    2  A    between atoms: C_4  and  C_5 
REMARK    3  A    between atoms: N_6  and  C_7 
REMARK    4  A    between atoms: C_11  and  N_12 
REMARK    5  A    between atoms: C_15  and  C_16 
REMARK       I    between atoms: C_16  and  N_17 
REMARK    6  A    between atoms: N_17  and  N_18 
REMARK    7  A    between atoms: C_19  and  C_20 
REMARK    8  A    between atoms: C_22  and  O_23 
REMARK    9  A    between atoms: O_23  and  C_24 
REMARK   10  A    between atoms: C_24  and  C_25 
ROOT
HETATM    1  C   UNL     1     -43.536  60.744 -50.212  1.00  0.00     0.293 C 
HETATM    2  N   UNL     1     -44.303  59.819 -50.891  1.00  0.00    -0.242 N 
HETATM    3  O   UNL     1     -42.317  60.685 -50.042  1.00  0.00    -0.264 OA
HETATM    4  H   UNL     1     -45.310  59.937 -50.974  1.00  0.00     0.192 HD
ENDROOT
BRANCH   1   5
HETATM    5  C   UNL     1     -44.279  61.863 -49.651  1.00  0.00     0.170 A 
HETATM    6  C   UNL     1     -45.346  61.771 -48.765  1.00  0.00     0.096 A 
HETATM    7  N   UNL     1     -45.778  63.088 -48.607  1.00  0.00    -0.215 N 
HETATM    8  N   UNL     1     -44.914  63.903 -49.275  1.00  0.00     0.012 NA
HETATM    9  N   UNL     1     -44.027  63.171 -49.928  1.00  0.00    -0.152 NA
BRANCH   6  10
HETATM   10  C   UNL     1     -45.874  60.575 -48.060  1.00  0.00     0.295 C 
BRANCH  10  11
HETATM   11  N   UNL     1     -45.887  60.699 -46.557  1.00  0.00    -0.073 N 
HETATM   12  C   UNL     1     -44.548  61.006 -45.961  1.00  0.00     0.269 C 
HETATM   13  H   UNL     1     -46.529  61.492 -46.346  1.00  0.00     0.279 HD
HETATM   14  C   UNL     1     -46.527  59.511 -45.901  1.00  0.00     0.269 C 
ENDBRANCH  10  11
ENDBRANCH   6  10
BRANCH   7  15
HETATM   15  C   UNL     1     -46.922  63.590 -47.942  1.00  0.00     0.225 A 
HETATM   16  N   UNL     1     -46.984  63.578 -46.609  1.00  0.00    -0.081 NA
HETATM   17  O   UNL     1     -48.244  64.112 -46.327  1.00  0.00    -0.103 OA
HETATM   18  N   UNL     1     -48.929  64.418 -47.493  1.00  0.00    -0.083 NA
HETATM   19  C   UNL     1     -48.114  64.091 -48.493  1.00  0.00     0.201 A 
BRANCH  19  20
HETATM   20  N   UNL     1     -48.412  64.235 -49.795  1.00  0.00    -0.379 N 
HETATM   21  H   UNL     1     -48.835  65.097 -50.127  1.00  0.00     0.158 HD
HETATM   22  H   UNL     1     -48.441  63.462 -50.456  1.00  0.00     0.158 HD
ENDBRANCH  19  20
ENDBRANCH   7  15
ENDBRANCH   1   5
BRANCH   2  23
HETATM   23  N   UNL     1     -43.683  58.770 -51.498  1.00  0.00    -0.184 NA
HETATM   24  C   UNL     1     -44.405  57.717 -51.720  1.00  0.00     0.150 C 
BRANCH  24  25
HETATM   25  C   UNL     1     -43.835  56.535 -52.400  1.00  0.00    -0.014 A 
HETATM   26  C   UNL     1     -43.085  55.613 -51.664  1.00  0.00     0.049 A 
HETATM   27  C   UNL     1     -42.567  54.475 -52.290  1.00  0.00     0.070 A 
HETATM   28  C   UNL     1     -42.781  54.281 -53.657  1.00  0.00     0.037 A 
HETATM   29  C   UNL     1     -43.524  55.206 -54.392  1.00  0.00     0.004 A 
HETATM   30  C   UNL     1     -44.054  56.332 -53.766  1.00  0.00     0.013 A 
BRANCH  27  31
HETATM   31  O   UNL     1     -41.849  53.639 -51.476  1.00  0.00    -0.346 OA
BRANCH  31  32
HETATM   32  C   UNL     1     -40.453  53.533 -51.766  1.00  0.00     0.219 C 
BRANCH  32  33
HETATM   33  C   UNL     1     -40.122  52.115 -52.155  1.00  0.00     0.026 A 
HETATM   34  C   UNL     1     -39.919  51.714 -53.483  1.00  0.00     0.045 A 
HETATM   35 CL   UNL     1     -40.036  52.827 -54.800  1.00  0.00    -0.084 Cl
HETATM   36  C   UNL     1     -39.589  50.387 -53.787  1.00  0.00     0.024 A 
HETATM   37  C   UNL     1     -39.449  49.443 -52.769  1.00  0.00     0.005 A 
HETATM   38  C   UNL     1     -39.640  49.828 -51.446  1.00  0.00     0.043 A 
HETATM   39  C   UNL     1     -39.973  51.149 -51.154  1.00  0.00     0.126 A 
HETATM   40  F   UNL     1     -40.135  51.490 -49.866  1.00  0.00    -0.205 F 
ENDBRANCH  32  33
ENDBRANCH  31  32
ENDBRANCH  27  31
ENDBRANCH  24  25
ENDBRANCH   2  23
TORSDOF 10
ENDMDL
MODEL 9
REMARK VINA RESULT:      -7.7     16.663     19.260
REMARK  10 active torsions:
REMARK  status: ('A' for Active; 'I' for Inactive)
REMARK    1  A    between atoms: N_2  and  C_4 
REMARK    2  A    between atoms: C_4  and  C_5 
REMARK    3  A    between atoms: N_6  and  C_7 
REMARK    4  A    between atoms: C_11  and  N_12 
REMARK    5  A    between atoms: C_15  and  C_16 
REMARK       I    between atoms: C_16  and  N_17 
REMARK    6  A    between atoms: N_17  and  N_18 
REMARK    7  A    between atoms: C_19  and  C_20 
REMARK    8  A    between atoms: C_22  and  O_23 
REMARK    9  A    between atoms: O_23  and  C_24 
REMARK   10  A    between atoms: C_24  and  C_25 
ROOT
HETATM    1  C   UNL     1     -37.803  38.550 -50.767  1.00  0.00     0.293 C 
HETATM    2  N   UNL     1     -37.825  39.791 -51.371  1.00  0.00    -0.242 N 
HETATM    3  O   UNL     1     -37.322  37.522 -51.247  1.00  0.00    -0.264 OA
HETATM    4  H   UNL     1     -38.256  40.589 -50.910  1.00  0.00     0.192 HD
ENDROOT
BRANCH   1   5
HETATM    5  C   UNL     1     -38.432  38.496 -49.455  1.00  0.00     0.170 A 
HETATM    6  C   UNL     1     -39.773  38.230 -49.203  1.00  0.00     0.096 A 
HETATM    7  N   UNL     1     -39.903  38.392 -47.824  1.00  0.00    -0.215 N 
HETATM    8  N   UNL     1     -38.665  38.618 -47.301  1.00  0.00     0.012 NA
HETATM    9  N   UNL     1     -37.780  38.709 -48.280  1.00  0.00    -0.152 NA
BRANCH   6  10
HETATM   10  C   UNL     1     -40.829  37.785 -50.147  1.00  0.00     0.295 C 
BRANCH  10  11
HETATM   11  N   UNL     1     -41.899  38.815 -50.407  1.00  0.00    -0.073 N 
HETATM   12  C   UNL     1     -43.280  38.246 -50.508  1.00  0.00     0.269 C 
HETATM   13  H   UNL     1     -41.870  39.462 -49.591  1.00  0.00     0.279 HD
HETATM   14  C   UNL     1     -41.569  39.683 -51.587  1.00  0.00     0.269 C 
ENDBRANCH  10  11
ENDBRANCH   6  10
BRANCH   7  15
HETATM   15  C   UNL     1     -41.069  38.398 -47.022  1.00  0.00     0.225 A 
HETATM   16  N   UNL     1     -42.053  39.265 -47.272  1.00  0.00    -0.081 NA
HETATM   17  O   UNL     1     -42.998  38.994 -46.280  1.00  0.00    -0.103 OA
HETATM   18  N   UNL     1     -42.561  37.985 -45.435  1.00  0.00    -0.083 NA
HETATM   19  C   UNL     1     -41.366  37.618 -45.891  1.00  0.00     0.201 A 
BRANCH  19  20
HETATM   20  N   UNL     1     -40.604  36.658 -45.341  1.00  0.00    -0.379 N 
HETATM   21  H   UNL     1     -40.970  35.716 -45.236  1.00  0.00     0.158 HD
HETATM   22  H   UNL     1     -39.749  36.845 -44.821  1.00  0.00     0.158 HD
ENDBRANCH  19  20
ENDBRANCH   7  15
ENDBRANCH   1   5
BRANCH   2  23
HETATM   23  N   UNL     1     -37.208  39.946 -52.575  1.00  0.00    -0.184 NA
HETATM   24  C   UNL     1     -36.090  40.600 -52.576  1.00  0.00     0.150 C 
BRANCH  24  25
HETATM   25  C   UNL     1     -35.326  40.799 -53.826  1.00  0.00    -0.014 A 
HETATM   26  C   UNL     1     -35.940  41.424 -54.914  1.00  0.00     0.049 A 
HETATM   27  C   UNL     1     -35.218  41.645 -56.091  1.00  0.00     0.070 A 
HETATM   28  C   UNL     1     -33.891  41.215 -56.180  1.00  0.00     0.037 A 
HETATM   29  C   UNL     1     -33.282  40.585 -55.093  1.00  0.00     0.004 A 
HETATM   30  C   UNL     1     -33.995  40.378 -53.915  1.00  0.00     0.013 A 
BRANCH  27  31
HETATM   31  O   UNL     1     -35.916  42.264 -57.094  1.00  0.00    -0.346 OA
BRANCH  31  32
HETATM   32  C   UNL     1     -37.299  41.915 -57.201  1.00  0.00     0.219 C 
BRANCH  32  33
HETATM   33  C   UNL     1     -37.479  40.881 -58.281  1.00  0.00     0.026 A 
HETATM   34  C   UNL     1     -37.475  41.194 -59.648  1.00  0.00     0.045 A 
HETATM   35 CL   UNL     1     -37.262  42.815 -60.212  1.00  0.00    -0.084 Cl
HETATM   36  C   UNL     1     -37.622  40.189 -60.613  1.00  0.00     0.024 A 
HETATM   37  C   UNL     1     -37.768  38.856 -60.228  1.00  0.00     0.005 A 
HETATM   38  C   UNL     1     -37.767  38.529 -58.876  1.00  0.00     0.043 A 
HETATM   39  C   UNL     1     -37.625  39.536 -57.923  1.00  0.00     0.126 A 
HETATM   40  F   UNL     1     -37.612  39.184 -56.628  1.00  0.00    -0.205 F 
ENDBRANCH  32  33
ENDBRANCH  31  32
ENDBRANCH  27  31
ENDBRANCH  24  25
ENDBRANCH   2  23
TORSDOF 10
ENDMDL
MODEL 10
REMARK VINA RESULT:      -7.4      2.858      3.660
REMARK  10 active torsions:
REMARK  status: ('A' for Active; 'I' for Inactive)
REMARK    1  A    between atoms: N_2  and  C_4 
REMARK    2  A    between atoms: C_4  and  C_5 
REMARK    3  A    between atoms: N_6  and  C_7 
REMARK    4  A    between atoms: C_11  and  N_12 
REMARK    5  A    between atoms: C_15  and  C_16 
REMARK       I    between atoms: C_16  and  N_17 
REMARK    6  A    between atoms: N_17  and  N_18 
REMARK    7  A    between atoms: C_19  and  C_20 
REMARK    8  A    between atoms: C_22  and  O_23 
REMARK    9  A    between atoms: O_23  and  C_24 
REMARK   10  A    between atoms: C_24  and  C_25 
ROOT
HETATM    1  C   UNL     1     -42.288  60.337 -55.653  1.00  0.00     0.293 C 
HETATM    2  N   UNL     1     -41.737  59.092 -55.425  1.00  0.00    -0.242 N 
HETATM    3  O   UNL     1     -42.765  61.083 -54.796  1.00  0.00    -0.264 OA
HETATM    4  H   UNL     1     -41.377  58.532 -56.195  1.00  0.00     0.192 HD
ENDROOT
BRANCH   1   5
HETATM    5  C   UNL     1     -42.303  60.755 -57.048  1.00  0.00     0.170 A 
HETATM    6  C   UNL     1     -43.384  60.661 -57.916  1.00  0.00     0.096 A 
HETATM    7  N   UNL     1     -42.877  61.085 -59.144  1.00  0.00    -0.215 N 
HETATM    8  N   UNL     1     -41.599  61.518 -58.953  1.00  0.00     0.012 NA
HETATM    9  N   UNL     1     -41.239  61.296 -57.699  1.00  0.00    -0.152 NA
BRANCH   6  10
HETATM   10  C   UNL     1     -44.790  60.287 -57.619  1.00  0.00     0.295 C 
BRANCH  10  11
HETATM   11  N   UNL     1     -45.035  58.800 -57.562  1.00  0.00    -0.073 N 
HETATM   12  C   UNL     1     -45.200  58.263 -56.175  1.00  0.00     0.269 C 
HETATM   13  H   UNL     1     -45.923  58.641 -58.084  1.00  0.00     0.279 HD
HETATM   14  C   UNL     1     -44.003  58.031 -58.335  1.00  0.00     0.269 C 
ENDBRANCH  10  11
ENDBRANCH   6  10
BRANCH   7  15
HETATM   15  C   UNL     1     -43.477  61.059 -60.426  1.00  0.00     0.225 A 
HETATM   16  N   UNL     1     -44.727  61.497 -60.593  1.00  0.00    -0.081 NA
HETATM   17  O   UNL     1     -44.975  61.293 -61.952  1.00  0.00    -0.103 OA
HETATM   18  N   UNL     1     -43.881  60.716 -62.579  1.00  0.00    -0.083 NA
HETATM   19  C   UNL     1     -42.954  60.568 -61.635  1.00  0.00     0.201 A 
BRANCH  19  20
HETATM   20  N   UNL     1     -41.737  60.039 -61.841  1.00  0.00    -0.379 N 
HETATM   21  H   UNL     1     -41.352  59.375 -61.175  1.00  0.00     0.158 HD
HETATM   22  H   UNL     1     -41.068  60.406 -62.514  1.00  0.00     0.158 HD
ENDBRANCH  19  20
ENDBRANCH   7  15
ENDBRANCH   1   5
BRANCH   2  23
HETATM   23  N   UNL     1     -41.630  58.646 -54.144  1.00  0.00    -0.184 NA
HETATM   24  C   UNL     1     -41.719  57.366 -53.964  1.00  0.00     0.150 C 
BRANCH  24  25
HETATM   25  C   UNL     1     -41.587  56.777 -52.614  1.00  0.00    -0.014 A 
HETATM   26  C   UNL     1     -41.406  55.398 -52.481  1.00  0.00     0.049 A 
HETATM   27  C   UNL     1     -41.250  54.833 -51.212  1.00  0.00     0.070 A 
HETATM   28  C   UNL     1     -41.302  55.651 -50.080  1.00  0.00     0.037 A 
HETATM   29  C   UNL     1     -41.489  57.028 -50.215  1.00  0.00     0.004 A 
HETATM   30  C   UNL     1     -41.629  57.593 -51.480  1.00  0.00     0.013 A 
BRANCH  27  31
HETATM   31  O   UNL     1     -41.079  53.474 -51.196  1.00  0.00    -0.346 OA
BRANCH  31  32
HETATM   32  C   UNL     1     -39.743  53.010 -51.406  1.00  0.00     0.219 C 
BRANCH  32  33
HETATM   33  C   UNL     1     -39.760  51.802 -52.305  1.00  0.00     0.026 A 
HETATM   34  C   UNL     1     -39.870  51.889 -53.700  1.00  0.00     0.045 A 
HETATM   35 CL   UNL     1     -39.997  53.410 -54.512  1.00  0.00    -0.084 Cl
HETATM   36  C   UNL     1     -39.856  50.734 -54.493  1.00  0.00     0.024 A 
HETATM   37  C   UNL     1     -39.725  49.475 -53.905  1.00  0.00     0.005 A 
HETATM   38  C   UNL     1     -39.609  49.374 -52.523  1.00  0.00     0.043 A 
HETATM   39  C   UNL     1     -39.628  50.528 -51.742  1.00  0.00     0.126 A 
HETATM   40  F   UNL     1     -39.498  50.395 -50.413  1.00  0.00    -0.205 F 
ENDBRANCH  32  33
ENDBRANCH  31  32
ENDBRANCH  27  31
ENDBRANCH  24  25
ENDBRANCH   2  23
TORSDOF 10
ENDMDL
