MODEL 1
REMARK VINA RESULT:      -8.5      0.000      0.000
REMARK  8 active torsions:
REMARK  status: ('A' for Active; 'I' for Inactive)
REMARK    1  A    between atoms: C_10  and  C_11 
REMARK    2  A    between atoms: C_11  and  C_12 
REMARK       I    between atoms: C_12  and  N_13 
REMARK    3  A    between atoms: N_13  and  N_14 
REMARK       I    between atoms: N_14  and  C_15 
REMARK    4  A    between atoms: C_15  and  C_16 
REMARK    5  A    between atoms: C_16  and  C_17 
REMARK    6  A    between atoms: C_17  and  C_18 
REMARK       I    between atoms: C_18  and  N_19 
REMARK    7  A    between atoms: N_19  and  C_20 
REMARK    8  A    between atoms: C_20  and  C_21 
ROOT
HETATM    1  C   UNL     1     -42.500  54.928 -55.853  1.00  0.00     0.240 C 
HETATM    2  N   UNL     1     -42.629  55.441 -57.130  1.00  0.00    -0.267 N 
HETATM    3  O   UNL     1     -43.328  54.154 -55.373  1.00  0.00    -0.272 OA
HETATM    4  H   UNL     1     -41.884  55.944 -57.610  1.00  0.00     0.190 HD
ENDROOT
BRANCH   2   5
HETATM    5  N   UNL     1     -43.718  55.023 -57.899  1.00  0.00    -0.268 N 
HETATM    6  C   UNL     1     -43.727  55.317 -59.244  1.00  0.00     0.236 C 
HETATM    7  O   UNL     1     -42.753  55.778 -59.838  1.00  0.00    -0.272 OA
HETATM    8  H   UNL     1     -44.547  54.729 -57.381  1.00  0.00     0.190 HD
BRANCH   6   9
HETATM    9  C   UNL     1     -45.046  54.995 -59.913  1.00  0.00     0.114 C 
BRANCH   9  10
HETATM   10  C   UNL     1     -45.530  56.126 -60.809  1.00  0.00     0.112 C 
BRANCH  10  11
HETATM   11  C   UNL     1     -45.849  57.356 -59.990  1.00  0.00     0.218 C 
HETATM   12  N   UNL     1     -46.514  57.100 -58.818  1.00  0.00    -0.355 N 
HETATM   13  H   UNL     1     -46.531  56.140 -58.473  1.00  0.00     0.162 HD
HETATM   14  O   UNL     1     -45.506  58.479 -60.345  1.00  0.00    -0.274 OA
BRANCH  12  15
HETATM   15  C   UNL     1     -46.756  58.156 -57.865  1.00  0.00     0.187 C 
BRANCH  15  16
HETATM   16  C   UNL     1     -45.623  58.208 -56.915  1.00  0.00     0.070 A 
HETATM   17  O   UNL     1     -45.850  57.721 -55.660  1.00  0.00    -0.325 OA
HETATM   18  C   UNL     1     -44.694  57.870 -54.963  1.00  0.00     0.142 A 
HETATM   19  C   UNL     1     -43.727  58.449 -55.749  1.00  0.00     0.027 A 
HETATM   20  C   UNL     1     -44.325  58.669 -57.012  1.00  0.00     0.036 A 
ENDBRANCH  15  16
ENDBRANCH  12  15
ENDBRANCH  10  11
ENDBRANCH   9  10
ENDBRANCH   6   9
ENDBRANCH   2   5
BRANCH   1  21
HETATM   21  C   UNL     1     -41.300  55.444 -55.096  1.00  0.00     0.146 C 
BRANCH  21  22
HETATM   22  C   UNL     1     -41.014  54.802 -53.770  1.00  0.00    -0.015 A 
HETATM   23  C   UNL     1     -40.554  53.474 -53.454  1.00  0.00    -0.000 A 
HETATM   24  C   UNL     1     -40.234  52.314 -54.199  1.00  0.00     0.021 A 
HETATM   25  C   UNL     1     -40.410  53.403 -52.068  1.00  0.00     0.043 A 
HETATM   26  C   UNL     1     -39.790  51.146 -53.553  1.00  0.00    -0.061 A 
HETATM   27  C   UNL     1     -39.422  49.930 -54.353  1.00  0.00     0.048 C 
HETATM   28  C   UNL     1     -39.647  51.135 -52.165  1.00  0.00     0.009 A 
HETATM   29  C   UNL     1     -39.961  52.258 -51.398  1.00  0.00     0.031 A 
HETATM   30  N   UNL     1     -40.784  54.618 -51.553  1.00  0.00    -0.359 N 
HETATM   31  H   UNL     1     -40.784  54.840 -50.568  1.00  0.00     0.166 HD
HETATM   32  C   UNL     1     -41.143  55.475 -52.558  1.00  0.00     0.013 A 
HETATM   33  C   UNL     1     -41.581  56.867 -52.266  1.00  0.00     0.068 C 
ENDBRANCH  21  22
ENDBRANCH   1  21
TORSDOF 8
ENDMDL
MODEL 2
REMARK VINA RESULT:      -8.4      1.571      1.902
REMARK  8 active torsions:
REMARK  status: ('A' for Active; 'I' for Inactive)
REMARK    1  A    between atoms: C_10  and  C_11 
REMARK    2  A    between atoms: C_11  and  C_12 
REMARK       I    between atoms: C_12  and  N_13 
REMARK    3  A    between atoms: N_13  and  N_14 
REMARK       I    between atoms: N_14  and  C_15 
REMARK    4  A    between atoms: C_15  and  C_16 
REMARK    5  A    between atoms: C_16  and  C_17 
REMARK    6  A    between atoms: C_17  and  C_18 
REMARK       I    between atoms: C_18  and  N_19 
REMARK    7  A    between atoms: N_19  and  C_20 
REMARK    8  A    between atoms: C_20  and  C_21 
ROOT
HETATM    1  C   UNL     1     -42.590  54.917 -55.931  1.00  0.00     0.240 C 
HETATM    2  N   UNL     1     -42.708  55.373 -57.230  1.00  0.00    -0.267 N 
HETATM    3  O   UNL     1     -43.404  54.138 -55.436  1.00  0.00    -0.272 OA
HETATM    4  H   UNL     1     -41.968  55.879 -57.716  1.00  0.00     0.190 HD
ENDROOT
BRANCH   2   5
HETATM    5  N   UNL     1     -43.768  54.891 -58.002  1.00  0.00    -0.268 N 
HETATM    6  C   UNL     1     -43.765  55.142 -59.356  1.00  0.00     0.236 C 
HETATM    7  O   UNL     1     -42.800  55.620 -59.949  1.00  0.00    -0.272 OA
HETATM    8  H   UNL     1     -44.594  54.582 -57.488  1.00  0.00     0.190 HD
BRANCH   6   9
HETATM    9  C   UNL     1     -45.061  54.750 -60.035  1.00  0.00     0.114 C 
BRANCH   9  10
HETATM   10  C   UNL     1     -45.609  55.861 -60.919  1.00  0.00     0.112 C 
BRANCH  10  11
HETATM   11  C   UNL     1     -45.663  57.168 -60.160  1.00  0.00     0.218 C 
HETATM   12  N   UNL     1     -44.774  58.115 -60.598  1.00  0.00    -0.355 N 
HETATM   13  H   UNL     1     -44.333  57.980 -61.508  1.00  0.00     0.162 HD
HETATM   14  O   UNL     1     -46.465  57.356 -59.250  1.00  0.00    -0.274 OA
BRANCH  12  15
HETATM   15  C   UNL     1     -44.810  59.457 -60.067  1.00  0.00     0.187 C 
BRANCH  15  16
HETATM   16  C   UNL     1     -43.602  59.674 -59.240  1.00  0.00     0.070 A 
HETATM   17  O   UNL     1     -43.196  60.966 -59.074  1.00  0.00    -0.325 OA
HETATM   18  C   UNL     1     -42.082  60.933 -58.297  1.00  0.00     0.142 A 
HETATM   19  C   UNL     1     -41.764  59.638 -57.964  1.00  0.00     0.027 A 
HETATM   20  C   UNL     1     -42.746  58.821 -58.573  1.00  0.00     0.036 A 
ENDBRANCH  15  16
ENDBRANCH  12  15
ENDBRANCH  10  11
ENDBRANCH   9  10
ENDBRANCH   6   9
ENDBRANCH   2   5
BRANCH   1  21
HETATM   21  C   UNL     1     -41.422  55.500 -55.173  1.00  0.00     0.146 C 
BRANCH  21  22
HETATM   22  C   UNL     1     -41.092  54.866 -53.853  1.00  0.00    -0.015 A 
HETATM   23  C   UNL     1     -40.608  53.544 -53.546  1.00  0.00    -0.000 A 
HETATM   24  C   UNL     1     -40.296  52.386 -54.296  1.00  0.00     0.021 A 
HETATM   25  C   UNL     1     -40.425  53.480 -52.164  1.00  0.00     0.043 A 
HETATM   26  C   UNL     1     -39.821  51.225 -53.658  1.00  0.00    -0.061 A 
HETATM   27  C   UNL     1     -39.463  50.010 -54.464  1.00  0.00     0.048 C 
HETATM   28  C   UNL     1     -39.639  51.220 -52.274  1.00  0.00     0.009 A 
HETATM   29  C   UNL     1     -39.945  52.342 -51.504  1.00  0.00     0.031 A 
HETATM   30  N   UNL     1     -40.798  54.693 -51.643  1.00  0.00    -0.359 N 
HETATM   31  H   UNL     1     -40.773  54.919 -50.659  1.00  0.00     0.166 HD
HETATM   32  C   UNL     1     -41.195  55.542 -52.641  1.00  0.00     0.013 A 
HETATM   33  C   UNL     1     -41.639  56.930 -52.341  1.00  0.00     0.068 C 
ENDBRANCH  21  22
ENDBRANCH   1  21
TORSDOF 8
ENDMDL
MODEL 3
REMARK VINA RESULT:      -8.1      1.699      2.663
REMARK  8 active torsions:
REMARK  status: ('A' for Active; 'I' for Inactive)
REMARK    1  A    between atoms: C_10  and  C_11 
REMARK    2  A    between atoms: C_11  and  C_12 
REMARK       I    between atoms: C_12  and  N_13 
REMARK    3  A    between atoms: N_13  and  N_14 
REMARK       I    between atoms: N_14  and  C_15 
REMARK    4  A    between atoms: C_15  and  C_16 
REMARK    5  A    between atoms: C_16  and  C_17 
REMARK    6  A    between atoms: C_17  and  C_18 
REMARK       I    between atoms: C_18  and  N_19 
REMARK    7  A    between atoms: N_19  and  C_20 
REMARK    8  A    between atoms: C_20  and  C_21 
ROOT
HETATM    1  C   UNL     1     -43.083  54.832 -55.132  1.00  0.00     0.240 C 
HETATM    2  N   UNL     1     -42.521  55.885 -55.830  1.00  0.00    -0.267 N 
HETATM    3  O   UNL     1     -43.426  53.789 -55.688  1.00  0.00    -0.272 OA
HETATM    4  H   UNL     1     -42.078  56.684 -55.378  1.00  0.00     0.190 HD
ENDROOT
BRANCH   2   5
HETATM    5  N   UNL     1     -42.306  55.724 -57.201  1.00  0.00    -0.268 N 
HETATM    6  C   UNL     1     -43.216  56.268 -58.080  1.00  0.00     0.236 C 
HETATM    7  O   UNL     1     -44.114  57.032 -57.730  1.00  0.00    -0.272 OA
HETATM    8  H   UNL     1     -41.618  55.019 -57.467  1.00  0.00     0.190 HD
BRANCH   6   9
HETATM    9  C   UNL     1     -42.980  55.847 -59.515  1.00  0.00     0.114 C 
BRANCH   9  10
HETATM   10  C   UNL     1     -43.846  54.662 -59.918  1.00  0.00     0.112 C 
BRANCH  10  11
HETATM   11  C   UNL     1     -45.082  55.130 -60.652  1.00  0.00     0.218 C 
HETATM   12  N   UNL     1     -46.034  55.705 -59.850  1.00  0.00    -0.355 N 
HETATM   13  H   UNL     1     -45.764  55.989 -58.907  1.00  0.00     0.162 HD
HETATM   14  O   UNL     1     -45.192  55.024 -61.870  1.00  0.00    -0.274 OA
BRANCH  12  15
HETATM   15  C   UNL     1     -47.201  56.329 -60.426  1.00  0.00     0.187 C 
BRANCH  15  16
HETATM   16  C   UNL     1     -47.149  57.782 -60.148  1.00  0.00     0.070 A 
HETATM   17  O   UNL     1     -47.134  58.613 -61.230  1.00  0.00    -0.325 OA
HETATM   18  C   UNL     1     -47.080  59.883 -60.752  1.00  0.00     0.142 A 
HETATM   19  C   UNL     1     -47.056  59.881 -59.378  1.00  0.00     0.027 A 
HETATM   20  C   UNL     1     -47.100  58.523 -58.985  1.00  0.00     0.036 A 
ENDBRANCH  15  16
ENDBRANCH  12  15
ENDBRANCH  10  11
ENDBRANCH   9  10
ENDBRANCH   6   9
ENDBRANCH   2   5
BRANCH   1  21
HETATM   21  C   UNL     1     -43.286  55.101 -53.661  1.00  0.00     0.146 C 
BRANCH  21  22
HETATM   22  C   UNL     1     -42.222  54.596 -52.731  1.00  0.00    -0.015 A 
HETATM   23  C   UNL     1     -41.343  53.460 -52.844  1.00  0.00    -0.000 A 
HETATM   24  C   UNL     1     -41.156  52.421 -53.787  1.00  0.00     0.021 A 
HETATM   25  C   UNL     1     -40.513  53.463 -51.723  1.00  0.00     0.043 A 
HETATM   26  C   UNL     1     -40.167  51.441 -53.587  1.00  0.00    -0.061 A 
HETATM   27  C   UNL     1     -39.954  50.360 -54.607  1.00  0.00     0.048 C 
HETATM   28  C   UNL     1     -39.351  51.502 -52.456  1.00  0.00     0.009 A 
HETATM   29  C   UNL     1     -39.514  52.507 -51.503  1.00  0.00     0.031 A 
HETATM   30  N   UNL     1     -40.875  54.535 -50.947  1.00  0.00    -0.359 N 
HETATM   31  H   UNL     1     -40.438  54.771 -50.068  1.00  0.00     0.166 HD
HETATM   32  C   UNL     1     -41.894  55.233 -51.537  1.00  0.00     0.013 A 
HETATM   33  C   UNL     1     -42.465  56.451 -50.901  1.00  0.00     0.068 C 
ENDBRANCH  21  22
ENDBRANCH   1  21
TORSDOF 8
ENDMDL
MODEL 4
REMARK VINA RESULT:      -7.9      2.501      4.867
REMARK  8 active torsions:
REMARK  status: ('A' for Active; 'I' for Inactive)
REMARK    1  A    between atoms: C_10  and  C_11 
REMARK    2  A    between atoms: C_11  and  C_12 
REMARK       I    between atoms: C_12  and  N_13 
REMARK    3  A    between atoms: N_13  and  N_14 
REMARK       I    between atoms: N_14  and  C_15 
REMARK    4  A    between atoms: C_15  and  C_16 
REMARK    5  A    between atoms: C_16  and  C_17 
REMARK    6  A    between atoms: C_17  and  C_18 
REMARK       I    between atoms: C_18  and  N_19 
REMARK    7  A    between atoms: N_19  and  C_20 
REMARK    8  A    between atoms: C_20  and  C_21 
ROOT
HETATM    1  C   UNL     1     -42.068  56.696 -50.951  1.00  0.00     0.240 C 
HETATM    2  N   UNL     1     -41.402  57.752 -51.544  1.00  0.00    -0.267 N 
HETATM    3  O   UNL     1     -43.241  56.433 -51.216  1.00  0.00    -0.272 OA
HETATM    4  H   UNL     1     -40.394  57.890 -51.472  1.00  0.00     0.190 HD
ENDROOT
BRANCH   2   5
HETATM    5  N   UNL     1     -42.086  58.507 -52.501  1.00  0.00    -0.268 N 
HETATM    6  C   UNL     1     -41.358  59.315 -53.346  1.00  0.00     0.236 C 
HETATM    7  O   UNL     1     -40.130  59.281 -53.418  1.00  0.00    -0.272 OA
HETATM    8  H   UNL     1     -43.094  58.593 -52.368  1.00  0.00     0.190 HD
BRANCH   6   9
HETATM    9  C   UNL     1     -42.225  60.227 -54.187  1.00  0.00     0.114 C 
BRANCH   9  10
HETATM   10  C   UNL     1     -42.212  59.842 -55.659  1.00  0.00     0.112 C 
BRANCH  10  11
HETATM   11  C   UNL     1     -42.930  58.529 -55.872  1.00  0.00     0.218 C 
HETATM   12  N   UNL     1     -42.389  57.739 -56.853  1.00  0.00    -0.355 N 
HETATM   13  H   UNL     1     -41.449  57.958 -57.186  1.00  0.00     0.162 HD
HETATM   14  O   UNL     1     -43.899  58.202 -55.192  1.00  0.00    -0.274 OA
BRANCH  12  15
HETATM   15  C   UNL     1     -42.877  56.398 -57.070  1.00  0.00     0.187 C 
BRANCH  15  16
HETATM   16  C   UNL     1     -43.555  56.346 -58.385  1.00  0.00     0.070 A 
HETATM   17  O   UNL     1     -44.579  57.225 -58.583  1.00  0.00    -0.325 OA
HETATM   18  C   UNL     1     -45.054  57.002 -59.836  1.00  0.00     0.142 A 
HETATM   19  C   UNL     1     -44.353  55.990 -60.446  1.00  0.00     0.027 A 
HETATM   20  C   UNL     1     -43.382  55.563 -59.509  1.00  0.00     0.036 A 
ENDBRANCH  15  16
ENDBRANCH  12  15
ENDBRANCH  10  11
ENDBRANCH   9  10
ENDBRANCH   6   9
ENDBRANCH   2   5
BRANCH   1  21
HETATM   21  C   UNL     1     -41.254  55.946 -49.925  1.00  0.00     0.146 C 
BRANCH  21  22
HETATM   22  C   UNL     1     -40.830  54.554 -50.289  1.00  0.00    -0.015 A 
HETATM   23  C   UNL     1     -40.614  53.949 -51.579  1.00  0.00    -0.000 A 
HETATM   24  C   UNL     1     -40.731  54.375 -52.924  1.00  0.00     0.021 A 
HETATM   25  C   UNL     1     -40.187  52.640 -51.358  1.00  0.00     0.043 A 
HETATM   26  C   UNL     1     -40.423  53.501 -53.982  1.00  0.00    -0.061 A 
HETATM   27  C   UNL     1     -40.519  53.969 -55.406  1.00  0.00     0.048 C 
HETATM   28  C   UNL     1     -39.982  52.206 -53.705  1.00  0.00     0.009 A 
HETATM   29  C   UNL     1     -39.864  51.751 -52.391  1.00  0.00     0.031 A 
HETATM   30  N   UNL     1     -40.160  52.440 -50.001  1.00  0.00    -0.359 N 
HETATM   31  H   UNL     1     -39.893  51.571 -49.562  1.00  0.00     0.166 HD
HETATM   32  C   UNL     1     -40.536  53.578 -49.341  1.00  0.00     0.013 A 
HETATM   33  C   UNL     1     -40.580  53.630 -47.854  1.00  0.00     0.068 C 
ENDBRANCH  21  22
ENDBRANCH   1  21
TORSDOF 8
ENDMDL
MODEL 5
REMARK VINA RESULT:      -7.9      3.348      3.922
REMARK  8 active torsions:
REMARK  status: ('A' for Active; 'I' for Inactive)
REMARK    1  A    between atoms: C_10  and  C_11 
REMARK    2  A    between atoms: C_11  and  C_12 
REMARK       I    between atoms: C_12  and  N_13 
REMARK    3  A    between atoms: N_13  and  N_14 
REMARK       I    between atoms: N_14  and  C_15 
REMARK    4  A    between atoms: C_15  and  C_16 
REMARK    5  A    between atoms: C_16  and  C_17 
REMARK    6  A    between atoms: C_17  and  C_18 
REMARK       I    between atoms: C_18  and  N_19 
REMARK    7  A    between atoms: N_19  and  C_20 
REMARK    8  A    between atoms: C_20  and  C_21 
ROOT
HETATM    1  C   UNL     1     -42.695  55.468 -55.703  1.00  0.00     0.240 C 
HETATM    2  N   UNL     1     -43.204  55.274 -56.973  1.00  0.00    -0.267 N 
HETATM    3  O   UNL     1     -41.848  56.328 -55.463  1.00  0.00    -0.272 OA
HETATM    4  H   UNL     1     -44.018  54.692 -57.168  1.00  0.00     0.190 HD
ENDROOT
BRANCH   2   5
HETATM    5  N   UNL     1     -42.760  56.117 -57.995  1.00  0.00    -0.268 N 
HETATM    6  C   UNL     1     -43.183  55.872 -59.283  1.00  0.00     0.236 C 
HETATM    7  O   UNL     1     -44.062  55.057 -59.558  1.00  0.00    -0.272 OA
HETATM    8  H   UNL     1     -41.970  56.721 -57.767  1.00  0.00     0.190 HD
BRANCH   6   9
HETATM    9  C   UNL     1     -42.470  56.722 -60.313  1.00  0.00     0.114 C 
BRANCH   9  10
HETATM   10  C   UNL     1     -41.629  57.817 -59.676  1.00  0.00     0.112 C 
BRANCH  10  11
HETATM   11  C   UNL     1     -42.008  59.171 -60.230  1.00  0.00     0.218 C 
HETATM   12  N   UNL     1     -42.301  60.113 -59.277  1.00  0.00    -0.355 N 
HETATM   13  H   UNL     1     -42.022  59.927 -58.313  1.00  0.00     0.162 HD
HETATM   14  O   UNL     1     -42.018  59.399 -61.437  1.00  0.00    -0.274 OA
BRANCH  12  15
HETATM   15  C   UNL     1     -42.537  61.487 -59.650  1.00  0.00     0.187 C 
BRANCH  15  16
HETATM   16  C   UNL     1     -41.236  62.188 -59.733  1.00  0.00     0.070 A 
HETATM   17  O   UNL     1     -40.817  62.559 -60.978  1.00  0.00    -0.325 OA
HETATM   18  C   UNL     1     -39.615  63.172 -60.824  1.00  0.00     0.142 A 
HETATM   19  C   UNL     1     -39.253  63.197 -59.498  1.00  0.00     0.027 A 
HETATM   20  C   UNL     1     -40.299  62.560 -58.790  1.00  0.00     0.036 A 
ENDBRANCH  15  16
ENDBRANCH  12  15
ENDBRANCH  10  11
ENDBRANCH   9  10
ENDBRANCH   6   9
ENDBRANCH   2   5
BRANCH   1  21
HETATM   21  C   UNL     1     -43.226  54.505 -54.668  1.00  0.00     0.146 C 
BRANCH  21  22
HETATM   22  C   UNL     1     -42.315  54.182 -53.520  1.00  0.00    -0.015 A 
HETATM   23  C   UNL     1     -41.358  53.117 -53.357  1.00  0.00    -0.000 A 
HETATM   24  C   UNL     1     -40.936  52.013 -54.135  1.00  0.00     0.021 A 
HETATM   25  C   UNL     1     -40.745  53.297 -52.116  1.00  0.00     0.043 A 
HETATM   26  C   UNL     1     -39.937  51.143 -53.663  1.00  0.00    -0.061 A 
HETATM   27  C   UNL     1     -39.472  49.992 -54.508  1.00  0.00     0.048 C 
HETATM   28  C   UNL     1     -39.343  51.379 -52.422  1.00  0.00     0.009 A 
HETATM   29  C   UNL     1     -39.741  52.453 -51.625  1.00  0.00     0.031 A 
HETATM   30  N   UNL     1     -41.310  54.403 -51.535  1.00  0.00    -0.359 N 
HETATM   31  H   UNL     1     -41.055  54.757 -50.624  1.00  0.00     0.166 HD
HETATM   32  C   UNL     1     -42.250  54.954 -52.363  1.00  0.00     0.013 A 
HETATM   33  C   UNL     1     -43.005  56.174 -51.971  1.00  0.00     0.068 C 
ENDBRANCH  21  22
ENDBRANCH   1  21
TORSDOF 8
ENDMDL
MODEL 6
REMARK VINA RESULT:      -7.8      1.889      2.387
REMARK  8 active torsions:
REMARK  status: ('A' for Active; 'I' for Inactive)
REMARK    1  A    between atoms: C_10  and  C_11 
REMARK    2  A    between atoms: C_11  and  C_12 
REMARK       I    between atoms: C_12  and  N_13 
REMARK    3  A    between atoms: N_13  and  N_14 
REMARK       I    between atoms: N_14  and  C_15 
REMARK    4  A    between atoms: C_15  and  C_16 
REMARK    5  A    between atoms: C_16  and  C_17 
REMARK    6  A    between atoms: C_17  and  C_18 
REMARK       I    between atoms: C_18  and  N_19 
REMARK    7  A    between atoms: N_19  and  C_20 
REMARK    8  A    between atoms: C_20  and  C_21 
ROOT
HETATM    1  C   UNL     1     -42.642  55.466 -55.660  1.00  0.00     0.240 C 
HETATM    2  N   UNL     1     -43.168  55.214 -56.913  1.00  0.00    -0.267 N 
HETATM    3  O   UNL     1     -41.747  56.293 -55.482  1.00  0.00    -0.272 OA
HETATM    4  H   UNL     1     -44.015  54.666 -57.066  1.00  0.00     0.190 HD
ENDROOT
BRANCH   2   5
HETATM    5  N   UNL     1     -42.685  55.960 -57.991  1.00  0.00    -0.268 N 
HETATM    6  C   UNL     1     -43.193  55.710 -59.247  1.00  0.00     0.236 C 
HETATM    7  O   UNL     1     -44.168  54.986 -59.446  1.00  0.00    -0.272 OA
HETATM    8  H   UNL     1     -41.824  56.482 -57.826  1.00  0.00     0.190 HD
BRANCH   6   9
HETATM    9  C   UNL     1     -42.443  56.432 -60.345  1.00  0.00     0.114 C 
BRANCH   9  10
HETATM   10  C   UNL     1     -41.880  57.767 -59.878  1.00  0.00     0.112 C 
BRANCH  10  11
HETATM   11  C   UNL     1     -42.935  58.846 -59.952  1.00  0.00     0.218 C 
HETATM   12  N   UNL     1     -44.082  58.474 -60.604  1.00  0.00    -0.355 N 
HETATM   13  H   UNL     1     -44.243  57.479 -60.770  1.00  0.00     0.162 HD
HETATM   14  O   UNL     1     -42.773  59.949 -59.438  1.00  0.00    -0.274 OA
BRANCH  12  15
HETATM   15  C   UNL     1     -45.232  59.347 -60.627  1.00  0.00     0.187 C 
BRANCH  15  16
HETATM   16  C   UNL     1     -46.108  59.008 -59.483  1.00  0.00     0.070 A 
HETATM   17  O   UNL     1     -47.014  59.955 -59.102  1.00  0.00    -0.325 OA
HETATM   18  C   UNL     1     -47.699  59.445 -58.047  1.00  0.00     0.142 A 
HETATM   19  C   UNL     1     -47.246  58.184 -57.741  1.00  0.00     0.027 A 
HETATM   20  C   UNL     1     -46.216  57.899 -58.668  1.00  0.00     0.036 A 
ENDBRANCH  15  16
ENDBRANCH  12  15
ENDBRANCH  10  11
ENDBRANCH   9  10
ENDBRANCH   6   9
ENDBRANCH   2   5
BRANCH   1  21
HETATM   21  C   UNL     1     -43.218  54.607 -54.561  1.00  0.00     0.146 C 
BRANCH  21  22
HETATM   22  C   UNL     1     -42.296  54.251 -53.432  1.00  0.00    -0.015 A 
HETATM   23  C   UNL     1     -41.351  53.171 -53.301  1.00  0.00    -0.000 A 
HETATM   24  C   UNL     1     -40.955  52.076 -54.105  1.00  0.00     0.021 A 
HETATM   25  C   UNL     1     -40.719  53.320 -52.067  1.00  0.00     0.043 A 
HETATM   26  C   UNL     1     -39.961  51.184 -53.663  1.00  0.00    -0.061 A 
HETATM   27  C   UNL     1     -39.523  50.042 -54.535  1.00  0.00     0.048 C 
HETATM   28  C   UNL     1     -39.347  51.389 -52.426  1.00  0.00     0.009 A 
HETATM   29  C   UNL     1     -39.719  52.454 -51.605  1.00  0.00     0.031 A 
HETATM   30  N   UNL     1     -41.261  54.423 -51.457  1.00  0.00    -0.359 N 
HETATM   31  H   UNL     1     -40.989  54.757 -50.544  1.00  0.00     0.166 HD
HETATM   32  C   UNL     1     -42.205  55.001 -52.263  1.00  0.00     0.013 A 
HETATM   33  C   UNL     1     -42.938  56.223 -51.838  1.00  0.00     0.068 C 
ENDBRANCH  21  22
ENDBRANCH   1  21
TORSDOF 8
ENDMDL
MODEL 7
REMARK VINA RESULT:      -7.8      1.387      3.192
REMARK  8 active torsions:
REMARK  status: ('A' for Active; 'I' for Inactive)
REMARK    1  A    between atoms: C_10  and  C_11 
REMARK    2  A    between atoms: C_11  and  C_12 
REMARK       I    between atoms: C_12  and  N_13 
REMARK    3  A    between atoms: N_13  and  N_14 
REMARK       I    between atoms: N_14  and  C_15 
REMARK    4  A    between atoms: C_15  and  C_16 
REMARK    5  A    between atoms: C_16  and  C_17 
REMARK    6  A    between atoms: C_17  and  C_18 
REMARK       I    between atoms: C_18  and  N_19 
REMARK    7  A    between atoms: N_19  and  C_20 
REMARK    8  A    between atoms: C_20  and  C_21 
ROOT
HETATM    1  C   UNL     1     -42.185  54.552 -55.837  1.00  0.00     0.240 C 
HETATM    2  N   UNL     1     -42.237  55.423 -56.910  1.00  0.00    -0.267 N 
HETATM    3  O   UNL     1     -43.193  54.003 -55.394  1.00  0.00    -0.272 OA
HETATM    4  H   UNL     1     -41.407  55.757 -57.400  1.00  0.00     0.190 HD
ENDROOT
BRANCH   2   5
HETATM    5  N   UNL     1     -43.474  55.641 -57.520  1.00  0.00    -0.268 N 
HETATM    6  C   UNL     1     -43.504  55.913 -58.871  1.00  0.00     0.236 C 
HETATM    7  O   UNL     1     -42.519  55.806 -59.600  1.00  0.00    -0.272 OA
HETATM    8  H   UNL     1     -44.260  55.815 -56.893  1.00  0.00     0.190 HD
BRANCH   6   9
HETATM    9  C   UNL     1     -44.874  56.331 -59.361  1.00  0.00     0.114 C 
BRANCH   9  10
HETATM   10  C   UNL     1     -44.864  57.721 -59.982  1.00  0.00     0.112 C 
BRANCH  10  11
HETATM   11  C   UNL     1     -44.312  58.736 -59.008  1.00  0.00     0.218 C 
HETATM   12  N   UNL     1     -44.992  58.811 -57.820  1.00  0.00    -0.355 N 
HETATM   13  H   UNL     1     -45.634  58.054 -57.582  1.00  0.00     0.162 HD
HETATM   14  O   UNL     1     -43.316  59.407 -59.265  1.00  0.00    -0.274 OA
BRANCH  12  15
HETATM   15  C   UNL     1     -44.496  59.628 -56.739  1.00  0.00     0.187 C 
BRANCH  15  16
HETATM   16  C   UNL     1     -44.566  58.849 -55.483  1.00  0.00     0.070 A 
HETATM   17  O   UNL     1     -44.480  57.492 -55.597  1.00  0.00    -0.325 OA
HETATM   18  C   UNL     1     -44.571  56.983 -54.341  1.00  0.00     0.142 A 
HETATM   19  C   UNL     1     -44.719  57.993 -53.421  1.00  0.00     0.027 A 
HETATM   20  C   UNL     1     -44.717  59.201 -54.157  1.00  0.00     0.036 A 
ENDBRANCH  15  16
ENDBRANCH  12  15
ENDBRANCH  10  11
ENDBRANCH   9  10
ENDBRANCH   6   9
ENDBRANCH   2   5
BRANCH   1  21
HETATM   21  C   UNL     1     -40.810  54.387 -55.238  1.00  0.00     0.146 C 
BRANCH  21  22
HETATM   22  C   UNL     1     -40.747  54.105 -53.765  1.00  0.00    -0.015 A 
HETATM   23  C   UNL     1     -40.984  54.969 -52.637  1.00  0.00    -0.000 A 
HETATM   24  C   UNL     1     -41.318  56.333 -52.465  1.00  0.00     0.021 A 
HETATM   25  C   UNL     1     -40.833  54.198 -51.484  1.00  0.00     0.043 A 
HETATM   26  C   UNL     1     -41.489  56.873 -51.177  1.00  0.00    -0.061 A 
HETATM   27  C   UNL     1     -41.874  58.314 -51.004  1.00  0.00     0.048 C 
HETATM   28  C   UNL     1     -41.344  56.053 -50.057  1.00  0.00     0.009 A 
HETATM   29  C   UNL     1     -41.007  54.705 -50.191  1.00  0.00     0.031 A 
HETATM   30  N   UNL     1     -40.499  52.928 -51.880  1.00  0.00    -0.359 N 
HETATM   31  H   UNL     1     -40.323  52.163 -51.244  1.00  0.00     0.166 HD
HETATM   32  C   UNL     1     -40.449  52.848 -53.246  1.00  0.00     0.013 A 
HETATM   33  C   UNL     1     -40.118  51.571 -53.933  1.00  0.00     0.068 C 
ENDBRANCH  21  22
ENDBRANCH   1  21
TORSDOF 8
ENDMDL
MODEL 8
REMARK VINA RESULT:      -7.8      2.029      3.692
REMARK  8 active torsions:
REMARK  status: ('A' for Active; 'I' for Inactive)
REMARK    1  A    between atoms: C_10  and  C_11 
REMARK    2  A    between atoms: C_11  and  C_12 
REMARK       I    between atoms: C_12  and  N_13 
REMARK    3  A    between atoms: N_13  and  N_14 
REMARK       I    between atoms: N_14  and  C_15 
REMARK    4  A    between atoms: C_15  and  C_16 
REMARK    5  A    between atoms: C_16  and  C_17 
REMARK    6  A    between atoms: C_17  and  C_18 
REMARK       I    between atoms: C_18  and  N_19 
REMARK    7  A    between atoms: N_19  and  C_20 
REMARK    8  A    between atoms: C_20  and  C_21 
ROOT
HETATM    1  C   UNL     1     -42.994  55.661 -55.348  1.00  0.00     0.240 C 
HETATM    2  N   UNL     1     -43.897  56.705 -55.423  1.00  0.00    -0.267 N 
HETATM    3  O   UNL     1     -41.971  55.632 -56.032  1.00  0.00    -0.272 OA
HETATM    4  H   UNL     1     -44.657  56.838 -54.756  1.00  0.00     0.190 HD
ENDROOT
BRANCH   2   5
HETATM    5  N   UNL     1     -43.600  57.770 -56.277  1.00  0.00    -0.268 N 
HETATM    6  C   UNL     1     -43.112  58.937 -55.732  1.00  0.00     0.236 C 
HETATM    7  O   UNL     1     -42.763  59.035 -54.556  1.00  0.00    -0.272 OA
HETATM    8  H   UNL     1     -43.978  57.705 -57.223  1.00  0.00     0.190 HD
BRANCH   6   9
HETATM    9  C   UNL     1     -43.031  60.071 -56.732  1.00  0.00     0.114 C 
BRANCH   9  10
HETATM   10  C   UNL     1     -41.820  59.949 -57.645  1.00  0.00     0.112 C 
BRANCH  10  11
HETATM   11  C   UNL     1     -42.243  59.550 -59.040  1.00  0.00     0.218 C 
HETATM   12  N   UNL     1     -42.326  58.197 -59.243  1.00  0.00    -0.355 N 
HETATM   13  H   UNL     1     -42.339  57.586 -58.425  1.00  0.00     0.162 HD
HETATM   14  O   UNL     1     -42.515  60.385 -59.899  1.00  0.00    -0.274 OA
BRANCH  12  15
HETATM   15  C   UNL     1     -42.856  57.669 -60.477  1.00  0.00     0.187 C 
BRANCH  15  16
HETATM   16  C   UNL     1     -43.536  56.386 -60.193  1.00  0.00     0.070 A 
HETATM   17  O   UNL     1     -44.346  55.890 -61.173  1.00  0.00    -0.325 OA
HETATM   18  C   UNL     1     -44.866  54.726 -60.705  1.00  0.00     0.142 A 
HETATM   19  C   UNL     1     -44.405  54.467 -59.436  1.00  0.00     0.027 A 
HETATM   20  C   UNL     1     -43.545  55.540 -59.102  1.00  0.00     0.036 A 
ENDBRANCH  15  16
ENDBRANCH  12  15
ENDBRANCH  10  11
ENDBRANCH   9  10
ENDBRANCH   6   9
ENDBRANCH   2   5
BRANCH   1  21
HETATM   21  C   UNL     1     -43.404  54.553 -54.407  1.00  0.00     0.146 C 
BRANCH  21  22
HETATM   22  C   UNL     1     -42.438  54.211 -53.311  1.00  0.00    -0.015 A 
HETATM   23  C   UNL     1     -41.449  53.166 -53.228  1.00  0.00    -0.000 A 
HETATM   24  C   UNL     1     -41.032  52.105 -54.065  1.00  0.00     0.021 A 
HETATM   25  C   UNL     1     -40.789  53.315 -52.008  1.00  0.00     0.043 A 
HETATM   26  C   UNL     1     -39.993  51.243 -53.669  1.00  0.00    -0.061 A 
HETATM   27  C   UNL     1     -39.535  50.138 -54.576  1.00  0.00     0.048 C 
HETATM   28  C   UNL     1     -39.354  51.448 -52.445  1.00  0.00     0.009 A 
HETATM   29  C   UNL     1     -39.745  52.480 -51.591  1.00  0.00     0.031 A 
HETATM   30  N   UNL     1     -41.357  54.383 -51.361  1.00  0.00    -0.359 N 
HETATM   31  H   UNL     1     -41.074  54.708 -50.448  1.00  0.00     0.166 HD
HETATM   32  C   UNL     1     -42.344  54.940 -52.128  1.00  0.00     0.013 A 
HETATM   33  C   UNL     1     -43.113  56.124 -51.658  1.00  0.00     0.068 C 
ENDBRANCH  21  22
ENDBRANCH   1  21
TORSDOF 8
ENDMDL
MODEL 9
REMARK VINA RESULT:      -7.7      1.895      4.412
REMARK  8 active torsions:
REMARK  status: ('A' for Active; 'I' for Inactive)
REMARK    1  A    between atoms: C_10  and  C_11 
REMARK    2  A    between atoms: C_11  and  C_12 
REMARK       I    between atoms: C_12  and  N_13 
REMARK    3  A    between atoms: N_13  and  N_14 
REMARK       I    between atoms: N_14  and  C_15 
REMARK    4  A    between atoms: C_15  and  C_16 
REMARK    5  A    between atoms: C_16  and  C_17 
REMARK    6  A    between atoms: C_17  and  C_18 
REMARK       I    between atoms: C_18  and  N_19 
REMARK    7  A    between atoms: N_19  and  C_20 
REMARK    8  A    between atoms: C_20  and  C_21 
ROOT
HETATM    1  C   UNL     1     -41.476  54.153 -55.156  1.00  0.00     0.240 C 
HETATM    2  N   UNL     1     -41.033  55.346 -55.695  1.00  0.00    -0.267 N 
HETATM    3  O   UNL     1     -42.667  53.942 -54.928  1.00  0.00    -0.272 OA
HETATM    4  H   UNL     1     -40.086  55.484 -56.048  1.00  0.00     0.190 HD
ENDROOT
BRANCH   2   5
HETATM    5  N   UNL     1     -41.986  56.313 -56.023  1.00  0.00    -0.268 N 
HETATM    6  C   UNL     1     -42.194  57.357 -55.148  1.00  0.00     0.236 C 
HETATM    7  O   UNL     1     -41.469  57.576 -54.178  1.00  0.00    -0.272 OA
HETATM    8  H   UNL     1     -42.634  56.070 -56.773  1.00  0.00     0.190 HD
BRANCH   6   9
HETATM    9  C   UNL     1     -43.388  58.211 -55.516  1.00  0.00     0.114 C 
BRANCH   9  10
HETATM   10  C   UNL     1     -43.009  59.368 -56.430  1.00  0.00     0.112 C 
BRANCH  10  11
HETATM   11  C   UNL     1     -42.786  58.880 -57.843  1.00  0.00     0.218 C 
HETATM   12  N   UNL     1     -43.931  58.753 -58.587  1.00  0.00    -0.355 N 
HETATM   13  H   UNL     1     -44.781  59.203 -58.246  1.00  0.00     0.162 HD
HETATM   14  O   UNL     1     -41.662  58.650 -58.280  1.00  0.00    -0.274 OA
BRANCH  12  15
HETATM   15  C   UNL     1     -43.863  58.437 -59.994  1.00  0.00     0.187 C 
BRANCH  15  16
HETATM   16  C   UNL     1     -44.674  57.226 -60.249  1.00  0.00     0.070 A 
HETATM   17  O   UNL     1     -44.052  56.193 -60.888  1.00  0.00    -0.325 OA
HETATM   18  C   UNL     1     -44.970  55.202 -61.023  1.00  0.00     0.142 A 
HETATM   19  C   UNL     1     -46.175  55.583 -60.484  1.00  0.00     0.027 A 
HETATM   20  C   UNL     1     -45.987  56.893 -59.984  1.00  0.00     0.036 A 
ENDBRANCH  15  16
ENDBRANCH  12  15
ENDBRANCH  10  11
ENDBRANCH   9  10
ENDBRANCH   6   9
ENDBRANCH   2   5
BRANCH   1  21
HETATM   21  C   UNL     1     -40.375  53.174 -54.826  1.00  0.00     0.146 C 
BRANCH  21  22
HETATM   22  C   UNL     1     -40.234  52.780 -53.385  1.00  0.00    -0.015 A 
HETATM   23  C   UNL     1     -40.450  53.542 -52.182  1.00  0.00    -0.000 A 
HETATM   24  C   UNL     1     -40.826  54.874 -51.886  1.00  0.00     0.021 A 
HETATM   25  C   UNL     1     -40.218  52.689 -51.103  1.00  0.00     0.043 A 
HETATM   26  C   UNL     1     -40.957  55.303 -50.553  1.00  0.00    -0.061 A 
HETATM   27  C   UNL     1     -41.388  56.709 -50.248  1.00  0.00     0.048 C 
HETATM   28  C   UNL     1     -40.731  54.403 -49.510  1.00  0.00     0.009 A 
HETATM   29  C   UNL     1     -40.350  53.085 -49.766  1.00  0.00     0.031 A 
HETATM   30  N   UNL     1     -39.856  51.469 -51.614  1.00  0.00    -0.359 N 
HETATM   31  H   UNL     1     -39.623  50.664 -51.049  1.00  0.00     0.166 HD
HETATM   32  C   UNL     1     -39.866  51.499 -52.982  1.00  0.00     0.013 A 
HETATM   33  C   UNL     1     -39.520  50.295 -53.784  1.00  0.00     0.068 C 
ENDBRANCH  21  22
ENDBRANCH   1  21
TORSDOF 8
ENDMDL
MODEL 10
REMARK VINA RESULT:      -7.7      2.351      3.998
REMARK  8 active torsions:
REMARK  status: ('A' for Active; 'I' for Inactive)
REMARK    1  A    between atoms: C_10  and  C_11 
REMARK    2  A    between atoms: C_11  and  C_12 
REMARK       I    between atoms: C_12  and  N_13 
REMARK    3  A    between atoms: N_13  and  N_14 
REMARK       I    between atoms: N_14  and  C_15 
REMARK    4  A    between atoms: C_15  and  C_16 
REMARK    5  A    between atoms: C_16  and  C_17 
REMARK    6  A    between atoms: C_17  and  C_18 
REMARK       I    between atoms: C_18  and  N_19 
REMARK    7  A    between atoms: N_19  and  C_20 
REMARK    8  A    between atoms: C_20  and  C_21 
ROOT
HETATM    1  C   UNL     1     -41.701  54.317 -55.179  1.00  0.00     0.240 C 
HETATM    2  N   UNL     1     -41.300  55.422 -55.906  1.00  0.00    -0.267 N 
HETATM    3  O   UNL     1     -42.835  54.221 -54.709  1.00  0.00    -0.272 OA
HETATM    4  H   UNL     1     -40.435  55.455 -56.444  1.00  0.00     0.190 HD
ENDROOT
BRANCH   2   5
HETATM    5  N   UNL     1     -42.238  56.431 -56.138  1.00  0.00    -0.268 N 
HETATM    6  C   UNL     1     -42.865  56.479 -57.364  1.00  0.00     0.236 C 
HETATM    7  O   UNL     1     -42.771  55.584 -58.202  1.00  0.00    -0.272 OA
HETATM    8  H   UNL     1     -42.235  57.208 -55.476  1.00  0.00     0.190 HD
BRANCH   6   9
HETATM    9  C   UNL     1     -43.694  57.730 -57.558  1.00  0.00     0.114 C 
BRANCH   9  10
HETATM   10  C   UNL     1     -42.833  58.972 -57.737  1.00  0.00     0.112 C 
BRANCH  10  11
HETATM   11  C   UNL     1     -42.707  59.726 -56.433  1.00  0.00     0.218 C 
HETATM   12  N   UNL     1     -43.794  59.612 -55.605  1.00  0.00    -0.355 N 
HETATM   13  H   UNL     1     -44.471  58.873 -55.796  1.00  0.00     0.162 HD
HETATM   14  O   UNL     1     -41.695  60.357 -56.143  1.00  0.00    -0.274 OA
BRANCH  12  15
HETATM   15  C   UNL     1     -43.759  60.155 -54.268  1.00  0.00     0.187 C 
BRANCH  15  16
HETATM   16  C   UNL     1     -44.030  59.064 -53.305  1.00  0.00     0.070 A 
HETATM   17  O   UNL     1     -43.695  57.801 -53.697  1.00  0.00    -0.325 OA
HETATM   18  C   UNL     1     -44.030  56.968 -52.678  1.00  0.00     0.142 A 
HETATM   19  C   UNL     1     -44.580  57.676 -51.637  1.00  0.00     0.027 A 
HETATM   20  C   UNL     1     -44.582  59.033 -52.039  1.00  0.00     0.036 A 
ENDBRANCH  15  16
ENDBRANCH  12  15
ENDBRANCH  10  11
ENDBRANCH   9  10
ENDBRANCH   6   9
ENDBRANCH   2   5
BRANCH   1  21
HETATM   21  C   UNL     1     -40.619  53.285 -54.971  1.00  0.00     0.146 C 
BRANCH  21  22
HETATM   22  C   UNL     1     -40.359  52.857 -53.556  1.00  0.00    -0.015 A 
HETATM   23  C   UNL     1     -40.491  53.585 -52.320  1.00  0.00    -0.000 A 
HETATM   24  C   UNL     1     -40.862  54.903 -51.961  1.00  0.00     0.021 A 
HETATM   25  C   UNL     1     -40.163  52.709 -51.285  1.00  0.00     0.043 A 
HETATM   26  C   UNL     1     -40.894  55.296 -50.610  1.00  0.00    -0.061 A 
HETATM   27  C   UNL     1     -41.319  56.687 -50.235  1.00  0.00     0.048 C 
HETATM   28  C   UNL     1     -40.574  54.374 -49.613  1.00  0.00     0.009 A 
HETATM   29  C   UNL     1     -40.196  53.069 -49.932  1.00  0.00     0.031 A 
HETATM   30  N   UNL     1     -39.825  51.508 -51.855  1.00  0.00    -0.359 N 
HETATM   31  H   UNL     1     -39.537  50.693 -51.332  1.00  0.00     0.166 HD
HETATM   32  C   UNL     1     -39.943  51.573 -53.217  1.00  0.00     0.013 A 
HETATM   33  C   UNL     1     -39.644  50.395 -54.075  1.00  0.00     0.068 C 
ENDBRANCH  21  22
ENDBRANCH   1  21
TORSDOF 8
ENDMDL
