MODEL 1
REMARK VINA RESULT:      -8.1      0.000      0.000
REMARK  3 active torsions:
REMARK  status: ('A' for Active; 'I' for Inactive)
REMARK    1  A    between atoms: C_2  and  N_3 
REMARK       I    between atoms: N_3  and  C_4 
REMARK    2  A    between atoms: C_4  and  C_5 
REMARK    3  A    between atoms: C_5  and  C_6 
ROOT
HETATM    1  C   UNL     1     -42.826  55.079 -51.765  1.00  0.00     0.286 C 
HETATM    2  N   UNL     1     -41.712  55.946 -52.337  1.00  0.00    -0.056 N 
HETATM    3  H   UNL     1     -41.162  56.277 -51.516  1.00  0.00     0.278 HD
HETATM    4  H   UNL     1     -41.068  55.383 -52.904  1.00  0.00     0.278 HD
HETATM    5  C   UNL     1     -42.247  57.120 -53.119  1.00  0.00     0.209 C 
HETATM    6  C   UNL     1     -43.149  57.979 -52.194  1.00  0.00     0.115 C 
HETATM    7  N   UNL     1     -44.139  57.171 -51.479  1.00  0.00    -0.353 N 
HETATM    8  C   UNL     1     -43.906  55.895 -51.022  1.00  0.00     0.249 C 
HETATM    9  O   UNL     1     -44.612  55.417 -50.143  1.00  0.00    -0.271 OA
HETATM   10  C   UNL     1     -41.079  57.907 -53.713  1.00  0.00     0.035 C 
HETATM   11  C   UNL     1     -40.305  58.714 -52.675  1.00  0.00     0.002 C 
HETATM   12  C   UNL     1     -41.232  59.611 -51.864  1.00  0.00     0.002 C 
HETATM   13  C   UNL     1     -42.338  58.808 -51.188  1.00  0.00     0.027 C 
HETATM   14  H   UNL     1     -44.871  57.656 -50.965  1.00  0.00     0.163 HD
ENDROOT
BRANCH   1  15
HETATM   15  C   UNL     1     -42.270  53.949 -50.887  1.00  0.00     0.146 C 
BRANCH  15  16
HETATM   16  C   UNL     1     -40.805  54.155 -50.601  1.00  0.00     0.224 C 
HETATM   17  N   UNL     1     -39.836  53.357 -51.117  1.00  0.00    -0.327 N 
HETATM   18  H   UNL     1     -38.924  53.588 -50.731  1.00  0.00     0.169 HD
HETATM   19  O   UNL     1     -40.475  55.119 -49.895  1.00  0.00    -0.273 OA
BRANCH  17  20
HETATM   20  C   UNL     1     -39.833  52.290 -52.038  1.00  0.00     0.034 A 
HETATM   21  C   UNL     1     -39.550  50.956 -51.737  1.00  0.00     0.032 A 
HETATM   22  C   UNL     1     -39.583  49.978 -52.740  1.00  0.00     0.044 A 
HETATM   23  C   UNL     1     -39.911  50.330 -54.042  1.00  0.00     0.116 A 
HETATM   24  C   UNL     1     -40.214  51.643 -54.361  1.00  0.00     0.044 A 
HETATM   25  F   UNL     1     -39.942  49.390 -54.993  1.00  0.00    -0.206 F 
HETATM   26  C   UNL     1     -40.180  52.618 -53.361  1.00  0.00     0.032 A 
ENDBRANCH  17  20
ENDBRANCH  15  16
ENDBRANCH   1  15
TORSDOF 3
ENDMDL
MODEL 2
REMARK VINA RESULT:      -7.9      2.190      2.607
REMARK  3 active torsions:
REMARK  status: ('A' for Active; 'I' for Inactive)
REMARK    1  A    between atoms: C_2  and  N_3 
REMARK       I    between atoms: N_3  and  C_4 
REMARK    2  A    between atoms: C_4  and  C_5 
REMARK    3  A    between atoms: C_5  and  C_6 
ROOT
HETATM    1  C   UNL     1     -43.407  55.515 -53.223  1.00  0.00     0.286 C 
HETATM    2  N   UNL     1     -42.534  56.727 -53.522  1.00  0.00    -0.056 N 
HETATM    3  H   UNL     1     -41.551  56.390 -53.450  1.00  0.00     0.278 HD
HETATM    4  H   UNL     1     -42.660  57.034 -54.494  1.00  0.00     0.278 HD
HETATM    5  C   UNL     1     -42.776  57.858 -52.554  1.00  0.00     0.209 C 
HETATM    6  C   UNL     1     -42.496  57.361 -51.111  1.00  0.00     0.115 C 
HETATM    7  N   UNL     1     -43.178  56.099 -50.817  1.00  0.00    -0.353 N 
HETATM    8  C   UNL     1     -43.370  55.096 -51.737  1.00  0.00     0.249 C 
HETATM    9  O   UNL     1     -43.610  53.954 -51.363  1.00  0.00    -0.271 OA
HETATM   10  C   UNL     1     -41.915  59.057 -52.952  1.00  0.00     0.035 C 
HETATM   11  C   UNL     1     -40.433  58.864 -52.644  1.00  0.00     0.002 C 
HETATM   12  C   UNL     1     -40.214  58.473 -51.186  1.00  0.00     0.002 C 
HETATM   13  C   UNL     1     -40.995  57.216 -50.822  1.00  0.00     0.027 C 
HETATM   14  H   UNL     1     -43.178  55.769 -49.854  1.00  0.00     0.163 HD
ENDROOT
BRANCH   1  15
HETATM   15  C   UNL     1     -43.078  54.337 -54.150  1.00  0.00     0.146 C 
BRANCH  15  16
HETATM   16  C   UNL     1     -41.780  54.566 -54.879  1.00  0.00     0.224 C 
HETATM   17  N   UNL     1     -40.617  53.969 -54.513  1.00  0.00    -0.327 N 
HETATM   18  H   UNL     1     -39.833  54.323 -55.057  1.00  0.00     0.169 HD
HETATM   19  O   UNL     1     -41.788  55.302 -55.877  1.00  0.00    -0.273 OA
BRANCH  17  20
HETATM   20  C   UNL     1     -40.273  52.999 -53.551  1.00  0.00     0.034 A 
HETATM   21  C   UNL     1     -40.221  53.205 -52.170  1.00  0.00     0.032 A 
HETATM   22  C   UNL     1     -39.870  52.158 -51.308  1.00  0.00     0.044 A 
HETATM   23  C   UNL     1     -39.585  50.901 -51.822  1.00  0.00     0.116 A 
HETATM   24  C   UNL     1     -39.650  50.666 -53.185  1.00  0.00     0.044 A 
HETATM   25  F   UNL     1     -39.253  49.906 -50.992  1.00  0.00    -0.206 F 
HETATM   26  C   UNL     1     -39.998  51.712 -54.045  1.00  0.00     0.032 A 
ENDBRANCH  17  20
ENDBRANCH  15  16
ENDBRANCH   1  15
TORSDOF 3
ENDMDL
MODEL 3
REMARK VINA RESULT:      -7.7     14.291     16.716
REMARK  3 active torsions:
REMARK  status: ('A' for Active; 'I' for Inactive)
REMARK    1  A    between atoms: C_2  and  N_3 
REMARK       I    between atoms: N_3  and  C_4 
REMARK    2  A    between atoms: C_4  and  C_5 
REMARK    3  A    between atoms: C_5  and  C_6 
ROOT
HETATM    1  C   UNL     1     -34.178  40.536 -54.610  1.00  0.00     0.286 C 
HETATM    2  N   UNL     1     -34.574  40.469 -53.142  1.00  0.00    -0.056 N 
HETATM    3  H   UNL     1     -34.150  41.310 -52.696  1.00  0.00     0.278 HD
HETATM    4  H   UNL     1     -35.590  40.573 -53.034  1.00  0.00     0.278 HD
HETATM    5  C   UNL     1     -34.077  39.212 -52.473  1.00  0.00     0.209 C 
HETATM    6  C   UNL     1     -32.533  39.146 -52.596  1.00  0.00     0.115 C 
HETATM    7  N   UNL     1     -32.076  39.375 -53.968  1.00  0.00    -0.353 N 
HETATM    8  C   UNL     1     -32.680  40.243 -54.847  1.00  0.00     0.249 C 
HETATM    9  O   UNL     1     -32.068  40.659 -55.822  1.00  0.00    -0.271 OA
HETATM   10  C   UNL     1     -34.564  39.184 -51.024  1.00  0.00     0.035 C 
HETATM   11  C   UNL     1     -33.832  40.173 -50.122  1.00  0.00     0.002 C 
HETATM   12  C   UNL     1     -32.321  39.994 -50.212  1.00  0.00     0.002 C 
HETATM   13  C   UNL     1     -31.826  40.126 -51.648  1.00  0.00     0.027 C 
HETATM   14  H   UNL     1     -31.095  39.205 -54.180  1.00  0.00     0.163 HD
ENDROOT
BRANCH   1  15
HETATM   15  C   UNL     1     -34.600  41.866 -55.251  1.00  0.00     0.146 C 
BRANCH  15  16
HETATM   16  C   UNL     1     -35.979  42.272 -54.801  1.00  0.00     0.224 C 
HETATM   17  N   UNL     1     -37.076  42.146 -55.590  1.00  0.00    -0.327 N 
HETATM   18  H   UNL     1     -37.894  42.565 -55.154  1.00  0.00     0.169 HD
HETATM   19  O   UNL     1     -36.117  42.702 -53.646  1.00  0.00    -0.273 OA
BRANCH  17  20
HETATM   20  C   UNL     1     -37.309  41.587 -56.863  1.00  0.00     0.034 A 
HETATM   21  C   UNL     1     -36.969  42.174 -58.084  1.00  0.00     0.032 A 
HETATM   22  C   UNL     1     -37.247  41.518 -59.290  1.00  0.00     0.044 A 
HETATM   23  C   UNL     1     -37.854  40.270 -59.277  1.00  0.00     0.116 A 
HETATM   24  C   UNL     1     -38.183  39.659 -58.079  1.00  0.00     0.044 A 
HETATM   25  F   UNL     1     -38.114  39.649 -60.433  1.00  0.00    -0.206 F 
HETATM   26  C   UNL     1     -37.906  40.315 -56.876  1.00  0.00     0.032 A 
ENDBRANCH  17  20
ENDBRANCH  15  16
ENDBRANCH   1  15
TORSDOF 3
ENDMDL
MODEL 4
REMARK VINA RESULT:      -7.3      2.082      3.214
REMARK  3 active torsions:
REMARK  status: ('A' for Active; 'I' for Inactive)
REMARK    1  A    between atoms: C_2  and  N_3 
REMARK       I    between atoms: N_3  and  C_4 
REMARK    2  A    between atoms: C_4  and  C_5 
REMARK    3  A    between atoms: C_5  and  C_6 
ROOT
HETATM    1  C   UNL     1     -41.006  57.822 -51.193  1.00  0.00     0.286 C 
HETATM    2  N   UNL     1     -41.979  58.769 -50.503  1.00  0.00    -0.056 N 
HETATM    3  H   UNL     1     -42.924  58.350 -50.640  1.00  0.00     0.278 HD
HETATM    4  H   UNL     1     -41.817  58.782 -49.489  1.00  0.00     0.278 HD
HETATM    5  C   UNL     1     -41.931  60.160 -51.084  1.00  0.00     0.209 C 
HETATM    6  C   UNL     1     -42.260  60.091 -52.598  1.00  0.00     0.115 C 
HETATM    7  N   UNL     1     -41.470  59.072 -53.291  1.00  0.00    -0.353 N 
HETATM    8  C   UNL     1     -41.105  57.869 -52.733  1.00  0.00     0.249 C 
HETATM    9  O   UNL     1     -40.772  56.933 -53.449  1.00  0.00    -0.271 OA
HETATM   10  C   UNL     1     -42.884  61.066 -50.305  1.00  0.00     0.035 C 
HETATM   11  C   UNL     1     -44.355  60.794 -50.603  1.00  0.00     0.002 C 
HETATM   12  C   UNL     1     -44.636  60.836 -52.101  1.00  0.00     0.002 C 
HETATM   13  C   UNL     1     -43.754  59.855 -52.864  1.00  0.00     0.027 C 
HETATM   14  H   UNL     1     -41.504  59.051 -54.308  1.00  0.00     0.163 HD
ENDROOT
BRANCH   1  15
HETATM   15  C   UNL     1     -41.139  56.388 -50.663  1.00  0.00     0.146 C 
BRANCH  15  16
HETATM   16  C   UNL     1     -42.453  55.777 -51.074  1.00  0.00     0.224 C 
HETATM   17  N   UNL     1     -42.535  54.631 -51.798  1.00  0.00    -0.327 N 
HETATM   18  H   UNL     1     -43.497  54.433 -52.064  1.00  0.00     0.169 HD
HETATM   19  O   UNL     1     -43.499  56.327 -50.700  1.00  0.00    -0.273 OA
BRANCH  17  20
HETATM   20  C   UNL     1     -41.591  53.694 -52.261  1.00  0.00     0.034 A 
HETATM   21  C   UNL     1     -40.682  52.993 -51.464  1.00  0.00     0.032 A 
HETATM   22  C   UNL     1     -39.790  52.078 -52.039  1.00  0.00     0.044 A 
HETATM   23  C   UNL     1     -39.815  51.852 -53.408  1.00  0.00     0.116 A 
HETATM   24  C   UNL     1     -40.721  52.518 -54.216  1.00  0.00     0.044 A 
HETATM   25  F   UNL     1     -38.962  50.974 -53.949  1.00  0.00    -0.206 F 
HETATM   26  C   UNL     1     -41.609  53.432 -53.642  1.00  0.00     0.032 A 
ENDBRANCH  17  20
ENDBRANCH  15  16
ENDBRANCH   1  15
TORSDOF 3
ENDMDL
MODEL 5
REMARK VINA RESULT:      -7.2     14.460     16.683
REMARK  3 active torsions:
REMARK  status: ('A' for Active; 'I' for Inactive)
REMARK    1  A    between atoms: C_2  and  N_3 
REMARK       I    between atoms: N_3  and  C_4 
REMARK    2  A    between atoms: C_4  and  C_5 
REMARK    3  A    between atoms: C_5  and  C_6 
ROOT
HETATM    1  C   UNL     1     -35.057  40.604 -54.114  1.00  0.00     0.286 C 
HETATM    2  N   UNL     1     -34.278  40.067 -55.308  1.00  0.00    -0.056 N 
HETATM    3  H   UNL     1     -34.244  39.034 -55.180  1.00  0.00     0.278 HD
HETATM    4  H   UNL     1     -34.794  40.230 -56.181  1.00  0.00     0.278 HD
HETATM    5  C   UNL     1     -32.883  40.635 -55.381  1.00  0.00     0.209 C 
HETATM    6  C   UNL     1     -32.125  40.293 -54.071  1.00  0.00     0.115 C 
HETATM    7  N   UNL     1     -32.901  40.632 -52.877  1.00  0.00    -0.353 N 
HETATM    8  C   UNL     1     -34.268  40.519 -52.789  1.00  0.00     0.249 C 
HETATM    9  O   UNL     1     -34.814  40.466 -51.694  1.00  0.00    -0.271 OA
HETATM   10  C   UNL     1     -32.185  40.102 -56.633  1.00  0.00     0.035 C 
HETATM   11  C   UNL     1     -31.782  38.635 -56.520  1.00  0.00     0.002 C 
HETATM   12  C   UNL     1     -30.956  38.380 -55.264  1.00  0.00     0.002 C 
HETATM   13  C   UNL     1     -31.699  38.819 -54.008  1.00  0.00     0.027 C 
HETATM   14  H   UNL     1     -32.433  40.585 -51.974  1.00  0.00     0.163 HD
ENDROOT
BRANCH   1  15
HETATM   15  C   UNL     1     -36.437  39.942 -53.993  1.00  0.00     0.146 C 
BRANCH  15  16
HETATM   16  C   UNL     1     -37.531  40.975 -53.927  1.00  0.00     0.224 C 
HETATM   17  N   UNL     1     -38.071  41.544 -55.035  1.00  0.00    -0.327 N 
HETATM   18  H   UNL     1     -38.720  42.288 -54.788  1.00  0.00     0.169 HD
HETATM   19  O   UNL     1     -37.979  41.286 -52.814  1.00  0.00    -0.273 OA
BRANCH  17  20
HETATM   20  C   UNL     1     -37.913  41.338 -56.420  1.00  0.00     0.034 A 
HETATM   21  C   UNL     1     -38.513  40.320 -57.165  1.00  0.00     0.032 A 
HETATM   22  C   UNL     1     -38.284  40.218 -58.543  1.00  0.00     0.044 A 
HETATM   23  C   UNL     1     -37.467  41.140 -59.181  1.00  0.00     0.116 A 
HETATM   24  C   UNL     1     -36.878  42.171 -58.468  1.00  0.00     0.044 A 
HETATM   25  F   UNL     1     -37.256  41.038 -60.498  1.00  0.00    -0.206 F 
HETATM   26  C   UNL     1     -37.105  42.271 -57.093  1.00  0.00     0.032 A 
ENDBRANCH  17  20
ENDBRANCH  15  16
ENDBRANCH   1  15
TORSDOF 3
ENDMDL
MODEL 6
REMARK VINA RESULT:      -7.2      1.849      2.719
REMARK  3 active torsions:
REMARK  status: ('A' for Active; 'I' for Inactive)
REMARK    1  A    between atoms: C_2  and  N_3 
REMARK       I    between atoms: N_3  and  C_4 
REMARK    2  A    between atoms: C_4  and  C_5 
REMARK    3  A    between atoms: C_5  and  C_6 
ROOT
HETATM    1  C   UNL     1     -42.315  57.119 -53.585  1.00  0.00     0.286 C 
HETATM    2  N   UNL     1     -42.419  58.400 -52.767  1.00  0.00    -0.056 N 
HETATM    3  H   UNL     1     -42.414  58.098 -51.769  1.00  0.00     0.278 HD
HETATM    4  H   UNL     1     -41.582  58.981 -52.893  1.00  0.00     0.278 HD
HETATM    5  C   UNL     1     -43.676  59.174 -53.076  1.00  0.00     0.209 C 
HETATM    6  C   UNL     1     -44.909  58.277 -52.794  1.00  0.00     0.115 C 
HETATM    7  N   UNL     1     -44.790  56.959 -53.419  1.00  0.00    -0.353 N 
HETATM    8  C   UNL     1     -43.605  56.273 -53.550  1.00  0.00     0.249 C 
HETATM    9  O   UNL     1     -43.612  55.062 -53.740  1.00  0.00    -0.271 OA
HETATM   10  C   UNL     1     -43.682  60.472 -52.268  1.00  0.00     0.035 C 
HETATM   11  C   UNL     1     -43.959  60.257 -50.783  1.00  0.00     0.002 C 
HETATM   12  C   UNL     1     -45.237  59.453 -50.567  1.00  0.00     0.002 C 
HETATM   13  C   UNL     1     -45.184  58.113 -51.292  1.00  0.00     0.027 C 
HETATM   14  H   UNL     1     -45.609  56.353 -53.417  1.00  0.00     0.163 HD
ENDROOT
BRANCH   1  15
HETATM   15  C   UNL     1     -41.086  56.291 -53.186  1.00  0.00     0.146 C 
BRANCH  15  16
HETATM   16  C   UNL     1     -41.249  55.706 -51.808  1.00  0.00     0.224 C 
HETATM   17  N   UNL     1     -41.060  54.389 -51.541  1.00  0.00    -0.327 N 
HETATM   18  H   UNL     1     -41.314  54.166 -50.582  1.00  0.00     0.169 HD
HETATM   19  O   UNL     1     -41.531  56.472 -50.874  1.00  0.00    -0.273 OA
BRANCH  17  20
HETATM   20  C   UNL     1     -40.614  53.289 -52.301  1.00  0.00     0.034 A 
HETATM   21  C   UNL     1     -40.842  53.096 -53.666  1.00  0.00     0.032 A 
HETATM   22  C   UNL     1     -40.341  51.962 -54.317  1.00  0.00     0.044 A 
HETATM   23  C   UNL     1     -39.601  51.026 -53.610  1.00  0.00     0.116 A 
HETATM   24  C   UNL     1     -39.344  51.204 -52.261  1.00  0.00     0.044 A 
HETATM   25  F   UNL     1     -39.125  49.946 -54.240  1.00  0.00    -0.206 F 
HETATM   26  C   UNL     1     -39.845  52.336 -51.611  1.00  0.00     0.032 A 
ENDBRANCH  17  20
ENDBRANCH  15  16
ENDBRANCH   1  15
TORSDOF 3
ENDMDL
MODEL 7
REMARK VINA RESULT:      -7.1      4.174      5.463
REMARK  3 active torsions:
REMARK  status: ('A' for Active; 'I' for Inactive)
REMARK    1  A    between atoms: C_2  and  N_3 
REMARK       I    between atoms: N_3  and  C_4 
REMARK    2  A    between atoms: C_4  and  C_5 
REMARK    3  A    between atoms: C_5  and  C_6 
ROOT
HETATM    1  C   UNL     1     -43.187  57.981 -55.588  1.00  0.00     0.286 C 
HETATM    2  N   UNL     1     -43.543  57.088 -56.770  1.00  0.00    -0.056 N 
HETATM    3  H   UNL     1     -42.681  56.542 -56.980  1.00  0.00     0.278 HD
HETATM    4  H   UNL     1     -44.258  56.400 -56.503  1.00  0.00     0.278 HD
HETATM    5  C   UNL     1     -43.971  57.883 -57.978  1.00  0.00     0.209 C 
HETATM    6  C   UNL     1     -42.827  58.848 -58.384  1.00  0.00     0.115 C 
HETATM    7  N   UNL     1     -42.321  59.618 -57.246  1.00  0.00    -0.353 N 
HETATM    8  C   UNL     1     -42.224  59.127 -55.966  1.00  0.00     0.249 C 
HETATM    9  O   UNL     1     -41.482  59.666 -55.153  1.00  0.00    -0.271 OA
HETATM   10  C   UNL     1     -44.371  56.923 -59.099  1.00  0.00     0.035 C 
HETATM   11  C   UNL     1     -43.181  56.226 -59.750  1.00  0.00     0.002 C 
HETATM   12  C   UNL     1     -42.135  57.232 -60.217  1.00  0.00     0.002 C 
HETATM   13  C   UNL     1     -41.662  58.120 -59.071  1.00  0.00     0.027 C 
HETATM   14  H   UNL     1     -41.676  60.382 -57.436  1.00  0.00     0.163 HD
ENDROOT
BRANCH   1  15
HETATM   15  C   UNL     1     -42.656  57.165 -54.402  1.00  0.00     0.146 C 
BRANCH  15  16
HETATM   16  C   UNL     1     -43.752  56.345 -53.773  1.00  0.00     0.224 C 
HETATM   17  N   UNL     1     -43.552  55.085 -53.308  1.00  0.00    -0.327 N 
HETATM   18  H   UNL     1     -44.427  54.657 -53.014  1.00  0.00     0.169 HD
HETATM   19  O   UNL     1     -44.871  56.862 -53.642  1.00  0.00    -0.273 OA
BRANCH  17  20
HETATM   20  C   UNL     1     -42.418  54.261 -53.168  1.00  0.00     0.034 A 
HETATM   21  C   UNL     1     -41.696  54.062 -51.988  1.00  0.00     0.032 A 
HETATM   22  C   UNL     1     -40.584  53.211 -51.969  1.00  0.00     0.044 A 
HETATM   23  C   UNL     1     -40.200  52.546 -53.125  1.00  0.00     0.116 A 
HETATM   24  C   UNL     1     -40.910  52.710 -54.302  1.00  0.00     0.044 A 
HETATM   25  F   UNL     1     -39.138  51.732 -53.098  1.00  0.00    -0.206 F 
HETATM   26  C   UNL     1     -42.019  53.561 -54.320  1.00  0.00     0.032 A 
ENDBRANCH  17  20
ENDBRANCH  15  16
ENDBRANCH   1  15
TORSDOF 3
ENDMDL
MODEL 8
REMARK VINA RESULT:      -7.1      5.180      6.967
REMARK  3 active torsions:
REMARK  status: ('A' for Active; 'I' for Inactive)
REMARK    1  A    between atoms: C_2  and  N_3 
REMARK       I    between atoms: N_3  and  C_4 
REMARK    2  A    between atoms: C_4  and  C_5 
REMARK    3  A    between atoms: C_5  and  C_6 
ROOT
HETATM    1  C   UNL     1     -43.420  58.240 -55.149  1.00  0.00     0.286 C 
HETATM    2  N   UNL     1     -42.131  57.429 -55.152  1.00  0.00    -0.056 N 
HETATM    3  H   UNL     1     -42.163  56.852 -56.019  1.00  0.00     0.278 HD
HETATM    4  H   UNL     1     -41.314  58.044 -55.250  1.00  0.00     0.278 HD
HETATM    5  C   UNL     1     -42.009  56.546 -53.936  1.00  0.00     0.209 C 
HETATM    6  C   UNL     1     -43.226  55.585 -53.881  1.00  0.00     0.115 C 
HETATM    7  N   UNL     1     -44.498  56.291 -54.045  1.00  0.00    -0.353 N 
HETATM    8  C   UNL     1     -44.672  57.385 -54.860  1.00  0.00     0.249 C 
HETATM    9  O   UNL     1     -45.795  57.703 -55.233  1.00  0.00    -0.271 OA
HETATM   10  C   UNL     1     -40.669  55.812 -53.976  1.00  0.00     0.035 C 
HETATM   11  C   UNL     1     -40.621  54.699 -55.017  1.00  0.00     0.002 C 
HETATM   12  C   UNL     1     -41.787  53.731 -54.851  1.00  0.00     0.002 C 
HETATM   13  C   UNL     1     -43.128  54.454 -54.915  1.00  0.00     0.027 C 
HETATM   14  H   UNL     1     -45.358  55.773 -53.875  1.00  0.00     0.163 HD
ENDROOT
BRANCH   1  15
HETATM   15  C   UNL     1     -43.579  59.056 -56.439  1.00  0.00     0.146 C 
BRANCH  15  16
HETATM   16  C   UNL     1     -42.315  59.030 -57.258  1.00  0.00     0.224 C 
HETATM   17  N   UNL     1     -42.120  58.160 -58.281  1.00  0.00    -0.327 N 
HETATM   18  H   UNL     1     -41.172  58.225 -58.645  1.00  0.00     0.169 HD
HETATM   19  O   UNL     1     -41.434  59.865 -57.005  1.00  0.00    -0.273 OA
BRANCH  17  20
HETATM   20  C   UNL     1     -42.930  57.198 -58.918  1.00  0.00     0.034 A 
HETATM   21  C   UNL     1     -43.640  57.390 -60.105  1.00  0.00     0.032 A 
HETATM   22  C   UNL     1     -44.411  56.353 -60.648  1.00  0.00     0.044 A 
HETATM   23  C   UNL     1     -44.461  55.121 -60.013  1.00  0.00     0.116 A 
HETATM   24  C   UNL     1     -43.750  54.899 -58.846  1.00  0.00     0.044 A 
HETATM   25  F   UNL     1     -45.198  54.135 -60.539  1.00  0.00    -0.206 F 
HETATM   26  C   UNL     1     -42.983  55.935 -58.304  1.00  0.00     0.032 A 
ENDBRANCH  17  20
ENDBRANCH  15  16
ENDBRANCH   1  15
TORSDOF 3
ENDMDL
MODEL 9
REMARK VINA RESULT:      -7.0     14.862     16.421
REMARK  3 active torsions:
REMARK  status: ('A' for Active; 'I' for Inactive)
REMARK    1  A    between atoms: C_2  and  N_3 
REMARK       I    between atoms: N_3  and  C_4 
REMARK    2  A    between atoms: C_4  and  C_5 
REMARK    3  A    between atoms: C_5  and  C_6 
ROOT
HETATM    1  C   UNL     1     -36.612  39.656 -55.162  1.00  0.00     0.286 C 
HETATM    2  N   UNL     1     -36.715  39.345 -56.649  1.00  0.00    -0.056 N 
HETATM    3  H   UNL     1     -35.877  39.784 -57.087  1.00  0.00     0.278 HD
HETATM    4  H   UNL     1     -36.628  38.336 -56.817  1.00  0.00     0.278 HD
HETATM    5  C   UNL     1     -37.979  39.896 -57.261  1.00  0.00     0.209 C 
HETATM    6  C   UNL     1     -38.020  41.432 -57.048  1.00  0.00     0.115 C 
HETATM    7  N   UNL     1     -37.756  41.806 -55.658  1.00  0.00    -0.353 N 
HETATM    8  C   UNL     1     -36.879  41.141 -54.834  1.00  0.00     0.249 C 
HETATM    9  O   UNL     1     -36.435  41.691 -53.834  1.00  0.00    -0.271 OA
HETATM   10  C   UNL     1     -38.044  39.494 -58.735  1.00  0.00     0.035 C 
HETATM   11  C   UNL     1     -37.063  40.264 -59.614  1.00  0.00     0.002 C 
HETATM   12  C   UNL     1     -37.218  41.770 -59.434  1.00  0.00     0.002 C 
HETATM   13  C   UNL     1     -37.050  42.179 -57.975  1.00  0.00     0.027 C 
HETATM   14  H   UNL     1     -37.908  42.776 -55.387  1.00  0.00     0.163 HD
ENDROOT
BRANCH   1  15
HETATM   15  C   UNL     1     -35.276  39.180 -54.575  1.00  0.00     0.146 C 
BRANCH  15  16
HETATM   16  C   UNL     1     -34.150  40.097 -54.975  1.00  0.00     0.224 C 
HETATM   17  N   UNL     1     -33.310  40.666 -54.073  1.00  0.00    -0.327 N 
HETATM   18  H   UNL     1     -32.683  41.330 -54.521  1.00  0.00     0.169 HD
HETATM   19  O   UNL     1     -33.965  40.308 -56.183  1.00  0.00    -0.273 OA
BRANCH  17  20
HETATM   20  C   UNL     1     -33.140  40.545 -52.679  1.00  0.00     0.034 A 
HETATM   21  C   UNL     1     -34.010  41.045 -51.707  1.00  0.00     0.032 A 
HETATM   22  C   UNL     1     -33.738  40.857 -50.346  1.00  0.00     0.044 A 
HETATM   23  C   UNL     1     -32.605  40.158 -49.954  1.00  0.00     0.116 A 
HETATM   24  C   UNL     1     -31.738  39.636 -50.899  1.00  0.00     0.044 A 
HETATM   25  F   UNL     1     -32.354  39.982 -48.652  1.00  0.00    -0.206 F 
HETATM   26  C   UNL     1     -32.009  39.824 -52.257  1.00  0.00     0.032 A 
ENDBRANCH  17  20
ENDBRANCH  15  16
ENDBRANCH   1  15
TORSDOF 3
ENDMDL
MODEL 10
REMARK VINA RESULT:      -6.9     14.100     16.488
REMARK  3 active torsions:
REMARK  status: ('A' for Active; 'I' for Inactive)
REMARK    1  A    between atoms: C_2  and  N_3 
REMARK       I    between atoms: N_3  and  C_4 
REMARK    2  A    between atoms: C_4  and  C_5 
REMARK    3  A    between atoms: C_5  and  C_6 
ROOT
HETATM    1  C   UNL     1     -36.418  40.074 -52.123  1.00  0.00     0.286 C 
HETATM    2  N   UNL     1     -35.280  40.293 -51.134  1.00  0.00    -0.056 N 
HETATM    3  H   UNL     1     -34.545  40.811 -51.659  1.00  0.00     0.278 HD
HETATM    4  H   UNL     1     -35.576  40.913 -50.371  1.00  0.00     0.278 HD
HETATM    5  C   UNL     1     -34.729  38.993 -50.601  1.00  0.00     0.209 C 
HETATM    6  C   UNL     1     -34.225  38.130 -51.788  1.00  0.00     0.115 C 
HETATM    7  N   UNL     1     -35.220  38.023 -52.857  1.00  0.00    -0.353 N 
HETATM    8  C   UNL     1     -36.079  39.036 -53.214  1.00  0.00     0.249 C 
HETATM    9  O   UNL     1     -36.619  39.026 -54.314  1.00  0.00    -0.271 OA
HETATM   10  C   UNL     1     -33.639  39.291 -49.572  1.00  0.00     0.035 C 
HETATM   11  C   UNL     1     -32.343  39.799 -50.196  1.00  0.00     0.002 C 
HETATM   12  C   UNL     1     -31.844  38.858 -51.287  1.00  0.00     0.002 C 
HETATM   13  C   UNL     1     -32.900  38.646 -52.367  1.00  0.00     0.027 C 
HETATM   14  H   UNL     1     -35.044  37.359 -53.608  1.00  0.00     0.163 HD
ENDROOT
BRANCH   1  15
HETATM   15  C   UNL     1     -36.899  41.397 -52.734  1.00  0.00     0.146 C 
BRANCH  15  16
HETATM   16  C   UNL     1     -35.738  42.302 -53.053  1.00  0.00     0.224 C 
HETATM   17  N   UNL     1     -35.290  42.503 -54.318  1.00  0.00    -0.327 N 
HETATM   18  H   UNL     1     -34.439  43.062 -54.323  1.00  0.00     0.169 HD
HETATM   19  O   UNL     1     -35.199  42.916 -52.120  1.00  0.00    -0.273 OA
BRANCH  17  20
HETATM   20  C   UNL     1     -35.733  42.096 -55.592  1.00  0.00     0.034 A 
HETATM   21  C   UNL     1     -36.987  42.370 -56.143  1.00  0.00     0.032 A 
HETATM   22  C   UNL     1     -37.314  41.915 -57.427  1.00  0.00     0.044 A 
HETATM   23  C   UNL     1     -36.385  41.198 -58.167  1.00  0.00     0.116 A 
HETATM   24  C   UNL     1     -35.128  40.930 -57.650  1.00  0.00     0.044 A 
HETATM   25  F   UNL     1     -36.704  40.769 -59.393  1.00  0.00    -0.206 F 
HETATM   26  C   UNL     1     -34.803  41.383 -56.368  1.00  0.00     0.032 A 
ENDBRANCH  17  20
ENDBRANCH  15  16
ENDBRANCH   1  15
TORSDOF 3
ENDMDL
