MODEL 1
REMARK VINA RESULT:      -8.3      0.000      0.000
REMARK  6 active torsions:
REMARK  status: ('A' for Active; 'I' for Inactive)
REMARK    1  A    between atoms: C_2  and  N_3 
REMARK    2  A    between atoms: N_3  and  C_5 
REMARK    3  A    between atoms: N_3  and  C_17 
REMARK    4  A    between atoms: C_5  and  C_6 
REMARK       I    between atoms: C_6  and  N_7 
REMARK    5  A    between atoms: N_7  and  C_8 
REMARK    6  A    between atoms: C_17  and  C_18 
ROOT
HETATM    1  N   UNL     1     -41.539  55.615 -55.460  1.00  0.00    -0.059 N 
HETATM    2  H   UNL     1     -40.972  56.319 -55.949  1.00  0.00     0.280 HD
ENDROOT
BRANCH   1   3
HETATM    3  C   UNL     1     -41.780  56.128 -54.045  1.00  0.00     0.231 C 
HETATM    4  C   UNL     1     -40.879  57.305 -53.727  1.00  0.00     0.034 C 
ENDBRANCH   1   3
BRANCH   1   5
HETATM    5  C   UNL     1     -40.697  54.326 -55.517  1.00  0.00     0.337 C 
BRANCH   5   6
HETATM    6  C   UNL     1     -40.962  53.340 -54.376  1.00  0.00     0.248 C 
HETATM    7  N   UNL     1     -39.818  52.791 -53.820  1.00  0.00    -0.325 N 
HETATM    8  H   UNL     1     -38.956  52.842 -54.342  1.00  0.00     0.169 HD
HETATM    9  O   UNL     1     -42.116  53.022 -54.106  1.00  0.00    -0.271 OA
BRANCH   7  10
HETATM   10  C   UNL     1     -39.838  51.795 -52.811  1.00  0.00     0.046 A 
HETATM   11  C   UNL     1     -39.674  50.448 -53.212  1.00  0.00    -0.035 A 
HETATM   12  C   UNL     1     -39.558  50.039 -54.657  1.00  0.00     0.050 C 
HETATM   13  C   UNL     1     -39.682  49.434 -52.242  1.00  0.00     0.009 A 
HETATM   14  C   UNL     1     -39.840  49.741 -50.895  1.00  0.00     0.001 A 
HETATM   15  C   UNL     1     -39.973  51.069 -50.500  1.00  0.00     0.009 A 
HETATM   16  C   UNL     1     -39.947  52.113 -51.441  1.00  0.00    -0.035 A 
HETATM   17  C   UNL     1     -39.993  53.517 -50.898  1.00  0.00     0.050 C 
ENDBRANCH   7  10
ENDBRANCH   5   6
ENDBRANCH   1   5
BRANCH   1  18
HETATM   18  C   UNL     1     -42.838  55.502 -56.231  1.00  0.00     0.276 C 
BRANCH  18  19
HETATM   19  C   UNL     1     -42.878  56.214 -57.561  1.00  0.00    -0.003 A 
HETATM   20  C   UNL     1     -43.578  55.695 -58.676  1.00  0.00     0.069 A 
HETATM   21  C   UNL     1     -43.656  56.343 -59.908  1.00  0.00     0.012 A 
HETATM   22  N   UNL     1     -44.316  54.546 -58.855  1.00  0.00    -0.277 N 
HETATM   23  C   UNL     1     -44.431  55.491 -60.725  1.00  0.00     0.152 A 
HETATM   24  C   UNL     1     -43.025  57.583 -60.081  1.00  0.00     0.015 A 
HETATM   25  N   UNL     1     -44.822  54.391 -60.082  1.00  0.00    -0.186 NA
HETATM   26  C   UNL     1     -42.343  58.141 -59.002  1.00  0.00     0.002 A 
HETATM   27  C   UNL     1     -42.279  57.476 -57.774  1.00  0.00     0.011 A 
HETATM   28  H   UNL     1     -44.522  53.814 -58.186  1.00  0.00     0.189 HD
ENDBRANCH  18  19
ENDBRANCH   1  18
TORSDOF 6
ENDMDL
MODEL 2
REMARK VINA RESULT:      -8.2      1.794      5.026
REMARK  6 active torsions:
REMARK  status: ('A' for Active; 'I' for Inactive)
REMARK    1  A    between atoms: C_2  and  N_3 
REMARK    2  A    between atoms: N_3  and  C_5 
REMARK    3  A    between atoms: N_3  and  C_17 
REMARK    4  A    between atoms: C_5  and  C_6 
REMARK       I    between atoms: C_6  and  N_7 
REMARK    5  A    between atoms: N_7  and  C_8 
REMARK    6  A    between atoms: C_17  and  C_18 
ROOT
HETATM    1  N   UNL     1     -42.380  55.356 -55.526  1.00  0.00    -0.059 N 
HETATM    2  H   UNL     1     -43.075  54.922 -54.906  1.00  0.00     0.280 HD
ENDROOT
BRANCH   1   3
HETATM    3  C   UNL     1     -42.875  55.184 -56.956  1.00  0.00     0.231 C 
HETATM    4  C   UNL     1     -42.962  56.517 -57.671  1.00  0.00     0.034 C 
ENDBRANCH   1   3
BRANCH   1   5
HETATM    5  C   UNL     1     -41.067  54.605 -55.230  1.00  0.00     0.337 C 
BRANCH   5   6
HETATM    6  C   UNL     1     -41.183  53.511 -54.165  1.00  0.00     0.248 C 
HETATM    7  N   UNL     1     -39.979  52.921 -53.820  1.00  0.00    -0.325 N 
HETATM    8  H   UNL     1     -39.193  53.030 -54.443  1.00  0.00     0.169 HD
HETATM    9  O   UNL     1     -42.294  53.159 -53.778  1.00  0.00    -0.271 OA
BRANCH   7  10
HETATM   10  C   UNL     1     -39.870  51.832 -52.918  1.00  0.00     0.046 A 
HETATM   11  C   UNL     1     -39.949  52.116 -51.533  1.00  0.00    -0.035 A 
HETATM   12  C   UNL     1     -40.068  53.518 -50.996  1.00  0.00     0.050 C 
HETATM   13  C   UNL     1     -39.852  51.064 -50.609  1.00  0.00     0.009 A 
HETATM   14  C   UNL     1     -39.687  49.753 -51.039  1.00  0.00     0.001 A 
HETATM   15  C   UNL     1     -39.637  49.473 -52.401  1.00  0.00     0.009 A 
HETATM   16  C   UNL     1     -39.754  50.497 -53.358  1.00  0.00    -0.035 A 
HETATM   17  C   UNL     1     -39.793  50.075 -54.803  1.00  0.00     0.050 C 
ENDBRANCH   7  10
ENDBRANCH   5   6
ENDBRANCH   1   5
BRANCH   1  18
HETATM   18  C   UNL     1     -42.317  56.820 -55.139  1.00  0.00     0.276 C 
BRANCH  18  19
HETATM   19  C   UNL     1     -41.894  57.109 -53.720  1.00  0.00    -0.003 A 
HETATM   20  C   UNL     1     -42.500  56.478 -52.608  1.00  0.00     0.069 A 
HETATM   21  C   UNL     1     -42.113  56.703 -51.287  1.00  0.00     0.012 A 
HETATM   22  N   UNL     1     -43.516  55.552 -52.506  1.00  0.00    -0.277 N 
HETATM   23  C   UNL     1     -42.966  55.890 -50.508  1.00  0.00     0.152 A 
HETATM   24  C   UNL     1     -41.064  57.591 -51.013  1.00  0.00     0.015 A 
HETATM   25  N   UNL     1     -43.827  55.199 -51.255  1.00  0.00    -0.186 NA
HETATM   26  C   UNL     1     -40.425  58.217 -52.081  1.00  0.00     0.002 A 
HETATM   27  C   UNL     1     -40.826  57.976 -53.398  1.00  0.00     0.011 A 
HETATM   28  H   UNL     1     -44.049  55.112 -53.245  1.00  0.00     0.189 HD
ENDBRANCH  18  19
ENDBRANCH   1  18
TORSDOF 6
ENDMDL
MODEL 3
REMARK VINA RESULT:      -8.0      2.682      3.604
REMARK  6 active torsions:
REMARK  status: ('A' for Active; 'I' for Inactive)
REMARK    1  A    between atoms: C_2  and  N_3 
REMARK    2  A    between atoms: N_3  and  C_5 
REMARK    3  A    between atoms: N_3  and  C_17 
REMARK    4  A    between atoms: C_5  and  C_6 
REMARK       I    between atoms: C_6  and  N_7 
REMARK    5  A    between atoms: N_7  and  C_8 
REMARK    6  A    between atoms: C_17  and  C_18 
ROOT
HETATM    1  N   UNL     1     -42.398  57.445 -52.950  1.00  0.00    -0.059 N 
HETATM    2  H   UNL     1     -41.774  56.855 -53.514  1.00  0.00     0.280 HD
ENDROOT
BRANCH   1   3
HETATM    3  C   UNL     1     -41.541  58.524 -52.301  1.00  0.00     0.231 C 
HETATM    4  C   UNL     1     -40.238  58.716 -53.052  1.00  0.00     0.034 C 
ENDBRANCH   1   3
BRANCH   1   5
HETATM    5  C   UNL     1     -43.045  56.477 -51.940  1.00  0.00     0.337 C 
BRANCH   5   6
HETATM    6  C   UNL     1     -42.601  55.018 -52.079  1.00  0.00     0.248 C 
HETATM    7  N   UNL     1     -41.254  54.857 -52.361  1.00  0.00    -0.325 N 
HETATM    8  H   UNL     1     -40.738  55.647 -52.717  1.00  0.00     0.169 HD
HETATM    9  O   UNL     1     -43.441  54.124 -52.046  1.00  0.00    -0.271 OA
BRANCH   7  10
HETATM   10  C   UNL     1     -40.652  53.598 -52.612  1.00  0.00     0.046 A 
HETATM   11  C   UNL     1     -40.442  53.226 -53.962  1.00  0.00    -0.035 A 
HETATM   12  C   UNL     1     -40.898  54.076 -55.119  1.00  0.00     0.050 C 
HETATM   13  C   UNL     1     -39.843  51.991 -54.250  1.00  0.00     0.009 A 
HETATM   14  C   UNL     1     -39.449  51.136 -53.227  1.00  0.00     0.001 A 
HETATM   15  C   UNL     1     -39.631  51.515 -51.901  1.00  0.00     0.009 A 
HETATM   16  C   UNL     1     -40.206  52.755 -51.572  1.00  0.00    -0.035 A 
HETATM   17  C   UNL     1     -40.261  53.112 -50.110  1.00  0.00     0.050 C 
ENDBRANCH   7  10
ENDBRANCH   5   6
ENDBRANCH   1   5
BRANCH   1  18
HETATM   18  C   UNL     1     -43.403  58.046 -53.912  1.00  0.00     0.276 C 
BRANCH  18  19
HETATM   19  C   UNL     1     -43.141  57.798 -55.377  1.00  0.00    -0.003 A 
HETATM   20  C   UNL     1     -42.535  58.767 -56.211  1.00  0.00     0.069 A 
HETATM   21  C   UNL     1     -42.256  58.557 -57.561  1.00  0.00     0.012 A 
HETATM   22  N   UNL     1     -42.078  60.044 -55.969  1.00  0.00    -0.277 N 
HETATM   23  C   UNL     1     -41.666  59.760 -58.008  1.00  0.00     0.152 A 
HETATM   24  C   UNL     1     -42.573  57.327 -58.152  1.00  0.00     0.015 A 
HETATM   25  N   UNL     1     -41.571  60.668 -57.037  1.00  0.00    -0.186 NA
HETATM   26  C   UNL     1     -43.151  56.336 -57.361  1.00  0.00     0.002 A 
HETATM   27  C   UNL     1     -43.421  56.565 -56.008  1.00  0.00     0.011 A 
HETATM   28  H   UNL     1     -42.077  60.564 -55.100  1.00  0.00     0.189 HD
ENDBRANCH  18  19
ENDBRANCH   1  18
TORSDOF 6
ENDMDL
MODEL 4
REMARK VINA RESULT:      -8.0      1.802      7.948
REMARK  6 active torsions:
REMARK  status: ('A' for Active; 'I' for Inactive)
REMARK    1  A    between atoms: C_2  and  N_3 
REMARK    2  A    between atoms: N_3  and  C_5 
REMARK    3  A    between atoms: N_3  and  C_17 
REMARK    4  A    between atoms: C_5  and  C_6 
REMARK       I    between atoms: C_6  and  N_7 
REMARK    5  A    between atoms: N_7  and  C_8 
REMARK    6  A    between atoms: C_17  and  C_18 
ROOT
HETATM    1  N   UNL     1     -43.336  55.566 -53.228  1.00  0.00    -0.059 N 
HETATM    2  H   UNL     1     -43.689  54.957 -52.480  1.00  0.00     0.280 HD
ENDROOT
BRANCH   1   3
HETATM    3  C   UNL     1     -44.009  56.923 -53.064  1.00  0.00     0.231 C 
HETATM    4  C   UNL     1     -44.260  57.240 -51.603  1.00  0.00     0.034 C 
ENDBRANCH   1   3
BRANCH   1   5
HETATM    5  C   UNL     1     -43.712  54.841 -54.535  1.00  0.00     0.337 C 
BRANCH   5   6
HETATM    6  C   UNL     1     -42.957  55.327 -55.774  1.00  0.00     0.248 C 
HETATM    7  N   UNL     1     -43.654  56.244 -56.544  1.00  0.00    -0.325 N 
HETATM    8  H   UNL     1     -44.652  56.320 -56.417  1.00  0.00     0.169 HD
HETATM    9  O   UNL     1     -41.877  54.819 -56.063  1.00  0.00    -0.271 OA
BRANCH   7  10
HETATM   10  C   UNL     1     -43.175  56.758 -57.775  1.00  0.00     0.046 A 
HETATM   11  C   UNL     1     -42.435  57.965 -57.741  1.00  0.00    -0.035 A 
HETATM   12  C   UNL     1     -42.210  58.744 -56.473  1.00  0.00     0.050 C 
HETATM   13  C   UNL     1     -41.939  58.502 -58.939  1.00  0.00     0.009 A 
HETATM   14  C   UNL     1     -42.160  57.859 -60.152  1.00  0.00     0.001 A 
HETATM   15  C   UNL     1     -42.863  56.659 -60.179  1.00  0.00     0.009 A 
HETATM   16  C   UNL     1     -43.356  56.078 -58.998  1.00  0.00    -0.035 A 
HETATM   17  C   UNL     1     -44.010  54.728 -59.127  1.00  0.00     0.050 C 
ENDBRANCH   7  10
ENDBRANCH   5   6
ENDBRANCH   1   5
BRANCH   1  18
HETATM   18  C   UNL     1     -41.838  55.669 -53.024  1.00  0.00     0.276 C 
BRANCH  18  19
HETATM   19  C   UNL     1     -41.204  54.553 -52.232  1.00  0.00    -0.003 A 
HETATM   20  C   UNL     1     -40.681  53.391 -52.847  1.00  0.00     0.069 A 
HETATM   21  C   UNL     1     -40.066  52.355 -52.144  1.00  0.00     0.012 A 
HETATM   22  N   UNL     1     -40.614  52.988 -54.163  1.00  0.00    -0.277 N 
HETATM   23  C   UNL     1     -39.702  51.408 -53.126  1.00  0.00     0.152 A 
HETATM   24  C   UNL     1     -39.933  52.445 -50.752  1.00  0.00     0.015 A 
HETATM   25  N   UNL     1     -40.049  51.792 -54.354  1.00  0.00    -0.186 NA
HETATM   26  C   UNL     1     -40.415  53.582 -50.108  1.00  0.00     0.002 A 
HETATM   27  C   UNL     1     -41.027  54.611 -50.830  1.00  0.00     0.011 A 
HETATM   28  H   UNL     1     -40.933  53.474 -54.992  1.00  0.00     0.189 HD
ENDBRANCH  18  19
ENDBRANCH   1  18
TORSDOF 6
ENDMDL
MODEL 5
REMARK VINA RESULT:      -7.9      2.363      7.739
REMARK  6 active torsions:
REMARK  status: ('A' for Active; 'I' for Inactive)
REMARK    1  A    between atoms: C_2  and  N_3 
REMARK    2  A    between atoms: N_3  and  C_5 
REMARK    3  A    between atoms: N_3  and  C_17 
REMARK    4  A    between atoms: C_5  and  C_6 
REMARK       I    between atoms: C_6  and  N_7 
REMARK    5  A    between atoms: N_7  and  C_8 
REMARK    6  A    between atoms: C_17  and  C_18 
ROOT
HETATM    1  N   UNL     1     -41.861  54.951 -51.669  1.00  0.00    -0.059 N 
HETATM    2  H   UNL     1     -42.294  54.544 -52.507  1.00  0.00     0.280 HD
ENDROOT
BRANCH   1   3
HETATM    3  C   UNL     1     -42.869  54.834 -50.533  1.00  0.00     0.231 C 
HETATM    4  C   UNL     1     -44.026  53.934 -50.916  1.00  0.00     0.034 C 
ENDBRANCH   1   3
BRANCH   1   5
HETATM    5  C   UNL     1     -41.537  56.406 -52.063  1.00  0.00     0.337 C 
BRANCH   5   6
HETATM    6  C   UNL     1     -41.371  56.639 -53.567  1.00  0.00     0.248 C 
HETATM    7  N   UNL     1     -42.564  56.724 -54.265  1.00  0.00    -0.325 N 
HETATM    8  H   UNL     1     -43.403  56.369 -53.832  1.00  0.00     0.169 HD
HETATM    9  O   UNL     1     -40.248  56.625 -54.061  1.00  0.00    -0.271 OA
BRANCH   7  10
HETATM   10  C   UNL     1     -42.639  56.853 -55.675  1.00  0.00     0.046 A 
HETATM   11  C   UNL     1     -42.958  55.696 -56.426  1.00  0.00    -0.035 A 
HETATM   12  C   UNL     1     -43.143  54.342 -55.793  1.00  0.00     0.050 C 
HETATM   13  C   UNL     1     -43.047  55.785 -57.823  1.00  0.00     0.009 A 
HETATM   14  C   UNL     1     -42.834  56.995 -58.474  1.00  0.00     0.001 A 
HETATM   15  C   UNL     1     -42.548  58.137 -57.732  1.00  0.00     0.009 A 
HETATM   16  C   UNL     1     -42.472  58.092 -56.329  1.00  0.00    -0.035 A 
HETATM   17  C   UNL     1     -42.262  59.403 -55.618  1.00  0.00     0.050 C 
ENDBRANCH   7  10
ENDBRANCH   5   6
ENDBRANCH   1   5
BRANCH   1  18
HETATM   18  C   UNL     1     -40.619  54.130 -51.388  1.00  0.00     0.276 C 
BRANCH  18  19
HETATM   19  C   UNL     1     -40.344  53.003 -52.353  1.00  0.00    -0.003 A 
HETATM   20  C   UNL     1     -40.035  51.692 -51.916  1.00  0.00     0.069 A 
HETATM   21  C   UNL     1     -39.803  50.624 -52.782  1.00  0.00     0.012 A 
HETATM   22  N   UNL     1     -39.904  51.140 -50.661  1.00  0.00    -0.277 N 
HETATM   23  C   UNL     1     -39.531  49.521 -51.944  1.00  0.00     0.152 A 
HETATM   24  C   UNL     1     -39.881  50.825 -54.167  1.00  0.00     0.015 A 
HETATM   25  N   UNL     1     -39.582  49.843 -50.651  1.00  0.00    -0.186 NA
HETATM   26  C   UNL     1     -40.204  52.095 -54.640  1.00  0.00     0.002 A 
HETATM   27  C   UNL     1     -40.436  53.152 -53.755  1.00  0.00     0.011 A 
HETATM   28  H   UNL     1     -40.019  51.583 -49.757  1.00  0.00     0.189 HD
ENDBRANCH  18  19
ENDBRANCH   1  18
TORSDOF 6
ENDMDL
MODEL 6
REMARK VINA RESULT:      -7.9      1.890      2.870
REMARK  6 active torsions:
REMARK  status: ('A' for Active; 'I' for Inactive)
REMARK    1  A    between atoms: C_2  and  N_3 
REMARK    2  A    between atoms: N_3  and  C_5 
REMARK    3  A    between atoms: N_3  and  C_17 
REMARK    4  A    between atoms: C_5  and  C_6 
REMARK       I    between atoms: C_6  and  N_7 
REMARK    5  A    between atoms: N_7  and  C_8 
REMARK    6  A    between atoms: C_17  and  C_18 
ROOT
HETATM    1  N   UNL     1     -42.470  57.606 -53.204  1.00  0.00    -0.059 N 
HETATM    2  H   UNL     1     -41.819  57.028 -53.750  1.00  0.00     0.280 HD
ENDROOT
BRANCH   1   3
HETATM    3  C   UNL     1     -41.647  58.678 -52.502  1.00  0.00     0.231 C 
HETATM    4  C   UNL     1     -40.235  58.735 -53.052  1.00  0.00     0.034 C 
ENDBRANCH   1   3
BRANCH   1   5
HETATM    5  C   UNL     1     -43.155  56.619 -52.239  1.00  0.00     0.337 C 
BRANCH   5   6
HETATM    6  C   UNL     1     -42.711  55.162 -52.394  1.00  0.00     0.248 C 
HETATM    7  N   UNL     1     -41.340  54.991 -52.492  1.00  0.00    -0.325 N 
HETATM    8  H   UNL     1     -40.770  55.790 -52.728  1.00  0.00     0.169 HD
HETATM    9  O   UNL     1     -43.557  54.283 -52.528  1.00  0.00    -0.271 OA
BRANCH   7  10
HETATM   10  C   UNL     1     -40.721  53.737 -52.724  1.00  0.00     0.046 A 
HETATM   11  C   UNL     1     -40.480  53.361 -54.067  1.00  0.00    -0.035 A 
HETATM   12  C   UNL     1     -40.917  54.202 -55.237  1.00  0.00     0.050 C 
HETATM   13  C   UNL     1     -39.864  52.129 -54.337  1.00  0.00     0.009 A 
HETATM   14  C   UNL     1     -39.484  51.282 -53.302  1.00  0.00     0.001 A 
HETATM   15  C   UNL     1     -39.698  51.666 -51.982  1.00  0.00     0.009 A 
HETATM   16  C   UNL     1     -40.291  52.902 -51.671  1.00  0.00    -0.035 A 
HETATM   17  C   UNL     1     -40.380  53.264 -50.212  1.00  0.00     0.050 C 
ENDBRANCH   7  10
ENDBRANCH   5   6
ENDBRANCH   1   5
BRANCH   1  18
HETATM   18  C   UNL     1     -43.435  58.219 -54.199  1.00  0.00     0.276 C 
BRANCH  18  19
HETATM   19  C   UNL     1     -42.904  58.410 -55.598  1.00  0.00    -0.003 A 
HETATM   20  C   UNL     1     -43.016  57.409 -56.592  1.00  0.00     0.069 A 
HETATM   21  C   UNL     1     -42.560  57.567 -57.901  1.00  0.00     0.012 A 
HETATM   22  N   UNL     1     -43.557  56.142 -56.577  1.00  0.00    -0.277 N 
HETATM   23  C   UNL     1     -42.860  56.347 -58.546  1.00  0.00     0.152 A 
HETATM   24  C   UNL     1     -41.961  58.774 -58.286  1.00  0.00     0.015 A 
HETATM   25  N   UNL     1     -43.458  55.477 -57.732  1.00  0.00    -0.186 NA
HETATM   26  C   UNL     1     -41.851  59.794 -57.344  1.00  0.00     0.002 A 
HETATM   27  C   UNL     1     -42.317  59.618 -56.038  1.00  0.00     0.011 A 
HETATM   28  H   UNL     1     -44.013  55.656 -55.814  1.00  0.00     0.189 HD
ENDBRANCH  18  19
ENDBRANCH   1  18
TORSDOF 6
ENDMDL
MODEL 7
REMARK VINA RESULT:      -7.7      2.595      3.633
REMARK  6 active torsions:
REMARK  status: ('A' for Active; 'I' for Inactive)
REMARK    1  A    between atoms: C_2  and  N_3 
REMARK    2  A    between atoms: N_3  and  C_5 
REMARK    3  A    between atoms: N_3  and  C_17 
REMARK    4  A    between atoms: C_5  and  C_6 
REMARK       I    between atoms: C_6  and  N_7 
REMARK    5  A    between atoms: N_7  and  C_8 
REMARK    6  A    between atoms: C_17  and  C_18 
ROOT
HETATM    1  N   UNL     1     -43.179  57.355 -52.500  1.00  0.00    -0.059 N 
HETATM    2  H   UNL     1     -42.400  56.938 -53.023  1.00  0.00     0.280 HD
ENDROOT
BRANCH   1   3
HETATM    3  C   UNL     1     -42.689  58.682 -51.934  1.00  0.00     0.231 C 
HETATM    4  C   UNL     1     -41.212  58.622 -51.596  1.00  0.00     0.034 C 
ENDBRANCH   1   3
BRANCH   1   5
HETATM    5  C   UNL     1     -43.529  56.312 -51.420  1.00  0.00     0.337 C 
BRANCH   5   6
HETATM    6  C   UNL     1     -42.958  54.915 -51.674  1.00  0.00     0.248 C 
HETATM    7  N   UNL     1     -41.689  54.909 -52.231  1.00  0.00    -0.325 N 
HETATM    8  H   UNL     1     -41.353  55.752 -52.672  1.00  0.00     0.169 HD
HETATM    9  O   UNL     1     -43.664  53.929 -51.483  1.00  0.00    -0.271 OA
BRANCH   7  10
HETATM   10  C   UNL     1     -41.011  53.728 -52.622  1.00  0.00     0.046 A 
HETATM   11  C   UNL     1     -40.182  53.096 -51.664  1.00  0.00    -0.035 A 
HETATM   12  C   UNL     1     -39.945  53.670 -50.291  1.00  0.00     0.050 C 
HETATM   13  C   UNL     1     -39.499  51.921 -52.012  1.00  0.00     0.009 A 
HETATM   14  C   UNL     1     -39.633  51.370 -53.281  1.00  0.00     0.001 A 
HETATM   15  C   UNL     1     -40.470  51.977 -54.213  1.00  0.00     0.009 A 
HETATM   16  C   UNL     1     -41.188  53.143 -53.894  1.00  0.00    -0.035 A 
HETATM   17  C   UNL     1     -42.144  53.658 -54.937  1.00  0.00     0.050 C 
ENDBRANCH   7  10
ENDBRANCH   5   6
ENDBRANCH   1   5
BRANCH   1  18
HETATM   18  C   UNL     1     -44.301  57.565 -53.497  1.00  0.00     0.276 C 
BRANCH  18  19
HETATM   19  C   UNL     1     -43.905  57.515 -54.952  1.00  0.00    -0.003 A 
HETATM   20  C   UNL     1     -44.833  57.741 -55.996  1.00  0.00     0.069 A 
HETATM   21  C   UNL     1     -44.492  57.727 -57.348  1.00  0.00     0.012 A 
HETATM   22  N   UNL     1     -46.181  58.024 -55.994  1.00  0.00    -0.277 N 
HETATM   23  C   UNL     1     -45.697  57.990 -58.036  1.00  0.00     0.152 A 
HETATM   24  C   UNL     1     -43.164  57.489 -57.727  1.00  0.00     0.015 A 
HETATM   25  N   UNL     1     -46.727  58.158 -57.206  1.00  0.00    -0.186 NA
HETATM   26  C   UNL     1     -42.213  57.283 -56.729  1.00  0.00     0.002 A 
HETATM   27  C   UNL     1     -42.574  57.303 -55.379  1.00  0.00     0.011 A 
HETATM   28  H   UNL     1     -46.803  58.143 -55.204  1.00  0.00     0.189 HD
ENDBRANCH  18  19
ENDBRANCH   1  18
TORSDOF 6
ENDMDL
MODEL 8
REMARK VINA RESULT:      -7.7      1.697      3.017
REMARK  6 active torsions:
REMARK  status: ('A' for Active; 'I' for Inactive)
REMARK    1  A    between atoms: C_2  and  N_3 
REMARK    2  A    between atoms: N_3  and  C_5 
REMARK    3  A    between atoms: N_3  and  C_17 
REMARK    4  A    between atoms: C_5  and  C_6 
REMARK       I    between atoms: C_6  and  N_7 
REMARK    5  A    between atoms: N_7  and  C_8 
REMARK    6  A    between atoms: C_17  and  C_18 
ROOT
HETATM    1  N   UNL     1     -42.272  57.986 -54.170  1.00  0.00    -0.059 N 
HETATM    2  H   UNL     1     -41.634  57.312 -54.610  1.00  0.00     0.280 HD
ENDROOT
BRANCH   1   3
HETATM    3  C   UNL     1     -41.452  59.216 -53.802  1.00  0.00     0.231 C 
HETATM    4  C   UNL     1     -40.833  59.072 -52.426  1.00  0.00     0.034 C 
ENDBRANCH   1   3
BRANCH   1   5
HETATM    5  C   UNL     1     -42.851  57.241 -52.952  1.00  0.00     0.337 C 
BRANCH   5   6
HETATM    6  C   UNL     1     -42.532  55.744 -52.908  1.00  0.00     0.248 C 
HETATM    7  N   UNL     1     -41.184  55.453 -52.778  1.00  0.00    -0.325 N 
HETATM    8  H   UNL     1     -40.512  56.174 -52.993  1.00  0.00     0.169 HD
HETATM    9  O   UNL     1     -43.430  54.928 -53.093  1.00  0.00    -0.271 OA
BRANCH   7  10
HETATM   10  C   UNL     1     -40.661  54.135 -52.801  1.00  0.00     0.046 A 
HETATM   11  C   UNL     1     -40.469  53.482 -51.559  1.00  0.00    -0.035 A 
HETATM   12  C   UNL     1     -40.726  54.158 -50.238  1.00  0.00     0.050 C 
HETATM   13  C   UNL     1     -39.960  52.175 -51.540  1.00  0.00     0.009 A 
HETATM   14  C   UNL     1     -39.651  51.515 -52.725  1.00  0.00     0.001 A 
HETATM   15  C   UNL     1     -39.867  52.148 -53.945  1.00  0.00     0.009 A 
HETATM   16  C   UNL     1     -40.397  53.449 -54.005  1.00  0.00    -0.035 A 
HETATM   17  C   UNL     1     -40.689  54.000 -55.375  1.00  0.00     0.050 C 
ENDBRANCH   7  10
ENDBRANCH   5   6
ENDBRANCH   1   5
BRANCH   1  18
HETATM   18  C   UNL     1     -43.325  58.319 -55.209  1.00  0.00     0.276 C 
BRANCH  18  19
HETATM   19  C   UNL     1     -42.849  58.350 -56.640  1.00  0.00    -0.003 A 
HETATM   20  C   UNL     1     -43.012  57.251 -57.516  1.00  0.00     0.069 A 
HETATM   21  C   UNL     1     -42.608  57.260 -58.850  1.00  0.00     0.012 A 
HETATM   22  N   UNL     1     -43.567  56.001 -57.342  1.00  0.00    -0.277 N 
HETATM   23  C   UNL     1     -42.948  55.983 -59.348  1.00  0.00     0.152 A 
HETATM   24  C   UNL     1     -42.012  58.409 -59.387  1.00  0.00     0.015 A 
HETATM   25  N   UNL     1     -43.522  55.215 -58.422  1.00  0.00    -0.186 NA
HETATM   26  C   UNL     1     -41.852  59.523 -58.565  1.00  0.00     0.002 A 
HETATM   27  C   UNL     1     -42.266  59.495 -57.230  1.00  0.00     0.011 A 
HETATM   28  H   UNL     1     -43.997  55.607 -56.515  1.00  0.00     0.189 HD
ENDBRANCH  18  19
ENDBRANCH   1  18
TORSDOF 6
ENDMDL
MODEL 9
REMARK VINA RESULT:      -7.6      3.278      6.055
REMARK  6 active torsions:
REMARK  status: ('A' for Active; 'I' for Inactive)
REMARK    1  A    between atoms: C_2  and  N_3 
REMARK    2  A    between atoms: N_3  and  C_5 
REMARK    3  A    between atoms: N_3  and  C_17 
REMARK    4  A    between atoms: C_5  and  C_6 
REMARK       I    between atoms: C_6  and  N_7 
REMARK    5  A    between atoms: N_7  and  C_8 
REMARK    6  A    between atoms: C_17  and  C_18 
ROOT
HETATM    1  N   UNL     1     -43.068  58.198 -54.711  1.00  0.00    -0.059 N 
HETATM    2  H   UNL     1     -43.444  58.044 -53.767  1.00  0.00     0.280 HD
ENDROOT
BRANCH   1   3
HETATM    3  C   UNL     1     -44.154  58.892 -55.524  1.00  0.00     0.231 C 
HETATM    4  C   UNL     1     -45.398  58.032 -55.625  1.00  0.00     0.034 C 
ENDBRANCH   1   3
BRANCH   1   5
HETATM    5  C   UNL     1     -42.713  56.789 -55.226  1.00  0.00     0.337 C 
BRANCH   5   6
HETATM    6  C   UNL     1     -42.616  55.717 -54.138  1.00  0.00     0.248 C 
HETATM    7  N   UNL     1     -41.350  55.568 -53.596  1.00  0.00    -0.325 N 
HETATM    8  H   UNL     1     -40.561  55.938 -54.104  1.00  0.00     0.169 HD
HETATM    9  O   UNL     1     -43.589  55.009 -53.898  1.00  0.00    -0.271 OA
BRANCH   7  10
HETATM   10  C   UNL     1     -41.020  54.578 -52.636  1.00  0.00     0.046 A 
HETATM   11  C   UNL     1     -40.433  53.377 -53.105  1.00  0.00    -0.035 A 
HETATM   12  C   UNL     1     -40.221  53.095 -54.569  1.00  0.00     0.050 C 
HETATM   13  C   UNL     1     -40.087  52.376 -52.185  1.00  0.00     0.009 A 
HETATM   14  C   UNL     1     -40.308  52.553 -50.824  1.00  0.00     0.001 A 
HETATM   15  C   UNL     1     -40.860  53.744 -50.363  1.00  0.00     0.009 A 
HETATM   16  C   UNL     1     -41.198  54.780 -51.252  1.00  0.00    -0.035 A 
HETATM   17  C   UNL     1     -41.690  56.065 -50.640  1.00  0.00     0.050 C 
ENDBRANCH   7  10
ENDBRANCH   5   6
ENDBRANCH   1   5
BRANCH   1  18
HETATM   18  C   UNL     1     -41.852  59.087 -54.548  1.00  0.00     0.276 C 
BRANCH  18  19
HETATM   19  C   UNL     1     -41.388  59.312 -53.130  1.00  0.00    -0.003 A 
HETATM   20  C   UNL     1     -42.200  59.949 -52.161  1.00  0.00     0.069 A 
HETATM   21  C   UNL     1     -41.810  60.148 -50.837  1.00  0.00     0.012 A 
HETATM   22  N   UNL     1     -43.469  60.482 -52.219  1.00  0.00    -0.277 N 
HETATM   23  C   UNL     1     -42.897  60.811 -50.227  1.00  0.00     0.152 A 
HETATM   24  C   UNL     1     -40.554  59.696 -50.409  1.00  0.00     0.015 A 
HETATM   25  N   UNL     1     -43.901  61.023 -51.077  1.00  0.00    -0.186 NA
HETATM   26  C   UNL     1     -39.731  59.044 -51.325  1.00  0.00     0.002 A 
HETATM   27  C   UNL     1     -40.142  58.852 -52.647  1.00  0.00     0.011 A 
HETATM   28  H   UNL     1     -44.107  60.516 -53.005  1.00  0.00     0.189 HD
ENDBRANCH  18  19
ENDBRANCH   1  18
TORSDOF 6
ENDMDL
MODEL 10
REMARK VINA RESULT:      -7.6     13.573     15.217
REMARK  6 active torsions:
REMARK  status: ('A' for Active; 'I' for Inactive)
REMARK    1  A    between atoms: C_2  and  N_3 
REMARK    2  A    between atoms: N_3  and  C_5 
REMARK    3  A    between atoms: N_3  and  C_17 
REMARK    4  A    between atoms: C_5  and  C_6 
REMARK       I    between atoms: C_6  and  N_7 
REMARK    5  A    between atoms: N_7  and  C_8 
REMARK    6  A    between atoms: C_17  and  C_18 
ROOT
HETATM    1  N   UNL     1     -36.388  41.398 -55.361  1.00  0.00    -0.059 N 
HETATM    2  H   UNL     1     -36.294  40.396 -55.571  1.00  0.00     0.280 HD
ENDROOT
BRANCH   1   3
HETATM    3  C   UNL     1     -35.041  42.050 -55.646  1.00  0.00     0.231 C 
HETATM    4  C   UNL     1     -34.101  41.088 -56.344  1.00  0.00     0.034 C 
ENDBRANCH   1   3
BRANCH   1   5
HETATM    5  C   UNL     1     -36.801  41.450 -53.877  1.00  0.00     0.337 C 
BRANCH   5   6
HETATM    6  C   UNL     1     -35.632  41.515 -52.891  1.00  0.00     0.248 C 
HETATM    7  N   UNL     1     -35.066  40.285 -52.597  1.00  0.00    -0.325 N 
HETATM    8  H   UNL     1     -35.593  39.450 -52.803  1.00  0.00     0.169 HD
HETATM    9  O   UNL     1     -35.348  42.583 -52.358  1.00  0.00    -0.271 OA
BRANCH   7  10
HETATM   10  C   UNL     1     -34.029  40.107 -51.646  1.00  0.00     0.046 A 
HETATM   11  C   UNL     1     -34.402  39.782 -50.319  1.00  0.00    -0.035 A 
HETATM   12  C   UNL     1     -35.839  39.695 -49.877  1.00  0.00     0.050 C 
HETATM   13  C   UNL     1     -33.404  39.593 -49.351  1.00  0.00     0.009 A 
HETATM   14  C   UNL     1     -32.059  39.713 -49.683  1.00  0.00     0.001 A 
HETATM   15  C   UNL     1     -31.695  40.005 -50.994  1.00  0.00     0.009 A 
HETATM   16  C   UNL     1     -32.665  40.180 -51.996  1.00  0.00    -0.035 A 
HETATM   17  C   UNL     1     -32.160  40.388 -53.400  1.00  0.00     0.050 C 
ENDBRANCH   7  10
ENDBRANCH   5   6
ENDBRANCH   1   5
BRANCH   1  18
HETATM   18  C   UNL     1     -37.462  41.930 -56.288  1.00  0.00     0.276 C 
BRANCH  18  19
HETATM   19  C   UNL     1     -37.415  41.423 -57.708  1.00  0.00    -0.003 A 
HETATM   20  C   UNL     1     -37.553  40.051 -58.027  1.00  0.00     0.069 A 
HETATM   21  C   UNL     1     -37.541  39.556 -59.331  1.00  0.00     0.012 A 
HETATM   22  N   UNL     1     -37.736  38.932 -57.246  1.00  0.00    -0.277 N 
HETATM   23  C   UNL     1     -37.701  38.160 -59.197  1.00  0.00     0.152 A 
HETATM   24  C   UNL     1     -37.395  40.442 -60.407  1.00  0.00     0.015 A 
HETATM   25  N   UNL     1     -37.807  37.782 -57.923  1.00  0.00    -0.186 NA
HETATM   26  C   UNL     1     -37.278  41.804 -60.140  1.00  0.00     0.002 A 
HETATM   27  C   UNL     1     -37.295  42.281 -58.826  1.00  0.00     0.011 A 
HETATM   28  H   UNL     1     -37.822  38.867 -56.239  1.00  0.00     0.189 HD
ENDBRANCH  18  19
ENDBRANCH   1  18
TORSDOF 6
ENDMDL
