MODEL 1
REMARK VINA RESULT:      -8.0      0.000      0.000
REMARK  4 active torsions:
REMARK  status: ('A' for Active; 'I' for Inactive)
REMARK    1  A    between atoms: C_8  and  C_9 
REMARK    2  A    between atoms: C_9  and  N_10 
REMARK    3  A    between atoms: N_10  and  C_13 
REMARK    4  A    between atoms: C_13  and  C_14 
ROOT
HETATM    1  N   UNL     1     -40.002  54.460 -50.198  1.00  0.00    -0.067 N 
HETATM    2  H   UNL     1     -39.650  54.294 -51.148  1.00  0.00     0.277 HD
HETATM    3  H   UNL     1     -39.201  54.849 -49.685  1.00  0.00     0.277 HD
ENDROOT
BRANCH   1   4
HETATM    4  C   UNL     1     -41.066  55.493 -50.266  1.00  0.00     0.273 C 
BRANCH   4   5
HETATM    5  C   UNL     1     -42.075  55.093 -51.277  1.00  0.00    -0.005 A 
HETATM    6  C   UNL     1     -41.900  55.088 -52.699  1.00  0.00    -0.000 A 
HETATM    7  C   UNL     1     -40.842  55.440 -53.564  1.00  0.00     0.014 A 
HETATM    8  C   UNL     1     -43.085  54.613 -53.260  1.00  0.00     0.043 A 
HETATM    9  C   UNL     1     -41.009  55.301 -54.947  1.00  0.00     0.001 A 
HETATM   10  C   UNL     1     -42.205  54.821 -55.474  1.00  0.00     0.002 A 
HETATM   11  C   UNL     1     -43.268  54.469 -54.640  1.00  0.00     0.030 A 
HETATM   12  N   UNL     1     -43.956  54.356 -52.228  1.00  0.00    -0.365 N 
HETATM   13  H   UNL     1     -44.903  54.016 -52.351  1.00  0.00     0.165 HD
HETATM   14  C   UNL     1     -43.353  54.626 -51.026  1.00  0.00     0.098 A 
ENDBRANCH   4   5
ENDBRANCH   1   4
BRANCH   1  15
HETATM   15  C   UNL     1     -40.414  53.175 -49.585  1.00  0.00     0.271 C 
BRANCH  15  16
HETATM   16  C   UNL     1     -40.186  52.035 -50.535  1.00  0.00    -0.030 A 
HETATM   17  C   UNL     1     -39.963  52.289 -51.900  1.00  0.00     0.048 A 
HETATM   18  C   UNL     1     -39.718  51.213 -52.730  1.00  0.00     0.105 A 
HETATM   19  C   UNL     1     -39.683  49.924 -52.258  1.00  0.00     0.105 A 
HETATM   20  O   UNL     1     -39.485  51.284 -54.066  1.00  0.00    -0.323 OA
HETATM   21  O   UNL     1     -39.427  49.021 -53.238  1.00  0.00    -0.323 OA
HETATM   22  C   UNL     1     -39.890  49.636 -50.927  1.00  0.00     0.040 A 
HETATM   23  C   UNL     1     -39.323  49.884 -54.391  1.00  0.00     0.352 A 
HETATM   24  C   UNL     1     -40.140  50.703 -50.058  1.00  0.00     0.012 A 
ENDBRANCH  15  16
ENDBRANCH   1  15
TORSDOF 4
ENDMDL
MODEL 2
REMARK VINA RESULT:      -7.4      3.328      6.485
REMARK  4 active torsions:
REMARK  status: ('A' for Active; 'I' for Inactive)
REMARK    1  A    between atoms: C_8  and  C_9 
REMARK    2  A    between atoms: C_9  and  N_10 
REMARK    3  A    between atoms: N_10  and  C_13 
REMARK    4  A    between atoms: C_13  and  C_14 
ROOT
HETATM    1  N   UNL     1     -42.446  54.683 -54.372  1.00  0.00    -0.067 N 
HETATM    2  H   UNL     1     -43.016  54.178 -55.061  1.00  0.00     0.277 HD
HETATM    3  H   UNL     1     -42.768  54.335 -53.460  1.00  0.00     0.277 HD
ENDROOT
BRANCH   1   4
HETATM    4  C   UNL     1     -41.027  54.285 -54.554  1.00  0.00     0.273 C 
BRANCH   4   5
HETATM    5  C   UNL     1     -40.588  53.485 -53.384  1.00  0.00    -0.005 A 
HETATM    6  C   UNL     1     -40.266  52.089 -53.380  1.00  0.00    -0.000 A 
HETATM    7  C   UNL     1     -40.269  51.073 -54.360  1.00  0.00     0.014 A 
HETATM    8  C   UNL     1     -39.873  51.758 -52.084  1.00  0.00     0.043 A 
HETATM    9  C   UNL     1     -39.878  49.776 -54.007  1.00  0.00     0.001 A 
HETATM   10  C   UNL     1     -39.489  49.480 -52.704  1.00  0.00     0.002 A 
HETATM   11  C   UNL     1     -39.480  50.467 -51.715  1.00  0.00     0.030 A 
HETATM   12  N   UNL     1     -39.967  52.899 -51.321  1.00  0.00    -0.365 N 
HETATM   13  H   UNL     1     -39.757  52.942 -50.331  1.00  0.00     0.165 HD
HETATM   14  C   UNL     1     -40.382  53.950 -52.098  1.00  0.00     0.098 A 
ENDBRANCH   4   5
ENDBRANCH   1   4
BRANCH   1  15
HETATM   15  C   UNL     1     -42.707  56.138 -54.475  1.00  0.00     0.271 C 
BRANCH  15  16
HETATM   16  C   UNL     1     -42.219  56.855 -53.250  1.00  0.00    -0.030 A 
HETATM   17  C   UNL     1     -41.116  57.722 -53.333  1.00  0.00     0.048 A 
HETATM   18  C   UNL     1     -40.727  58.390 -52.190  1.00  0.00     0.105 A 
HETATM   19  C   UNL     1     -41.386  58.233 -50.996  1.00  0.00     0.105 A 
HETATM   20  O   UNL     1     -39.687  59.259 -52.098  1.00  0.00    -0.323 OA
HETATM   21  O   UNL     1     -40.842  58.980 -50.001  1.00  0.00    -0.323 OA
HETATM   22  C   UNL     1     -42.475  57.398 -50.876  1.00  0.00     0.040 A 
HETATM   23  C   UNL     1     -39.748  59.615 -50.697  1.00  0.00     0.352 A 
HETATM   24  C   UNL     1     -42.897  56.705 -52.016  1.00  0.00     0.012 A 
ENDBRANCH  15  16
ENDBRANCH   1  15
TORSDOF 4
ENDMDL
MODEL 3
REMARK VINA RESULT:      -7.3      2.718      4.498
REMARK  4 active torsions:
REMARK  status: ('A' for Active; 'I' for Inactive)
REMARK    1  A    between atoms: C_8  and  C_9 
REMARK    2  A    between atoms: C_9  and  N_10 
REMARK    3  A    between atoms: N_10  and  C_13 
REMARK    4  A    between atoms: C_13  and  C_14 
ROOT
HETATM    1  N   UNL     1     -44.383  55.397 -54.264  1.00  0.00    -0.067 N 
HETATM    2  H   UNL     1     -44.284  55.075 -53.294  1.00  0.00     0.277 HD
HETATM    3  H   UNL     1     -45.249  54.955 -54.600  1.00  0.00     0.277 HD
ENDROOT
BRANCH   1   4
HETATM    4  C   UNL     1     -44.578  56.868 -54.252  1.00  0.00     0.273 C 
BRANCH   4   5
HETATM    5  C   UNL     1     -44.014  57.428 -52.999  1.00  0.00    -0.005 A 
HETATM    6  C   UNL     1     -42.679  57.913 -52.809  1.00  0.00    -0.000 A 
HETATM    7  C   UNL     1     -41.537  58.007 -53.632  1.00  0.00     0.014 A 
HETATM    8  C   UNL     1     -42.589  58.374 -51.496  1.00  0.00     0.043 A 
HETATM    9  C   UNL     1     -40.359  58.558 -53.114  1.00  0.00     0.001 A 
HETATM   10  C   UNL     1     -40.304  59.011 -51.799  1.00  0.00     0.002 A 
HETATM   11  C   UNL     1     -41.419  58.926 -50.963  1.00  0.00     0.030 A 
HETATM   12  N   UNL     1     -43.811  58.164 -50.901  1.00  0.00    -0.365 N 
HETATM   13  H   UNL     1     -44.023  58.391 -49.936  1.00  0.00     0.165 HD
HETATM   14  C   UNL     1     -44.683  57.609 -51.802  1.00  0.00     0.098 A 
ENDBRANCH   4   5
ENDBRANCH   1   4
BRANCH   1  15
HETATM   15  C   UNL     1     -43.233  54.923 -55.069  1.00  0.00     0.271 C 
BRANCH  15  16
HETATM   16  C   UNL     1     -42.227  54.224 -54.200  1.00  0.00    -0.030 A 
HETATM   17  C   UNL     1     -42.398  54.200 -52.804  1.00  0.00     0.048 A 
HETATM   18  C   UNL     1     -41.470  53.513 -52.048  1.00  0.00     0.105 A 
HETATM   19  C   UNL     1     -40.407  52.859 -52.620  1.00  0.00     0.105 A 
HETATM   20  O   UNL     1     -41.488  53.392 -50.696  1.00  0.00    -0.323 OA
HETATM   21  O   UNL     1     -39.619  52.248 -51.699  1.00  0.00    -0.323 OA
HETATM   22  C   UNL     1     -40.209  52.854 -53.983  1.00  0.00     0.040 A 
HETATM   23  C   UNL     1     -40.294  52.606 -50.475  1.00  0.00     0.352 A 
HETATM   24  C   UNL     1     -41.132  53.541 -54.780  1.00  0.00     0.012 A 
ENDBRANCH  15  16
ENDBRANCH   1  15
TORSDOF 4
ENDMDL
MODEL 4
REMARK VINA RESULT:      -7.2      2.196      3.681
REMARK  4 active torsions:
REMARK  status: ('A' for Active; 'I' for Inactive)
REMARK    1  A    between atoms: C_8  and  C_9 
REMARK    2  A    between atoms: C_9  and  N_10 
REMARK    3  A    between atoms: N_10  and  C_13 
REMARK    4  A    between atoms: C_13  and  C_14 
ROOT
HETATM    1  N   UNL     1     -42.897  54.754 -54.516  1.00  0.00    -0.067 N 
HETATM    2  H   UNL     1     -43.192  54.206 -53.700  1.00  0.00     0.277 HD
HETATM    3  H   UNL     1     -43.453  54.382 -55.297  1.00  0.00     0.277 HD
ENDROOT
BRANCH   1   4
HETATM    4  C   UNL     1     -43.284  56.170 -54.295  1.00  0.00     0.273 C 
BRANCH   4   5
HETATM    5  C   UNL     1     -42.902  56.574 -52.920  1.00  0.00    -0.005 A 
HETATM    6  C   UNL     1     -41.816  57.435 -52.556  1.00  0.00    -0.000 A 
HETATM    7  C   UNL     1     -40.815  58.119 -53.278  1.00  0.00     0.014 A 
HETATM    8  C   UNL     1     -41.841  57.569 -51.168  1.00  0.00     0.043 A 
HETATM    9  C   UNL     1     -39.885  58.906 -52.588  1.00  0.00     0.001 A 
HETATM   10  C   UNL     1     -39.940  59.020 -51.201  1.00  0.00     0.002 A 
HETATM   11  C   UNL     1     -40.919  58.351 -50.464  1.00  0.00     0.030 A 
HETATM   12  N   UNL     1     -42.885  56.807 -50.699  1.00  0.00    -0.365 N 
HETATM   13  H   UNL     1     -43.124  56.707 -49.719  1.00  0.00     0.165 HD
HETATM   14  C   UNL     1     -43.542  56.215 -51.747  1.00  0.00     0.098 A 
ENDBRANCH   4   5
ENDBRANCH   1   4
BRANCH   1  15
HETATM   15  C   UNL     1     -41.455  54.531 -54.776  1.00  0.00     0.271 C 
BRANCH  15  16
HETATM   16  C   UNL     1     -40.906  53.477 -53.858  1.00  0.00    -0.030 A 
HETATM   17  C   UNL     1     -40.713  52.165 -54.328  1.00  0.00     0.048 A 
HETATM   18  C   UNL     1     -40.170  51.239 -53.462  1.00  0.00     0.105 A 
HETATM   19  C   UNL     1     -39.815  51.565 -52.176  1.00  0.00     0.105 A 
HETATM   20  O   UNL     1     -39.920  49.936 -53.754  1.00  0.00    -0.323 OA
HETATM   21  O   UNL     1     -39.300  50.509 -51.497  1.00  0.00    -0.323 OA
HETATM   22  C   UNL     1     -39.982  52.840 -51.682  1.00  0.00     0.040 A 
HETATM   23  C   UNL     1     -39.388  49.468 -52.493  1.00  0.00     0.352 A 
HETATM   24  C   UNL     1     -40.531  53.805 -52.534  1.00  0.00     0.012 A 
ENDBRANCH  15  16
ENDBRANCH   1  15
TORSDOF 4
ENDMDL
MODEL 5
REMARK VINA RESULT:      -7.2      4.256      7.599
REMARK  4 active torsions:
REMARK  status: ('A' for Active; 'I' for Inactive)
REMARK    1  A    between atoms: C_8  and  C_9 
REMARK    2  A    between atoms: C_9  and  N_10 
REMARK    3  A    between atoms: N_10  and  C_13 
REMARK    4  A    between atoms: C_13  and  C_14 
ROOT
HETATM    1  N   UNL     1     -41.775  55.274 -56.059  1.00  0.00    -0.067 N 
HETATM    2  H   UNL     1     -40.847  55.352 -55.627  1.00  0.00     0.277 HD
HETATM    3  H   UNL     1     -41.606  54.815 -56.963  1.00  0.00     0.277 HD
ENDROOT
BRANCH   1   4
HETATM    4  C   UNL     1     -42.608  54.376 -55.221  1.00  0.00     0.273 C 
BRANCH   4   5
HETATM    5  C   UNL     1     -41.958  54.193 -53.900  1.00  0.00    -0.005 A 
HETATM    6  C   UNL     1     -41.064  53.136 -53.531  1.00  0.00    -0.000 A 
HETATM    7  C   UNL     1     -40.549  52.002 -54.194  1.00  0.00     0.014 A 
HETATM    8  C   UNL     1     -40.669  53.369 -52.214  1.00  0.00     0.043 A 
HETATM    9  C   UNL     1     -39.663  51.153 -53.521  1.00  0.00     0.001 A 
HETATM   10  C   UNL     1     -39.287  51.417 -52.207  1.00  0.00     0.002 A 
HETATM   11  C   UNL     1     -39.785  52.530 -51.526  1.00  0.00     0.030 A 
HETATM   12  N   UNL     1     -41.308  54.510 -51.788  1.00  0.00    -0.365 N 
HETATM   13  H   UNL     1     -41.215  54.902 -50.858  1.00  0.00     0.165 HD
HETATM   14  C   UNL     1     -42.075  55.024 -52.801  1.00  0.00     0.098 A 
ENDBRANCH   4   5
ENDBRANCH   1   4
BRANCH   1  15
HETATM   15  C   UNL     1     -42.339  56.627 -56.280  1.00  0.00     0.271 C 
BRANCH  15  16
HETATM   16  C   UNL     1     -43.283  56.625 -57.447  1.00  0.00    -0.030 A 
HETATM   17  C   UNL     1     -43.168  55.641 -58.445  1.00  0.00     0.048 A 
HETATM   18  C   UNL     1     -44.082  55.654 -59.479  1.00  0.00     0.105 A 
HETATM   19  C   UNL     1     -45.086  56.588 -59.551  1.00  0.00     0.105 A 
HETATM   20  O   UNL     1     -44.112  54.779 -60.517  1.00  0.00    -0.323 OA
HETATM   21  O   UNL     1     -45.872  56.421 -60.645  1.00  0.00    -0.323 OA
HETATM   22  C   UNL     1     -45.235  57.564 -58.590  1.00  0.00     0.040 A 
HETATM   23  C   UNL     1     -45.238  55.285 -61.270  1.00  0.00     0.352 A 
HETATM   24  C   UNL     1     -44.325  57.579 -57.527  1.00  0.00     0.012 A 
ENDBRANCH  15  16
ENDBRANCH   1  15
TORSDOF 4
ENDMDL
MODEL 6
REMARK VINA RESULT:      -7.2      3.639      6.542
REMARK  4 active torsions:
REMARK  status: ('A' for Active; 'I' for Inactive)
REMARK    1  A    between atoms: C_8  and  C_9 
REMARK    2  A    between atoms: C_9  and  N_10 
REMARK    3  A    between atoms: N_10  and  C_13 
REMARK    4  A    between atoms: C_13  and  C_14 
ROOT
HETATM    1  N   UNL     1     -44.233  56.137 -52.917  1.00  0.00    -0.067 N 
HETATM    2  H   UNL     1     -45.239  55.932 -52.915  1.00  0.00     0.277 HD
HETATM    3  H   UNL     1     -43.958  56.113 -51.927  1.00  0.00     0.277 HD
ENDROOT
BRANCH   1   4
HETATM    4  C   UNL     1     -43.531  55.040 -53.629  1.00  0.00     0.273 C 
BRANCH   4   5
HETATM    5  C   UNL     1     -42.559  54.401 -52.708  1.00  0.00    -0.005 A 
HETATM    6  C   UNL     1     -41.584  53.409 -53.054  1.00  0.00    -0.000 A 
HETATM    7  C   UNL     1     -41.242  52.736 -54.246  1.00  0.00     0.014 A 
HETATM    8  C   UNL     1     -40.866  53.113 -51.896  1.00  0.00     0.043 A 
HETATM    9  C   UNL     1     -40.199  51.802 -54.234  1.00  0.00     0.001 A 
HETATM   10  C   UNL     1     -39.501  51.532 -53.061  1.00  0.00     0.002 A 
HETATM   11  C   UNL     1     -39.822  52.182 -51.868  1.00  0.00     0.030 A 
HETATM   12  N   UNL     1     -41.389  53.877 -50.880  1.00  0.00    -0.365 N 
HETATM   13  H   UNL     1     -41.065  53.849 -49.920  1.00  0.00     0.165 HD
HETATM   14  C   UNL     1     -42.400  54.669 -51.361  1.00  0.00     0.098 A 
ENDBRANCH   4   5
ENDBRANCH   1   4
BRANCH   1  15
HETATM   15  C   UNL     1     -44.000  57.493 -53.469  1.00  0.00     0.271 C 
BRANCH  15  16
HETATM   16  C   UNL     1     -42.697  58.052 -52.974  1.00  0.00    -0.030 A 
HETATM   17  C   UNL     1     -42.569  58.461 -51.634  1.00  0.00     0.048 A 
HETATM   18  C   UNL     1     -41.343  58.932 -51.213  1.00  0.00     0.105 A 
HETATM   19  C   UNL     1     -40.262  59.003 -52.057  1.00  0.00     0.105 A 
HETATM   20  O   UNL     1     -41.051  59.364 -49.959  1.00  0.00    -0.323 OA
HETATM   21  O   UNL     1     -39.156  59.494 -51.442  1.00  0.00    -0.323 OA
HETATM   22  C   UNL     1     -40.346  58.607 -53.373  1.00  0.00     0.040 A 
HETATM   23  C   UNL     1     -39.664  59.744 -50.114  1.00  0.00     0.352 A 
HETATM   24  C   UNL     1     -41.576  58.123 -53.834  1.00  0.00     0.012 A 
ENDBRANCH  15  16
ENDBRANCH   1  15
TORSDOF 4
ENDMDL
MODEL 7
REMARK VINA RESULT:      -7.1      3.575      7.156
REMARK  4 active torsions:
REMARK  status: ('A' for Active; 'I' for Inactive)
REMARK    1  A    between atoms: C_8  and  C_9 
REMARK    2  A    between atoms: C_9  and  N_10 
REMARK    3  A    between atoms: N_10  and  C_13 
REMARK    4  A    between atoms: C_13  and  C_14 
ROOT
HETATM    1  N   UNL     1     -42.257  54.017 -54.883  1.00  0.00    -0.067 N 
HETATM    2  H   UNL     1     -42.209  53.605 -55.822  1.00  0.00     0.277 HD
HETATM    3  H   UNL     1     -42.619  53.264 -54.284  1.00  0.00     0.277 HD
ENDROOT
BRANCH   1   4
HETATM    4  C   UNL     1     -40.878  54.347 -54.444  1.00  0.00     0.273 C 
BRANCH   4   5
HETATM    5  C   UNL     1     -40.518  53.501 -53.280  1.00  0.00    -0.005 A 
HETATM    6  C   UNL     1     -40.203  52.103 -53.308  1.00  0.00    -0.000 A 
HETATM    7  C   UNL     1     -40.148  51.125 -54.324  1.00  0.00     0.014 A 
HETATM    8  C   UNL     1     -39.896  51.721 -52.003  1.00  0.00     0.043 A 
HETATM    9  C   UNL     1     -39.786  49.813 -53.996  1.00  0.00     0.001 A 
HETATM   10  C   UNL     1     -39.482  49.466 -52.683  1.00  0.00     0.002 A 
HETATM   11  C   UNL     1     -39.533  50.414 -51.659  1.00  0.00     0.030 A 
HETATM   12  N   UNL     1     -40.033  52.833 -51.205  1.00  0.00    -0.365 N 
HETATM   13  H   UNL     1     -39.887  52.838 -50.202  1.00  0.00     0.165 HD
HETATM   14  C   UNL     1     -40.393  53.916 -51.966  1.00  0.00     0.098 A 
ENDBRANCH   4   5
ENDBRANCH   1   4
BRANCH   1  15
HETATM   15  C   UNL     1     -43.205  55.156 -54.885  1.00  0.00     0.271 C 
BRANCH  15  16
HETATM   16  C   UNL     1     -42.919  56.084 -56.030  1.00  0.00    -0.030 A 
HETATM   17  C   UNL     1     -42.978  55.610 -57.353  1.00  0.00     0.048 A 
HETATM   18  C   UNL     1     -42.747  56.507 -58.375  1.00  0.00     0.105 A 
HETATM   19  C   UNL     1     -42.471  57.830 -58.134  1.00  0.00     0.105 A 
HETATM   20  O   UNL     1     -42.766  56.215 -59.702  1.00  0.00    -0.323 OA
HETATM   21  O   UNL     1     -42.277  58.537 -59.277  1.00  0.00    -0.323 OA
HETATM   22  C   UNL     1     -42.411  58.334 -56.853  1.00  0.00     0.040 A 
HETATM   23  C   UNL     1     -42.443  57.504 -60.272  1.00  0.00     0.352 A 
HETATM   24  C   UNL     1     -42.641  57.451 -55.792  1.00  0.00     0.012 A 
ENDBRANCH  15  16
ENDBRANCH   1  15
TORSDOF 4
ENDMDL
MODEL 8
REMARK VINA RESULT:      -7.1      3.928      7.063
REMARK  4 active torsions:
REMARK  status: ('A' for Active; 'I' for Inactive)
REMARK    1  A    between atoms: C_8  and  C_9 
REMARK    2  A    between atoms: C_9  and  N_10 
REMARK    3  A    between atoms: N_10  and  C_13 
REMARK    4  A    between atoms: C_13  and  C_14 
ROOT
HETATM    1  N   UNL     1     -42.427  54.800 -54.522  1.00  0.00    -0.067 N 
HETATM    2  H   UNL     1     -43.046  54.350 -55.206  1.00  0.00     0.277 HD
HETATM    3  H   UNL     1     -42.766  54.476 -53.608  1.00  0.00     0.277 HD
ENDROOT
BRANCH   1   4
HETATM    4  C   UNL     1     -41.050  54.286 -54.725  1.00  0.00     0.273 C 
BRANCH   4   5
HETATM    5  C   UNL     1     -40.622  53.539 -53.517  1.00  0.00    -0.005 A 
HETATM    6  C   UNL     1     -40.285  52.148 -53.451  1.00  0.00    -0.000 A 
HETATM    7  C   UNL     1     -40.258  51.093 -54.388  1.00  0.00     0.014 A 
HETATM    8  C   UNL     1     -39.911  51.874 -52.135  1.00  0.00     0.043 A 
HETATM    9  C   UNL     1     -39.859  49.816 -53.977  1.00  0.00     0.001 A 
HETATM   10  C   UNL     1     -39.490  49.578 -52.656  1.00  0.00     0.002 A 
HETATM   11  C   UNL     1     -39.510  50.604 -51.708  1.00  0.00     0.030 A 
HETATM   12  N   UNL     1     -40.032  53.043 -51.421  1.00  0.00    -0.365 N 
HETATM   13  H   UNL     1     -39.840  53.129 -50.430  1.00  0.00     0.165 HD
HETATM   14  C   UNL     1     -40.444  54.057 -52.247  1.00  0.00     0.098 A 
ENDBRANCH   4   5
ENDBRANCH   1   4
BRANCH   1  15
HETATM   15  C   UNL     1     -42.566  56.273 -54.615  1.00  0.00     0.271 C 
BRANCH  15  16
HETATM   16  C   UNL     1     -43.343  56.809 -53.447  1.00  0.00    -0.030 A 
HETATM   17  C   UNL     1     -44.060  58.012 -53.570  1.00  0.00     0.048 A 
HETATM   18  C   UNL     1     -44.791  58.447 -52.483  1.00  0.00     0.105 A 
HETATM   19  C   UNL     1     -44.838  57.739 -51.308  1.00  0.00     0.105 A 
HETATM   20  O   UNL     1     -45.535  59.582 -52.435  1.00  0.00    -0.323 OA
HETATM   21  O   UNL     1     -45.614  58.341 -50.371  1.00  0.00    -0.323 OA
HETATM   22  C   UNL     1     -44.155  56.552 -51.151  1.00  0.00     0.040 A 
HETATM   23  C   UNL     1     -46.039  59.523 -51.080  1.00  0.00     0.352 A 
HETATM   24  C   UNL     1     -43.403  56.082 -52.233  1.00  0.00     0.012 A 
ENDBRANCH  15  16
ENDBRANCH   1  15
TORSDOF 4
ENDMDL
MODEL 9
REMARK VINA RESULT:      -7.1      3.605      6.655
REMARK  4 active torsions:
REMARK  status: ('A' for Active; 'I' for Inactive)
REMARK    1  A    between atoms: C_8  and  C_9 
REMARK    2  A    between atoms: C_9  and  N_10 
REMARK    3  A    between atoms: N_10  and  C_13 
REMARK    4  A    between atoms: C_13  and  C_14 
ROOT
HETATM    1  N   UNL     1     -41.296  55.454 -55.476  1.00  0.00    -0.067 N 
HETATM    2  H   UNL     1     -40.466  55.550 -54.879  1.00  0.00     0.277 HD
HETATM    3  H   UNL     1     -40.924  55.302 -56.422  1.00  0.00     0.277 HD
ENDROOT
BRANCH   1   4
HETATM    4  C   UNL     1     -42.035  54.236 -55.059  1.00  0.00     0.273 C 
BRANCH   4   5
HETATM    5  C   UNL     1     -41.192  53.443 -54.130  1.00  0.00    -0.005 A 
HETATM    6  C   UNL     1     -41.020  53.677 -52.727  1.00  0.00    -0.000 A 
HETATM    7  C   UNL     1     -41.509  54.641 -51.820  1.00  0.00     0.014 A 
HETATM    8  C   UNL     1     -40.172  52.681 -52.242  1.00  0.00     0.043 A 
HETATM    9  C   UNL     1     -41.137  54.570 -50.473  1.00  0.00     0.001 A 
HETATM   10  C   UNL     1     -40.290  53.561 -50.021  1.00  0.00     0.002 A 
HETATM   11  C   UNL     1     -39.789  52.597 -50.899  1.00  0.00     0.030 A 
HETATM   12  N   UNL     1     -39.824  51.883 -53.307  1.00  0.00    -0.365 N 
HETATM   13  H   UNL     1     -39.198  51.088 -53.243  1.00  0.00     0.165 HD
HETATM   14  C   UNL     1     -40.445  52.323 -54.447  1.00  0.00     0.098 A 
ENDBRANCH   4   5
ENDBRANCH   1   4
BRANCH   1  15
HETATM   15  C   UNL     1     -42.085  56.708 -55.441  1.00  0.00     0.271 C 
BRANCH  15  16
HETATM   16  C   UNL     1     -41.989  57.360 -54.092  1.00  0.00    -0.030 A 
HETATM   17  C   UNL     1     -40.780  57.947 -53.678  1.00  0.00     0.048 A 
HETATM   18  C   UNL     1     -40.749  58.570 -52.447  1.00  0.00     0.105 A 
HETATM   19  C   UNL     1     -41.854  58.632 -51.635  1.00  0.00     0.105 A 
HETATM   20  O   UNL     1     -39.668  59.183 -51.899  1.00  0.00    -0.323 OA
HETATM   21  O   UNL     1     -41.607  59.288 -50.472  1.00  0.00    -0.323 OA
HETATM   22  C   UNL     1     -43.058  58.075 -52.008  1.00  0.00     0.040 A 
HETATM   23  C   UNL     1     -40.211  59.618 -50.632  1.00  0.00     0.352 A 
HETATM   24  C   UNL     1     -43.125  57.436 -53.251  1.00  0.00     0.012 A 
ENDBRANCH  15  16
ENDBRANCH   1  15
TORSDOF 4
ENDMDL
MODEL 10
REMARK VINA RESULT:      -7.0      3.317      6.270
REMARK  4 active torsions:
REMARK  status: ('A' for Active; 'I' for Inactive)
REMARK    1  A    between atoms: C_8  and  C_9 
REMARK    2  A    between atoms: C_9  and  N_10 
REMARK    3  A    between atoms: N_10  and  C_13 
REMARK    4  A    between atoms: C_13  and  C_14 
ROOT
HETATM    1  N   UNL     1     -42.070  54.581 -50.872  1.00  0.00    -0.067 N 
HETATM    2  H   UNL     1     -42.578  54.322 -51.726  1.00  0.00     0.277 HD
HETATM    3  H   UNL     1     -42.416  53.933 -50.153  1.00  0.00     0.277 HD
ENDROOT
BRANCH   1   4
HETATM    4  C   UNL     1     -40.625  54.317 -51.088  1.00  0.00     0.273 C 
BRANCH   4   5
HETATM    5  C   UNL     1     -40.451  53.529 -52.333  1.00  0.00    -0.005 A 
HETATM    6  C   UNL     1     -40.106  52.141 -52.421  1.00  0.00    -0.000 A 
HETATM    7  C   UNL     1     -39.817  51.134 -51.475  1.00  0.00     0.014 A 
HETATM    8  C   UNL     1     -40.079  51.806 -53.774  1.00  0.00     0.043 A 
HETATM    9  C   UNL     1     -39.518  49.840 -51.917  1.00  0.00     0.001 A 
HETATM   10  C   UNL     1     -39.502  49.539 -53.276  1.00  0.00     0.002 A 
HETATM   11  C   UNL     1     -39.782  50.517 -54.232  1.00  0.00     0.030 A 
HETATM   12  N   UNL     1     -40.377  52.944 -54.486  1.00  0.00    -0.365 N 
HETATM   13  H   UNL     1     -40.410  52.992 -55.498  1.00  0.00     0.165 HD
HETATM   14  C   UNL     1     -40.618  53.985 -53.628  1.00  0.00     0.098 A 
ENDBRANCH   4   5
ENDBRANCH   1   4
BRANCH   1  15
HETATM   15  C   UNL     1     -42.403  55.975 -50.495  1.00  0.00     0.271 C 
BRANCH  15  16
HETATM   16  C   UNL     1     -42.038  56.926 -51.598  1.00  0.00    -0.030 A 
HETATM   17  C   UNL     1     -42.778  56.935 -52.794  1.00  0.00     0.048 A 
HETATM   18  C   UNL     1     -42.432  57.852 -53.765  1.00  0.00     0.105 A 
HETATM   19  C   UNL     1     -41.404  58.745 -53.589  1.00  0.00     0.105 A 
HETATM   20  O   UNL     1     -43.040  57.993 -54.971  1.00  0.00    -0.323 OA
HETATM   21  O   UNL     1     -41.233  59.557 -54.663  1.00  0.00    -0.323 OA
HETATM   22  C   UNL     1     -40.661  58.773 -52.429  1.00  0.00     0.040 A 
HETATM   23  C   UNL     1     -42.259  59.063 -55.550  1.00  0.00     0.352 A 
HETATM   24  C   UNL     1     -40.985  57.855 -51.423  1.00  0.00     0.012 A 
ENDBRANCH  15  16
ENDBRANCH   1  15
TORSDOF 4
ENDMDL
