MODEL 1
REMARK VINA RESULT:      -8.3      0.000      0.000
REMARK  7 active torsions:
REMARK  status: ('A' for Active; 'I' for Inactive)
REMARK    1  A    between atoms: O_2  and  C_3 
REMARK    2  A    between atoms: C_6  and  C_7 
REMARK    3  A    between atoms: C_7  and  N_8 
REMARK    4  A    between atoms: C_7  and  C_23 
REMARK       I    between atoms: N_8  and  C_9 
REMARK    5  A    between atoms: C_9  and  C_10 
REMARK    6  A    between atoms: C_10  and  S_11 
REMARK    7  A    between atoms: S_11  and  C_12 
ROOT
HETATM    1  N   UNL     1     -42.985  57.591 -55.153  1.00  0.00    -0.348 N 
HETATM    2  C   UNL     1     -44.113  58.243 -54.700  1.00  0.00     0.228 C 
HETATM    3  O   UNL     1     -45.248  57.791 -54.810  1.00  0.00    -0.273 OA
HETATM    4  H   UNL     1     -42.107  58.090 -55.170  1.00  0.00     0.163 HD
ENDROOT
BRANCH   1   5
HETATM    5  C   UNL     1     -43.065  56.344 -55.896  1.00  0.00     0.151 C 
BRANCH   5   6
HETATM    6  C   UNL     1     -42.149  55.254 -55.349  1.00  0.00    -0.031 A 
HETATM    7  C   UNL     1     -42.695  53.998 -55.037  1.00  0.00     0.012 A 
HETATM    8  C   UNL     1     -41.879  52.954 -54.594  1.00  0.00     0.037 A 
HETATM    9  C   UNL     1     -40.501  53.133 -54.469  1.00  0.00     0.068 A 
HETATM   10  C   UNL     1     -39.948  54.380 -54.758  1.00  0.00     0.037 A 
HETATM   11  C   UNL     1     -40.765  55.431 -55.195  1.00  0.00     0.012 A 
BRANCH   9  12
HETATM   12  O   UNL     1     -39.815  52.026 -54.051  1.00  0.00    -0.356 OA
HETATM   13  C   UNL     1     -40.418  50.767 -54.323  1.00  0.00     0.210 C 
ENDBRANCH   9  12
ENDBRANCH   5   6
BRANCH   5  14
HETATM   14  C   UNL     1     -42.824  56.620 -57.377  1.00  0.00    -0.031 A 
HETATM   15  C   UNL     1     -42.261  57.842 -57.778  1.00  0.00     0.009 A 
HETATM   16  C   UNL     1     -42.027  58.109 -59.128  1.00  0.00     0.001 A 
HETATM   17  C   UNL     1     -42.344  57.158 -60.095  1.00  0.00     0.000 A 
HETATM   18  C   UNL     1     -42.895  55.937 -59.714  1.00  0.00     0.001 A 
HETATM   19  C   UNL     1     -43.132  55.668 -58.365  1.00  0.00     0.009 A 
ENDBRANCH   5  14
ENDBRANCH   1   5
BRANCH   2  20
HETATM   20  C   UNL     1     -43.830  59.596 -54.075  1.00  0.00     0.185 C 
BRANCH  20  21
HETATM   21  S   UNL     1     -42.674  59.360 -52.691  1.00  0.00    -0.081 SA
BRANCH  21  22
HETATM   22  C   UNL     1     -43.527  58.176 -51.768  1.00  0.00     0.192 A 
HETATM   23  N   UNL     1     -43.029  56.935 -51.466  1.00  0.00    -0.311 N 
HETATM   24  C   UNL     1     -44.056  56.280 -50.824  1.00  0.00     0.130 A 
HETATM   25  C   UNL     1     -41.721  56.420 -51.817  1.00  0.00     0.133 C 
HETATM   26  C   UNL     1     -44.042  54.864 -50.356  1.00  0.00     0.081 C 
HETATM   27  N   UNL     1     -45.076  57.107 -50.701  1.00  0.00    -0.134 NA
HETATM   28  C   UNL     1     -43.347  53.922 -51.332  1.00  0.00     0.008 C 
HETATM   29  C   UNL     1     -41.823  53.933 -51.213  1.00  0.00     0.002 C 
HETATM   30  C   UNL     1     -41.191  55.296 -50.931  1.00  0.00     0.020 C 
HETATM   31  N   UNL     1     -44.744  58.295 -51.297  1.00  0.00    -0.123 NA
ENDBRANCH  21  22
ENDBRANCH  20  21
ENDBRANCH   2  20
TORSDOF 7
ENDMDL
MODEL 2
REMARK VINA RESULT:      -7.4      2.914      6.841
REMARK  7 active torsions:
REMARK  status: ('A' for Active; 'I' for Inactive)
REMARK    1  A    between atoms: O_2  and  C_3 
REMARK    2  A    between atoms: C_6  and  C_7 
REMARK    3  A    between atoms: C_7  and  N_8 
REMARK    4  A    between atoms: C_7  and  C_23 
REMARK       I    between atoms: N_8  and  C_9 
REMARK    5  A    between atoms: C_9  and  C_10 
REMARK    6  A    between atoms: C_10  and  S_11 
REMARK    7  A    between atoms: S_11  and  C_12 
ROOT
HETATM    1  N   UNL     1     -43.226  56.463 -53.946  1.00  0.00    -0.348 N 
HETATM    2  C   UNL     1     -44.383  57.163 -53.674  1.00  0.00     0.228 C 
HETATM    3  O   UNL     1     -44.741  57.467 -52.540  1.00  0.00    -0.273 OA
HETATM    4  H   UNL     1     -43.077  56.113 -54.882  1.00  0.00     0.163 HD
ENDROOT
BRANCH   1   5
HETATM    5  C   UNL     1     -42.378  55.940 -52.888  1.00  0.00     0.151 C 
BRANCH   5   6
HETATM    6  C   UNL     1     -41.504  57.003 -52.231  1.00  0.00    -0.031 A 
HETATM    7  C   UNL     1     -40.812  57.914 -53.046  1.00  0.00     0.012 A 
HETATM    8  C   UNL     1     -40.051  58.942 -52.483  1.00  0.00     0.037 A 
HETATM    9  C   UNL     1     -39.978  59.095 -51.098  1.00  0.00     0.068 A 
HETATM   10  C   UNL     1     -40.646  58.188 -50.277  1.00  0.00     0.037 A 
HETATM   11  C   UNL     1     -41.403  57.151 -50.839  1.00  0.00     0.012 A 
BRANCH   9  12
HETATM   12  O   UNL     1     -39.224  60.155 -50.678  1.00  0.00    -0.356 OA
HETATM   13  C   UNL     1     -38.096  59.848 -49.867  1.00  0.00     0.210 C 
ENDBRANCH   9  12
ENDBRANCH   5   6
BRANCH   5  14
HETATM   14  C   UNL     1     -41.564  54.766 -53.427  1.00  0.00    -0.031 A 
HETATM   15  C   UNL     1     -41.046  54.814 -54.730  1.00  0.00     0.009 A 
HETATM   16  C   UNL     1     -40.292  53.752 -55.237  1.00  0.00     0.001 A 
HETATM   17  C   UNL     1     -40.041  52.633 -54.446  1.00  0.00     0.000 A 
HETATM   18  C   UNL     1     -40.540  52.573 -53.148  1.00  0.00     0.001 A 
HETATM   19  C   UNL     1     -41.294  53.632 -52.640  1.00  0.00     0.009 A 
ENDBRANCH   5  14
ENDBRANCH   1   5
BRANCH   2  20
HETATM   20  C   UNL     1     -45.202  57.500 -54.905  1.00  0.00     0.185 C 
BRANCH  20  21
HETATM   21  S   UNL     1     -44.213  58.591 -55.972  1.00  0.00    -0.081 SA
BRANCH  21  22
HETATM   22  C   UNL     1     -43.831  57.506 -57.261  1.00  0.00     0.192 A 
HETATM   23  N   UNL     1     -44.613  57.333 -58.374  1.00  0.00    -0.311 N 
HETATM   24  C   UNL     1     -44.013  56.315 -59.082  1.00  0.00     0.130 A 
HETATM   25  C   UNL     1     -45.842  58.034 -58.685  1.00  0.00     0.133 C 
HETATM   26  C   UNL     1     -44.522  55.698 -60.340  1.00  0.00     0.081 C 
HETATM   27  N   UNL     1     -42.910  55.954 -58.454  1.00  0.00    -0.134 NA
HETATM   28  C   UNL     1     -46.035  55.520 -60.345  1.00  0.00     0.008 C 
HETATM   29  C   UNL     1     -46.799  56.793 -60.710  1.00  0.00     0.002 C 
HETATM   30  C   UNL     1     -46.215  58.095 -60.163  1.00  0.00     0.020 C 
HETATM   31  N   UNL     1     -42.800  56.699 -57.310  1.00  0.00    -0.123 NA
ENDBRANCH  21  22
ENDBRANCH  20  21
ENDBRANCH   2  20
TORSDOF 7
ENDMDL
MODEL 3
REMARK VINA RESULT:      -7.3      2.973      5.819
REMARK  7 active torsions:
REMARK  status: ('A' for Active; 'I' for Inactive)
REMARK    1  A    between atoms: O_2  and  C_3 
REMARK    2  A    between atoms: C_6  and  C_7 
REMARK    3  A    between atoms: C_7  and  N_8 
REMARK    4  A    between atoms: C_7  and  C_23 
REMARK       I    between atoms: N_8  and  C_9 
REMARK    5  A    between atoms: C_9  and  C_10 
REMARK    6  A    between atoms: C_10  and  S_11 
REMARK    7  A    between atoms: S_11  and  C_12 
ROOT
HETATM    1  N   UNL     1     -42.942  57.467 -56.937  1.00  0.00    -0.348 N 
HETATM    2  C   UNL     1     -42.797  56.345 -56.148  1.00  0.00     0.228 C 
HETATM    3  O   UNL     1     -42.346  55.281 -56.559  1.00  0.00    -0.273 OA
HETATM    4  H   UNL     1     -43.463  58.254 -56.575  1.00  0.00     0.163 HD
ENDROOT
BRANCH   1   5
HETATM    5  C   UNL     1     -42.660  57.446 -58.362  1.00  0.00     0.151 C 
BRANCH   5   6
HETATM    6  C   UNL     1     -42.291  58.814 -58.926  1.00  0.00    -0.031 A 
HETATM    7  C   UNL     1     -41.927  59.841 -58.039  1.00  0.00     0.012 A 
HETATM    8  C   UNL     1     -41.522  61.089 -58.519  1.00  0.00     0.037 A 
HETATM    9  C   UNL     1     -41.454  61.336 -59.890  1.00  0.00     0.068 A 
HETATM   10  C   UNL     1     -41.829  60.332 -60.782  1.00  0.00     0.037 A 
HETATM   11  C   UNL     1     -42.243  59.081 -60.304  1.00  0.00     0.012 A 
BRANCH   9  12
HETATM   12  O   UNL     1     -41.018  62.587 -60.226  1.00  0.00    -0.356 OA
HETATM   13  C   UNL     1     -39.653  62.878 -59.950  1.00  0.00     0.210 C 
ENDBRANCH   9  12
ENDBRANCH   5   6
BRANCH   5  14
HETATM   14  C   UNL     1     -43.832  56.806 -59.101  1.00  0.00    -0.031 A 
HETATM   15  C   UNL     1     -43.623  55.662 -59.887  1.00  0.00     0.009 A 
HETATM   16  C   UNL     1     -44.685  55.060 -60.565  1.00  0.00     0.001 A 
HETATM   17  C   UNL     1     -45.970  55.588 -60.462  1.00  0.00     0.000 A 
HETATM   18  C   UNL     1     -46.197  56.718 -59.680  1.00  0.00     0.001 A 
HETATM   19  C   UNL     1     -45.137  57.322 -59.003  1.00  0.00     0.009 A 
ENDBRANCH   5  14
ENDBRANCH   1   5
BRANCH   2  20
HETATM   20  C   UNL     1     -43.277  56.531 -54.721  1.00  0.00     0.185 C 
BRANCH  20  21
HETATM   21  S   UNL     1     -43.743  54.904 -54.054  1.00  0.00    -0.081 SA
BRANCH  21  22
HETATM   22  C   UNL     1     -42.484  54.668 -52.896  1.00  0.00     0.192 A 
HETATM   23  N   UNL     1     -41.507  53.713 -53.010  1.00  0.00    -0.311 N 
HETATM   24  C   UNL     1     -40.787  53.791 -51.840  1.00  0.00     0.130 A 
HETATM   25  C   UNL     1     -41.330  52.785 -54.109  1.00  0.00     0.133 C 
HETATM   26  C   UNL     1     -39.654  52.907 -51.440  1.00  0.00     0.081 C 
HETATM   27  N   UNL     1     -41.273  54.775 -51.106  1.00  0.00    -0.134 NA
HETATM   28  C   UNL     1     -39.875  51.449 -51.825  1.00  0.00     0.008 C 
HETATM   29  C   UNL     1     -39.543  51.145 -53.286  1.00  0.00     0.002 C 
HETATM   30  C   UNL     1     -39.919  52.234 -54.290  1.00  0.00     0.020 C 
HETATM   31  N   UNL     1     -42.340  55.321 -51.769  1.00  0.00    -0.123 NA
ENDBRANCH  21  22
ENDBRANCH  20  21
ENDBRANCH   2  20
TORSDOF 7
ENDMDL
MODEL 4
REMARK VINA RESULT:      -7.1      2.667      6.222
REMARK  7 active torsions:
REMARK  status: ('A' for Active; 'I' for Inactive)
REMARK    1  A    between atoms: O_2  and  C_3 
REMARK    2  A    between atoms: C_6  and  C_7 
REMARK    3  A    between atoms: C_7  and  N_8 
REMARK    4  A    between atoms: C_7  and  C_23 
REMARK       I    between atoms: N_8  and  C_9 
REMARK    5  A    between atoms: C_9  and  C_10 
REMARK    6  A    between atoms: C_10  and  S_11 
REMARK    7  A    between atoms: S_11  and  C_12 
ROOT
HETATM    1  N   UNL     1     -41.891  55.663 -54.892  1.00  0.00    -0.348 N 
HETATM    2  C   UNL     1     -43.057  55.492 -55.608  1.00  0.00     0.228 C 
HETATM    3  O   UNL     1     -44.127  55.175 -55.096  1.00  0.00    -0.273 OA
HETATM    4  H   UNL     1     -41.021  55.768 -55.395  1.00  0.00     0.163 HD
ENDROOT
BRANCH   1   5
HETATM    5  C   UNL     1     -41.815  55.383 -53.468  1.00  0.00     0.151 C 
BRANCH   5   6
HETATM    6  C   UNL     1     -41.267  56.548 -52.650  1.00  0.00    -0.031 A 
HETATM    7  C   UNL     1     -40.584  57.582 -53.311  1.00  0.00     0.012 A 
HETATM    8  C   UNL     1     -40.122  58.697 -52.607  1.00  0.00     0.037 A 
HETATM    9  C   UNL     1     -40.345  58.815 -51.236  1.00  0.00     0.068 A 
HETATM   10  C   UNL     1     -41.007  57.788 -50.563  1.00  0.00     0.037 A 
HETATM   11  C   UNL     1     -41.464  56.664 -51.265  1.00  0.00     0.012 A 
BRANCH   9  12
HETATM   12  O   UNL     1     -39.866  59.965 -50.673  1.00  0.00    -0.356 OA
HETATM   13  C   UNL     1     -38.551  59.907 -50.134  1.00  0.00     0.210 C 
ENDBRANCH   9  12
ENDBRANCH   5   6
BRANCH   5  14
HETATM   14  C   UNL     1     -41.028  54.094 -53.247  1.00  0.00    -0.031 A 
HETATM   15  C   UNL     1     -40.678  53.292 -54.344  1.00  0.00     0.009 A 
HETATM   16  C   UNL     1     -39.952  52.112 -54.161  1.00  0.00     0.001 A 
HETATM   17  C   UNL     1     -39.561  51.723 -52.882  1.00  0.00     0.000 A 
HETATM   18  C   UNL     1     -39.893  52.511 -51.784  1.00  0.00     0.001 A 
HETATM   19  C   UNL     1     -40.619  53.689 -51.963  1.00  0.00     0.009 A 
ENDBRANCH   5  14
ENDBRANCH   1   5
BRANCH   2  20
HETATM   20  C   UNL     1     -42.898  55.698 -57.102  1.00  0.00     0.185 C 
BRANCH  20  21
HETATM   21  S   UNL     1     -43.895  57.137 -57.594  1.00  0.00    -0.081 SA
BRANCH  21  22
HETATM   22  C   UNL     1     -43.047  58.400 -56.775  1.00  0.00     0.192 A 
HETATM   23  N   UNL     1     -43.400  58.887 -55.544  1.00  0.00    -0.311 N 
HETATM   24  C   UNL     1     -42.546  59.942 -55.314  1.00  0.00     0.130 A 
HETATM   25  C   UNL     1     -44.487  58.419 -54.708  1.00  0.00     0.133 C 
HETATM   26  C   UNL     1     -42.569  60.856 -54.136  1.00  0.00     0.081 C 
HETATM   27  N   UNL     1     -41.700  60.032 -56.323  1.00  0.00    -0.134 NA
HETATM   28  C   UNL     1     -43.982  61.217 -53.693  1.00  0.00     0.008 C 
HETATM   29  C   UNL     1     -44.644  60.147 -52.825  1.00  0.00     0.002 C 
HETATM   30  C   UNL     1     -44.345  58.700 -53.215  1.00  0.00     0.020 C 
HETATM   31  N   UNL     1     -42.019  59.067 -57.241  1.00  0.00    -0.123 NA
ENDBRANCH  21  22
ENDBRANCH  20  21
ENDBRANCH   2  20
TORSDOF 7
ENDMDL
MODEL 5
REMARK VINA RESULT:      -7.1      2.688      6.850
REMARK  7 active torsions:
REMARK  status: ('A' for Active; 'I' for Inactive)
REMARK    1  A    between atoms: O_2  and  C_3 
REMARK    2  A    between atoms: C_6  and  C_7 
REMARK    3  A    between atoms: C_7  and  N_8 
REMARK    4  A    between atoms: C_7  and  C_23 
REMARK       I    between atoms: N_8  and  C_9 
REMARK    5  A    between atoms: C_9  and  C_10 
REMARK    6  A    between atoms: C_10  and  S_11 
REMARK    7  A    between atoms: S_11  and  C_12 
ROOT
HETATM    1  N   UNL     1     -43.192  56.482 -53.812  1.00  0.00    -0.348 N 
HETATM    2  C   UNL     1     -44.365  57.153 -53.540  1.00  0.00     0.228 C 
HETATM    3  O   UNL     1     -44.737  57.436 -52.405  1.00  0.00    -0.273 OA
HETATM    4  H   UNL     1     -43.028  56.146 -54.752  1.00  0.00     0.163 HD
ENDROOT
BRANCH   1   5
HETATM    5  C   UNL     1     -42.339  55.964 -52.755  1.00  0.00     0.151 C 
BRANCH   5   6
HETATM    6  C   UNL     1     -41.458  57.030 -52.111  1.00  0.00    -0.031 A 
HETATM    7  C   UNL     1     -40.760  57.926 -52.937  1.00  0.00     0.012 A 
HETATM    8  C   UNL     1     -39.993  58.956 -52.387  1.00  0.00     0.037 A 
HETATM    9  C   UNL     1     -39.918  59.125 -51.004  1.00  0.00     0.068 A 
HETATM   10  C   UNL     1     -40.592  58.232 -50.172  1.00  0.00     0.037 A 
HETATM   11  C   UNL     1     -41.355  57.194 -50.721  1.00  0.00     0.012 A 
BRANCH   9  12
HETATM   12  O   UNL     1     -39.157  60.185 -50.597  1.00  0.00    -0.356 OA
HETATM   13  C   UNL     1     -38.025  59.880 -49.791  1.00  0.00     0.210 C 
ENDBRANCH   9  12
ENDBRANCH   5   6
BRANCH   5  14
HETATM   14  C   UNL     1     -41.532  54.783 -53.288  1.00  0.00    -0.031 A 
HETATM   15  C   UNL     1     -41.129  54.762 -54.632  1.00  0.00     0.009 A 
HETATM   16  C   UNL     1     -40.384  53.693 -55.135  1.00  0.00     0.001 A 
HETATM   17  C   UNL     1     -40.027  52.635 -54.301  1.00  0.00     0.000 A 
HETATM   18  C   UNL     1     -40.411  52.646 -52.963  1.00  0.00     0.001 A 
HETATM   19  C   UNL     1     -41.156  53.712 -52.458  1.00  0.00     0.009 A 
ENDBRANCH   5  14
ENDBRANCH   1   5
BRANCH   2  20
HETATM   20  C   UNL     1     -45.183  57.487 -54.773  1.00  0.00     0.185 C 
BRANCH  20  21
HETATM   21  S   UNL     1     -44.421  58.918 -55.598  1.00  0.00    -0.081 SA
BRANCH  21  22
HETATM   22  C   UNL     1     -43.594  58.129 -56.894  1.00  0.00     0.192 A 
HETATM   23  N   UNL     1     -42.956  58.790 -57.911  1.00  0.00    -0.311 N 
HETATM   24  C   UNL     1     -42.534  57.804 -58.774  1.00  0.00     0.130 A 
HETATM   25  C   UNL     1     -42.824  60.225 -58.060  1.00  0.00     0.133 C 
HETATM   26  C   UNL     1     -41.849  58.011 -60.082  1.00  0.00     0.081 C 
HETATM   27  N   UNL     1     -42.851  56.629 -58.265  1.00  0.00    -0.134 NA
HETATM   28  C   UNL     1     -42.410  59.191 -60.866  1.00  0.00     0.008 C 
HETATM   29  C   UNL     1     -41.862  60.544 -60.412  1.00  0.00     0.002 C 
HETATM   30  C   UNL     1     -41.646  60.698 -58.907  1.00  0.00     0.020 C 
HETATM   31  N   UNL     1     -43.520  56.835 -57.087  1.00  0.00    -0.123 NA
ENDBRANCH  21  22
ENDBRANCH  20  21
ENDBRANCH   2  20
TORSDOF 7
ENDMDL
MODEL 6
REMARK VINA RESULT:      -7.0      3.119      5.787
REMARK  7 active torsions:
REMARK  status: ('A' for Active; 'I' for Inactive)
REMARK    1  A    between atoms: O_2  and  C_3 
REMARK    2  A    between atoms: C_6  and  C_7 
REMARK    3  A    between atoms: C_7  and  N_8 
REMARK    4  A    between atoms: C_7  and  C_23 
REMARK       I    between atoms: N_8  and  C_9 
REMARK    5  A    between atoms: C_9  and  C_10 
REMARK    6  A    between atoms: C_10  and  S_11 
REMARK    7  A    between atoms: S_11  and  C_12 
ROOT
HETATM    1  N   UNL     1     -43.028  57.407 -57.171  1.00  0.00    -0.348 N 
HETATM    2  C   UNL     1     -42.911  56.243 -56.441  1.00  0.00     0.228 C 
HETATM    3  O   UNL     1     -42.634  55.155 -56.938  1.00  0.00    -0.273 OA
HETATM    4  H   UNL     1     -43.411  58.228 -56.722  1.00  0.00     0.163 HD
ENDROOT
BRANCH   1   5
HETATM    5  C   UNL     1     -42.929  57.418 -58.621  1.00  0.00     0.151 C 
BRANCH   5   6
HETATM    6  C   UNL     1     -42.468  58.758 -59.186  1.00  0.00    -0.031 A 
HETATM    7  C   UNL     1     -42.013  59.749 -58.301  1.00  0.00     0.012 A 
HETATM    8  C   UNL     1     -41.523  60.966 -58.782  1.00  0.00     0.037 A 
HETATM    9  C   UNL     1     -41.459  61.214 -60.153  1.00  0.00     0.068 A 
HETATM   10  C   UNL     1     -41.924  60.246 -61.042  1.00  0.00     0.037 A 
HETATM   11  C   UNL     1     -42.423  59.028 -60.562  1.00  0.00     0.012 A 
BRANCH   9  12
HETATM   12  O   UNL     1     -40.936  62.431 -60.491  1.00  0.00    -0.356 OA
HETATM   13  C   UNL     1     -39.887  62.922 -59.665  1.00  0.00     0.210 C 
ENDBRANCH   9  12
ENDBRANCH   5   6
BRANCH   5  14
HETATM   14  C   UNL     1     -44.253  56.956 -59.223  1.00  0.00    -0.031 A 
HETATM   15  C   UNL     1     -45.450  57.589 -58.850  1.00  0.00     0.009 A 
HETATM   16  C   UNL     1     -46.670  57.184 -59.395  1.00  0.00     0.001 A 
HETATM   17  C   UNL     1     -46.711  56.147 -60.325  1.00  0.00     0.000 A 
HETATM   18  C   UNL     1     -45.532  55.514 -60.713  1.00  0.00     0.001 A 
HETATM   19  C   UNL     1     -44.312  55.916 -60.168  1.00  0.00     0.009 A 
ENDBRANCH   5  14
ENDBRANCH   1   5
BRANCH   2  20
HETATM   20  C   UNL     1     -43.186  56.416 -54.959  1.00  0.00     0.185 C 
BRANCH  20  21
HETATM   21  S   UNL     1     -41.635  56.891 -54.137  1.00  0.00    -0.081 SA
BRANCH  21  22
HETATM   22  C   UNL     1     -41.141  55.366 -53.494  1.00  0.00     0.192 A 
HETATM   23  N   UNL     1     -41.128  55.066 -52.156  1.00  0.00    -0.311 N 
HETATM   24  C   UNL     1     -40.572  53.810 -52.073  1.00  0.00     0.130 A 
HETATM   25  C   UNL     1     -41.553  55.930 -51.073  1.00  0.00     0.133 C 
HETATM   26  C   UNL     1     -40.268  53.061 -50.819  1.00  0.00     0.081 C 
HETATM   27  N   UNL     1     -40.328  53.371 -53.293  1.00  0.00    -0.134 NA
HETATM   28  C   UNL     1     -39.719  53.954 -49.713  1.00  0.00     0.008 C 
HETATM   29  C   UNL     1     -40.802  54.715 -48.947  1.00  0.00     0.002 C 
HETATM   30  C   UNL     1     -41.973  55.224 -49.788  1.00  0.00     0.020 C 
HETATM   31  N   UNL     1     -40.682  54.350 -54.183  1.00  0.00    -0.123 NA
ENDBRANCH  21  22
ENDBRANCH  20  21
ENDBRANCH   2  20
TORSDOF 7
ENDMDL
MODEL 7
REMARK VINA RESULT:      -7.0      3.159      7.361
REMARK  7 active torsions:
REMARK  status: ('A' for Active; 'I' for Inactive)
REMARK    1  A    between atoms: O_2  and  C_3 
REMARK    2  A    between atoms: C_6  and  C_7 
REMARK    3  A    between atoms: C_7  and  N_8 
REMARK    4  A    between atoms: C_7  and  C_23 
REMARK       I    between atoms: N_8  and  C_9 
REMARK    5  A    between atoms: C_9  and  C_10 
REMARK    6  A    between atoms: C_10  and  S_11 
REMARK    7  A    between atoms: S_11  and  C_12 
ROOT
HETATM    1  N   UNL     1     -42.709  57.168 -54.738  1.00  0.00    -0.348 N 
HETATM    2  C   UNL     1     -44.039  57.148 -55.100  1.00  0.00     0.228 C 
HETATM    3  O   UNL     1     -44.934  56.730 -54.372  1.00  0.00    -0.273 OA
HETATM    4  H   UNL     1     -42.014  57.376 -55.442  1.00  0.00     0.163 HD
ENDROOT
BRANCH   1   5
HETATM    5  C   UNL     1     -42.245  56.595 -53.485  1.00  0.00     0.151 C 
BRANCH   5   6
HETATM    6  C   UNL     1     -41.414  57.563 -52.648  1.00  0.00    -0.031 A 
HETATM    7  C   UNL     1     -41.642  57.636 -51.264  1.00  0.00     0.012 A 
HETATM    8  C   UNL     1     -40.860  58.463 -50.454  1.00  0.00     0.037 A 
HETATM    9  C   UNL     1     -39.824  59.221 -51.001  1.00  0.00     0.068 A 
HETATM   10  C   UNL     1     -39.598  59.172 -52.376  1.00  0.00     0.037 A 
HETATM   11  C   UNL     1     -40.386  58.350 -53.192  1.00  0.00     0.012 A 
BRANCH   9  12
HETATM   12  O   UNL     1     -39.120  59.966 -50.097  1.00  0.00    -0.356 OA
HETATM   13  C   UNL     1     -37.741  59.650 -49.952  1.00  0.00     0.210 C 
ENDBRANCH   9  12
ENDBRANCH   5   6
BRANCH   5  14
HETATM   14  C   UNL     1     -41.509  55.288 -53.767  1.00  0.00    -0.031 A 
HETATM   15  C   UNL     1     -41.562  54.241 -52.834  1.00  0.00     0.009 A 
HETATM   16  C   UNL     1     -40.900  53.035 -53.079  1.00  0.00     0.001 A 
HETATM   17  C   UNL     1     -40.183  52.858 -54.260  1.00  0.00     0.000 A 
HETATM   18  C   UNL     1     -40.127  53.884 -55.200  1.00  0.00     0.001 A 
HETATM   19  C   UNL     1     -40.786  55.090 -54.957  1.00  0.00     0.009 A 
ENDBRANCH   5  14
ENDBRANCH   1   5
BRANCH   2  20
HETATM   20  C   UNL     1     -44.302  57.663 -56.502  1.00  0.00     0.185 C 
BRANCH  20  21
HETATM   21  S   UNL     1     -42.829  57.341 -57.519  1.00  0.00    -0.081 SA
BRANCH  21  22
HETATM   22  C   UNL     1     -42.270  58.954 -57.779  1.00  0.00     0.192 A 
HETATM   23  N   UNL     1     -42.412  59.633 -58.962  1.00  0.00    -0.311 N 
HETATM   24  C   UNL     1     -41.742  60.822 -58.779  1.00  0.00     0.130 A 
HETATM   25  C   UNL     1     -43.075  59.155 -60.159  1.00  0.00     0.133 C 
HETATM   26  C   UNL     1     -41.538  61.886 -59.803  1.00  0.00     0.081 C 
HETATM   27  N   UNL     1     -41.284  60.866 -57.542  1.00  0.00    -0.134 NA
HETATM   28  C   UNL     1     -41.249  61.327 -61.191  1.00  0.00     0.008 C 
HETATM   29  C   UNL     1     -42.503  60.893 -61.950  1.00  0.00     0.002 C 
HETATM   30  C   UNL     1     -43.592  60.233 -61.105  1.00  0.00     0.020 C 
HETATM   31  N   UNL     1     -41.613  59.691 -56.918  1.00  0.00    -0.123 NA
ENDBRANCH  21  22
ENDBRANCH  20  21
ENDBRANCH   2  20
TORSDOF 7
ENDMDL
MODEL 8
REMARK VINA RESULT:      -6.9      3.113      7.059
REMARK  7 active torsions:
REMARK  status: ('A' for Active; 'I' for Inactive)
REMARK    1  A    between atoms: O_2  and  C_3 
REMARK    2  A    between atoms: C_6  and  C_7 
REMARK    3  A    between atoms: C_7  and  N_8 
REMARK    4  A    between atoms: C_7  and  C_23 
REMARK       I    between atoms: N_8  and  C_9 
REMARK    5  A    between atoms: C_9  and  C_10 
REMARK    6  A    between atoms: C_10  and  S_11 
REMARK    7  A    between atoms: S_11  and  C_12 
ROOT
HETATM    1  N   UNL     1     -41.938  55.127 -54.620  1.00  0.00    -0.348 N 
HETATM    2  C   UNL     1     -43.135  55.050 -55.300  1.00  0.00     0.228 C 
HETATM    3  O   UNL     1     -44.218  54.879 -54.749  1.00  0.00    -0.273 OA
HETATM    4  H   UNL     1     -41.076  55.111 -55.147  1.00  0.00     0.163 HD
ENDROOT
BRANCH   1   5
HETATM    5  C   UNL     1     -41.853  54.909 -53.185  1.00  0.00     0.151 C 
BRANCH   5   6
HETATM    6  C   UNL     1     -41.373  56.134 -52.414  1.00  0.00    -0.031 A 
HETATM    7  C   UNL     1     -40.869  57.234 -53.129  1.00  0.00     0.012 A 
HETATM    8  C   UNL     1     -40.478  58.399 -52.464  1.00  0.00     0.037 A 
HETATM    9  C   UNL     1     -40.597  58.501 -51.078  1.00  0.00     0.068 A 
HETATM   10  C   UNL     1     -41.080  57.411 -50.354  1.00  0.00     0.037 A 
HETATM   11  C   UNL     1     -41.465  56.238 -51.017  1.00  0.00     0.012 A 
BRANCH   9  12
HETATM   12  O   UNL     1     -40.205  59.702 -50.556  1.00  0.00    -0.356 OA
HETATM   13  C   UNL     1     -38.817  59.851 -50.281  1.00  0.00     0.210 C 
ENDBRANCH   9  12
ENDBRANCH   5   6
BRANCH   5  14
HETATM   14  C   UNL     1     -40.999  53.675 -52.910  1.00  0.00    -0.031 A 
HETATM   15  C   UNL     1     -40.490  52.923 -53.981  1.00  0.00     0.009 A 
HETATM   16  C   UNL     1     -39.701  51.795 -53.748  1.00  0.00     0.001 A 
HETATM   17  C   UNL     1     -39.403  51.407 -52.443  1.00  0.00     0.000 A 
HETATM   18  C   UNL     1     -39.892  52.146 -51.370  1.00  0.00     0.001 A 
HETATM   19  C   UNL     1     -40.683  53.273 -51.600  1.00  0.00     0.009 A 
ENDBRANCH   5  14
ENDBRANCH   1   5
BRANCH   2  20
HETATM   20  C   UNL     1     -42.995  55.165 -56.806  1.00  0.00     0.185 C 
BRANCH  20  21
HETATM   21  S   UNL     1     -42.563  56.884 -57.214  1.00  0.00    -0.081 SA
BRANCH  21  22
HETATM   22  C   UNL     1     -44.089  57.657 -56.973  1.00  0.00     0.192 A 
HETATM   23  N   UNL     1     -45.099  57.664 -57.899  1.00  0.00    -0.311 N 
HETATM   24  C   UNL     1     -46.077  58.470 -57.362  1.00  0.00     0.130 A 
HETATM   25  C   UNL     1     -45.090  57.010 -59.193  1.00  0.00     0.133 C 
HETATM   26  C   UNL     1     -47.357  58.860 -58.018  1.00  0.00     0.081 C 
HETATM   27  N   UNL     1     -45.691  58.864 -56.163  1.00  0.00    -0.134 NA
HETATM   28  C   UNL     1     -47.198  59.149 -59.506  1.00  0.00     0.008 C 
HETATM   29  C   UNL     1     -47.183  57.891 -60.375  1.00  0.00     0.002 C 
HETATM   30  C   UNL     1     -46.460  56.684 -59.780  1.00  0.00     0.020 C 
HETATM   31  N   UNL     1     -44.442  58.356 -55.922  1.00  0.00    -0.123 NA
ENDBRANCH  21  22
ENDBRANCH  20  21
ENDBRANCH   2  20
TORSDOF 7
ENDMDL
MODEL 9
REMARK VINA RESULT:      -6.8      2.881      7.656
REMARK  7 active torsions:
REMARK  status: ('A' for Active; 'I' for Inactive)
REMARK    1  A    between atoms: O_2  and  C_3 
REMARK    2  A    between atoms: C_6  and  C_7 
REMARK    3  A    between atoms: C_7  and  N_8 
REMARK    4  A    between atoms: C_7  and  C_23 
REMARK       I    between atoms: N_8  and  C_9 
REMARK    5  A    between atoms: C_9  and  C_10 
REMARK    6  A    between atoms: C_10  and  S_11 
REMARK    7  A    between atoms: S_11  and  C_12 
ROOT
HETATM    1  N   UNL     1     -41.978  54.783 -54.577  1.00  0.00    -0.348 N 
HETATM    2  C   UNL     1     -43.171  55.074 -55.204  1.00  0.00     0.228 C 
HETATM    3  O   UNL     1     -44.258  55.057 -54.636  1.00  0.00    -0.273 OA
HETATM    4  H   UNL     1     -41.147  54.663 -55.139  1.00  0.00     0.163 HD
ENDROOT
BRANCH   1   5
HETATM    5  C   UNL     1     -41.926  54.329 -53.196  1.00  0.00     0.151 C 
BRANCH   5   6
HETATM    6  C   UNL     1     -41.576  55.438 -52.208  1.00  0.00    -0.031 A 
HETATM    7  C   UNL     1     -41.196  56.696 -52.704  1.00  0.00     0.012 A 
HETATM    8  C   UNL     1     -40.929  57.755 -51.833  1.00  0.00     0.037 A 
HETATM    9  C   UNL     1     -41.050  57.589 -50.453  1.00  0.00     0.068 A 
HETATM   10  C   UNL     1     -41.409  56.340 -49.947  1.00  0.00     0.037 A 
HETATM   11  C   UNL     1     -41.670  55.274 -50.817  1.00  0.00     0.012 A 
BRANCH   9  12
HETATM   12  O   UNL     1     -40.786  58.710 -49.716  1.00  0.00    -0.356 OA
HETATM   13  C   UNL     1     -40.923  59.957 -50.386  1.00  0.00     0.210 C 
ENDBRANCH   9  12
ENDBRANCH   5   6
BRANCH   5  14
HETATM   14  C   UNL     1     -40.984  53.134 -53.091  1.00  0.00    -0.031 A 
HETATM   15  C   UNL     1     -40.818  52.275 -54.189  1.00  0.00     0.009 A 
HETATM   16  C   UNL     1     -39.954  51.180 -54.112  1.00  0.00     0.001 A 
HETATM   17  C   UNL     1     -39.240  50.932 -52.941  1.00  0.00     0.000 A 
HETATM   18  C   UNL     1     -39.386  51.780 -51.846  1.00  0.00     0.001 A 
HETATM   19  C   UNL     1     -40.250  52.874 -51.919  1.00  0.00     0.009 A 
ENDBRANCH   5  14
ENDBRANCH   1   5
BRANCH   2  20
HETATM   20  C   UNL     1     -43.027  55.391 -56.681  1.00  0.00     0.185 C 
BRANCH  20  21
HETATM   21  S   UNL     1     -43.562  57.107 -56.956  1.00  0.00    -0.081 SA
BRANCH  21  22
HETATM   22  C   UNL     1     -42.908  57.391 -58.529  1.00  0.00     0.192 A 
HETATM   23  N   UNL     1     -42.497  58.619 -58.978  1.00  0.00    -0.311 N 
HETATM   24  C   UNL     1     -42.154  58.425 -60.298  1.00  0.00     0.130 A 
HETATM   25  C   UNL     1     -42.494  59.858 -58.227  1.00  0.00     0.133 C 
HETATM   26  C   UNL     1     -41.713  59.477 -61.257  1.00  0.00     0.081 C 
HETATM   27  N   UNL     1     -42.297  57.146 -60.591  1.00  0.00    -0.134 NA
HETATM   28  C   UNL     1     -42.479  60.785 -61.100  1.00  0.00     0.008 C 
HETATM   29  C   UNL     1     -41.962  61.664 -59.962  1.00  0.00     0.002 C 
HETATM   30  C   UNL     1     -41.511  60.921 -58.704  1.00  0.00     0.020 C 
HETATM   31  N   UNL     1     -42.774  56.500 -59.481  1.00  0.00    -0.123 NA
ENDBRANCH  21  22
ENDBRANCH  20  21
ENDBRANCH   2  20
TORSDOF 7
ENDMDL
MODEL 10
REMARK VINA RESULT:      -6.8      2.070      4.541
REMARK  7 active torsions:
REMARK  status: ('A' for Active; 'I' for Inactive)
REMARK    1  A    between atoms: O_2  and  C_3 
REMARK    2  A    between atoms: C_6  and  C_7 
REMARK    3  A    between atoms: C_7  and  N_8 
REMARK    4  A    between atoms: C_7  and  C_23 
REMARK       I    between atoms: N_8  and  C_9 
REMARK    5  A    between atoms: C_9  and  C_10 
REMARK    6  A    between atoms: C_10  and  S_11 
REMARK    7  A    between atoms: S_11  and  C_12 
ROOT
HETATM    1  N   UNL     1     -43.876  57.466 -54.555  1.00  0.00    -0.348 N 
HETATM    2  C   UNL     1     -43.974  58.771 -54.120  1.00  0.00     0.228 C 
HETATM    3  O   UNL     1     -43.290  59.687 -54.565  1.00  0.00    -0.273 OA
HETATM    4  H   UNL     1     -44.354  56.741 -54.038  1.00  0.00     0.163 HD
ENDROOT
BRANCH   1   5
HETATM    5  C   UNL     1     -42.870  57.051 -55.519  1.00  0.00     0.151 C 
BRANCH   5   6
HETATM    6  C   UNL     1     -43.406  56.936 -56.942  1.00  0.00    -0.031 A 
HETATM    7  C   UNL     1     -42.842  55.984 -57.808  1.00  0.00     0.012 A 
HETATM    8  C   UNL     1     -43.347  55.804 -59.098  1.00  0.00     0.037 A 
HETATM    9  C   UNL     1     -44.434  56.554 -59.547  1.00  0.00     0.068 A 
HETATM   10  C   UNL     1     -44.993  57.515 -58.705  1.00  0.00     0.037 A 
HETATM   11  C   UNL     1     -44.483  57.704 -57.413  1.00  0.00     0.012 A 
BRANCH   9  12
HETATM   12  O   UNL     1     -44.846  56.262 -60.818  1.00  0.00    -0.356 OA
HETATM   13  C   UNL     1     -45.025  54.885 -61.125  1.00  0.00     0.210 C 
ENDBRANCH   9  12
ENDBRANCH   5   6
BRANCH   5  14
HETATM   14  C   UNL     1     -42.210  55.761 -55.039  1.00  0.00    -0.031 A 
HETATM   15  C   UNL     1     -42.989  54.612 -54.832  1.00  0.00     0.009 A 
HETATM   16  C   UNL     1     -42.400  53.421 -54.399  1.00  0.00     0.001 A 
HETATM   17  C   UNL     1     -41.027  53.361 -54.174  1.00  0.00     0.000 A 
HETATM   18  C   UNL     1     -40.238  54.490 -54.383  1.00  0.00     0.001 A 
HETATM   19  C   UNL     1     -40.823  55.681 -54.814  1.00  0.00     0.009 A 
ENDBRANCH   5  14
ENDBRANCH   1   5
BRANCH   2  20
HETATM   20  C   UNL     1     -44.989  58.974 -53.011  1.00  0.00     0.185 C 
BRANCH  20  21
HETATM   21  S   UNL     1     -44.141  59.716 -51.584  1.00  0.00    -0.081 SA
BRANCH  21  22
HETATM   22  C   UNL     1     -42.707  58.755 -51.537  1.00  0.00     0.192 A 
HETATM   23  N   UNL     1     -42.692  57.412 -51.262  1.00  0.00    -0.311 N 
HETATM   24  C   UNL     1     -41.360  57.067 -51.217  1.00  0.00     0.130 A 
HETATM   25  C   UNL     1     -43.844  56.569 -51.011  1.00  0.00     0.133 C 
HETATM   26  C   UNL     1     -40.809  55.724 -50.876  1.00  0.00     0.081 C 
HETATM   27  N   UNL     1     -40.635  58.130 -51.508  1.00  0.00    -0.134 NA
HETATM   28  C   UNL     1     -41.569  55.039 -49.747  1.00  0.00     0.008 C 
HETATM   29  C   UNL     1     -42.854  54.349 -50.204  1.00  0.00     0.002 C 
HETATM   30  C   UNL     1     -43.649  55.081 -51.285  1.00  0.00     0.020 C 
HETATM   31  N   UNL     1     -41.482  59.189 -51.705  1.00  0.00    -0.123 NA
ENDBRANCH  21  22
ENDBRANCH  20  21
ENDBRANCH   2  20
TORSDOF 7
ENDMDL
