MODEL 1
REMARK VINA RESULT:      -9.3      0.000      0.000
REMARK  5 active torsions:
REMARK  status: ('A' for Active; 'I' for Inactive)
REMARK    1  A    between atoms: C_7  and  C_8 
REMARK    2  A    between atoms: C_16  and  C_17 
REMARK    3  A    between atoms: C_20  and  O_21 
REMARK    4  A    between atoms: C_24  and  C_25 
REMARK       I    between atoms: C_25  and  N_26 
REMARK    5  A    between atoms: N_26  and  C_27 
ROOT
HETATM    1  C   UNL     1     -43.708  57.743 -53.691  1.00  0.00     0.070 C 
HETATM    2  C   UNL     1     -43.314  57.930 -55.136  1.00  0.00     0.037 C 
HETATM    3  N   UNL     1     -43.344  59.247 -55.603  1.00  0.00    -0.192 N 
HETATM    4  C   UNL     1     -42.740  59.612 -56.752  1.00  0.00     0.726 A 
HETATM    5  N   UNL     1     -42.345  58.645 -57.628  1.00  0.00    -0.083 N 
HETATM    6  N   UNL     1     -41.652  59.157 -58.662  1.00  0.00    -0.135 NA
HETATM    7  C   UNL     1     -41.672  60.472 -58.361  1.00  0.00     0.200 A 
HETATM    8  N   UNL     1     -42.372  60.779 -57.207  1.00  0.00    -0.041 NA
HETATM    9  C   UNL     1     -42.583  57.217 -57.423  1.00  0.00     0.202 C 
HETATM   10  C   UNL     1     -42.931  56.924 -55.965  1.00  0.00     0.062 C 
HETATM   11  H   UNL     1     -43.489  59.972 -54.903  1.00  0.00     0.184 HD
ENDROOT
BRANCH  10  12
HETATM   12  C   UNL     1     -42.607  55.565 -55.429  1.00  0.00     0.256 C 
HETATM   13  N   UNL     1     -41.371  55.459 -54.829  1.00  0.00    -0.323 N 
HETATM   14  H   UNL     1     -40.737  56.244 -54.886  1.00  0.00     0.169 HD
HETATM   15  O   UNL     1     -43.455  54.680 -55.496  1.00  0.00    -0.267 OA
BRANCH  13  16
HETATM   16  C   UNL     1     -40.867  54.355 -54.104  1.00  0.00     0.035 A 
HETATM   17  C   UNL     1     -40.359  53.195 -54.692  1.00  0.00     0.029 A 
HETATM   18  C   UNL     1     -39.900  52.139 -53.897  1.00  0.00     0.002 A 
HETATM   19  C   UNL     1     -39.953  52.229 -52.510  1.00  0.00     0.000 A 
HETATM   20  C   UNL     1     -40.457  53.382 -51.912  1.00  0.00     0.002 A 
HETATM   21  C   UNL     1     -40.905  54.441 -52.706  1.00  0.00     0.029 A 
ENDBRANCH  13  16
ENDBRANCH  10  12
BRANCH   9  22
HETATM   22  C   UNL     1     -43.653  56.750 -58.413  1.00  0.00    -0.028 A 
HETATM   23  C   UNL     1     -43.413  55.616 -59.214  1.00  0.00     0.012 A 
HETATM   24  C   UNL     1     -44.373  55.171 -60.127  1.00  0.00     0.037 A 
HETATM   25  C   UNL     1     -45.576  55.858 -60.249  1.00  0.00     0.065 A 
HETATM   26  C   UNL     1     -45.830  56.985 -59.479  1.00  0.00     0.037 A 
HETATM   27  C   UNL     1     -44.871  57.436 -58.573  1.00  0.00     0.012 A 
BRANCH  25  28
HETATM   28  O   UNL     1     -46.538  55.460 -61.127  1.00  0.00    -0.361 OA
HETATM   29  H   UNL     1     -47.130  56.208 -61.306  1.00  0.00     0.217 HD
ENDBRANCH  25  28
ENDBRANCH   9  22
BRANCH   7  30
HETATM   30  C   UNL     1     -41.037  61.481 -59.199  1.00  0.00     0.036 A 
HETATM   31  C   UNL     1     -41.333  61.642 -60.562  1.00  0.00     0.048 A 
HETATM   32 CL   UNL     1     -42.524  60.700 -61.394  1.00  0.00    -0.083 Cl
HETATM   33  C   UNL     1     -40.691  62.639 -61.309  1.00  0.00     0.025 A 
HETATM   34  C   UNL     1     -39.756  63.484 -60.710  1.00  0.00     0.002 A 
HETATM   35  C   UNL     1     -39.460  63.340 -59.358  1.00  0.00     0.001 A 
HETATM   36  C   UNL     1     -40.097  62.348 -58.609  1.00  0.00     0.017 A 
ENDBRANCH   7  30
TORSDOF 5
ENDMDL
MODEL 2
REMARK VINA RESULT:      -9.3      3.184      8.953
REMARK  5 active torsions:
REMARK  status: ('A' for Active; 'I' for Inactive)
REMARK    1  A    between atoms: C_7  and  C_8 
REMARK    2  A    between atoms: C_16  and  C_17 
REMARK    3  A    between atoms: C_20  and  O_21 
REMARK    4  A    between atoms: C_24  and  C_25 
REMARK       I    between atoms: C_25  and  N_26 
REMARK    5  A    between atoms: N_26  and  C_27 
ROOT
HETATM    1  C   UNL     1     -44.805  57.917 -57.487  1.00  0.00     0.070 C 
HETATM    2  C   UNL     1     -43.854  57.615 -56.355  1.00  0.00     0.037 C 
HETATM    3  N   UNL     1     -43.941  56.326 -55.822  1.00  0.00    -0.192 N 
HETATM    4  C   UNL     1     -42.976  55.812 -55.033  1.00  0.00     0.726 A 
HETATM    5  N   UNL     1     -42.043  56.649 -54.499  1.00  0.00    -0.083 N 
HETATM    6  N   UNL     1     -41.081  55.974 -53.841  1.00  0.00    -0.135 NA
HETATM    7  C   UNL     1     -41.503  54.702 -54.000  1.00  0.00     0.200 A 
HETATM    8  N   UNL     1     -42.691  54.582 -54.698  1.00  0.00    -0.041 NA
HETATM    9  C   UNL     1     -42.048  58.099 -54.687  1.00  0.00     0.202 C 
HETATM   10  C   UNL     1     -42.943  58.494 -55.859  1.00  0.00     0.062 C 
HETATM   11  H   UNL     1     -44.530  55.667 -56.328  1.00  0.00     0.184 HD
ENDROOT
BRANCH  10  12
HETATM   12  C   UNL     1     -42.623  59.763 -56.587  1.00  0.00     0.256 C 
HETATM   13  N   UNL     1     -41.770  59.616 -57.659  1.00  0.00    -0.323 N 
HETATM   14  H   UNL     1     -41.340  58.714 -57.813  1.00  0.00     0.169 HD
HETATM   15  O   UNL     1     -43.169  60.804 -56.237  1.00  0.00    -0.267 OA
BRANCH  13  16
HETATM   16  C   UNL     1     -41.422  60.599 -58.612  1.00  0.00     0.035 A 
HETATM   17  C   UNL     1     -40.641  61.722 -58.333  1.00  0.00     0.029 A 
HETATM   18  C   UNL     1     -40.362  62.660 -59.334  1.00  0.00     0.002 A 
HETATM   19  C   UNL     1     -40.867  62.487 -60.619  1.00  0.00     0.000 A 
HETATM   20  C   UNL     1     -41.647  61.370 -60.909  1.00  0.00     0.002 A 
HETATM   21  C   UNL     1     -41.916  60.428 -59.913  1.00  0.00     0.029 A 
ENDBRANCH  13  16
ENDBRANCH  10  12
BRANCH   9  22
HETATM   22  C   UNL     1     -42.441  58.765 -53.366  1.00  0.00    -0.028 A 
HETATM   23  C   UNL     1     -41.448  59.357 -52.562  1.00  0.00     0.012 A 
HETATM   24  C   UNL     1     -41.780  59.969 -51.350  1.00  0.00     0.037 A 
HETATM   25  C   UNL     1     -43.107  59.989 -50.932  1.00  0.00     0.065 A 
HETATM   26  C   UNL     1     -44.102  59.401 -51.702  1.00  0.00     0.037 A 
HETATM   27  C   UNL     1     -43.772  58.783 -52.908  1.00  0.00     0.012 A 
BRANCH  25  28
HETATM   28  O   UNL     1     -43.475  60.572 -49.758  1.00  0.00    -0.361 OA
HETATM   29  H   UNL     1     -44.300  61.065 -49.896  1.00  0.00     0.217 HD
ENDBRANCH  25  28
ENDBRANCH   9  22
BRANCH   7  30
HETATM   30  C   UNL     1     -40.781  53.561 -53.453  1.00  0.00     0.036 A 
HETATM   31  C   UNL     1     -40.486  53.423 -52.088  1.00  0.00     0.048 A 
HETATM   32 CL   UNL     1     -40.989  54.564 -50.886  1.00  0.00    -0.083 Cl
HETATM   33  C   UNL     1     -39.796  52.294 -51.627  1.00  0.00     0.025 A 
HETATM   34  C   UNL     1     -39.398  51.293 -52.514  1.00  0.00     0.002 A 
HETATM   35  C   UNL     1     -39.692  51.414 -53.868  1.00  0.00     0.001 A 
HETATM   36  C   UNL     1     -40.380  52.537 -54.332  1.00  0.00     0.017 A 
ENDBRANCH   7  30
TORSDOF 5
ENDMDL
MODEL 3
REMARK VINA RESULT:      -8.8      2.863      8.535
REMARK  5 active torsions:
REMARK  status: ('A' for Active; 'I' for Inactive)
REMARK    1  A    between atoms: C_7  and  C_8 
REMARK    2  A    between atoms: C_16  and  C_17 
REMARK    3  A    between atoms: C_20  and  O_21 
REMARK    4  A    between atoms: C_24  and  C_25 
REMARK       I    between atoms: C_25  and  N_26 
REMARK    5  A    between atoms: N_26  and  C_27 
ROOT
HETATM    1  C   UNL     1     -43.956  55.698 -59.733  1.00  0.00     0.070 C 
HETATM    2  C   UNL     1     -43.367  55.986 -58.374  1.00  0.00     0.037 C 
HETATM    3  N   UNL     1     -43.610  55.021 -57.394  1.00  0.00    -0.192 N 
HETATM    4  C   UNL     1     -42.911  54.979 -56.241  1.00  0.00     0.726 A 
HETATM    5  N   UNL     1     -42.161  56.060 -55.884  1.00  0.00    -0.083 N 
HETATM    6  N   UNL     1     -41.430  55.819 -54.779  1.00  0.00    -0.135 NA
HETATM    7  C   UNL     1     -41.799  54.553 -54.495  1.00  0.00     0.200 A 
HETATM    8  N   UNL     1     -42.742  54.030 -55.362  1.00  0.00    -0.041 NA
HETATM    9  C   UNL     1     -42.103  57.300 -56.656  1.00  0.00     0.202 C 
HETATM   10  C   UNL     1     -42.627  57.087 -58.074  1.00  0.00     0.062 C 
HETATM   11  H   UNL     1     -44.036  54.152 -57.711  1.00  0.00     0.184 HD
ENDROOT
BRANCH  10  12
HETATM   12  C   UNL     1     -42.104  57.981 -59.154  1.00  0.00     0.256 C 
HETATM   13  N   UNL     1     -42.452  59.308 -59.025  1.00  0.00    -0.323 N 
HETATM   14  H   UNL     1     -43.108  59.567 -58.301  1.00  0.00     0.169 HD
HETATM   15  O   UNL     1     -41.373  57.508 -60.018  1.00  0.00    -0.267 OA
BRANCH  13  16
HETATM   16  C   UNL     1     -41.979  60.393 -59.797  1.00  0.00     0.035 A 
HETATM   17  C   UNL     1     -42.202  60.539 -61.168  1.00  0.00     0.029 A 
HETATM   18  C   UNL     1     -41.676  61.635 -61.861  1.00  0.00     0.002 A 
HETATM   19  C   UNL     1     -40.916  62.589 -61.192  1.00  0.00     0.000 A 
HETATM   20  C   UNL     1     -40.687  62.455 -59.824  1.00  0.00     0.002 A 
HETATM   21  C   UNL     1     -41.221  61.366 -59.131  1.00  0.00     0.029 A 
ENDBRANCH  13  16
ENDBRANCH  10  12
BRANCH   9  22
HETATM   22  C   UNL     1     -42.848  58.394 -55.886  1.00  0.00    -0.028 A 
HETATM   23  C   UNL     1     -42.138  59.504 -55.391  1.00  0.00     0.012 A 
HETATM   24  C   UNL     1     -42.795  60.514 -54.683  1.00  0.00     0.037 A 
HETATM   25  C   UNL     1     -44.165  60.419 -54.463  1.00  0.00     0.065 A 
HETATM   26  C   UNL     1     -44.884  59.328 -54.931  1.00  0.00     0.037 A 
HETATM   27  C   UNL     1     -44.230  58.314 -55.631  1.00  0.00     0.012 A 
BRANCH  25  28
HETATM   28  O   UNL     1     -44.845  61.379 -53.777  1.00  0.00    -0.361 OA
HETATM   29  H   UNL     1     -45.123  61.018 -52.920  1.00  0.00     0.217 HD
ENDBRANCH  25  28
ENDBRANCH   9  22
BRANCH   7  30
HETATM   30  C   UNL     1     -41.270  53.817 -53.354  1.00  0.00     0.036 A 
HETATM   31  C   UNL     1     -41.671  54.064 -52.031  1.00  0.00     0.048 A 
HETATM   32 CL   UNL     1     -42.875  55.231 -51.603  1.00  0.00    -0.083 Cl
HETATM   33  C   UNL     1     -41.128  53.312 -50.980  1.00  0.00     0.025 A 
HETATM   34  C   UNL     1     -40.190  52.311 -51.232  1.00  0.00     0.002 A 
HETATM   35  C   UNL     1     -39.792  52.051 -52.540  1.00  0.00     0.001 A 
HETATM   36  C   UNL     1     -40.330  52.797 -53.591  1.00  0.00     0.017 A 
ENDBRANCH   7  30
TORSDOF 5
ENDMDL
MODEL 4
REMARK VINA RESULT:      -8.6      4.628      7.300
REMARK  5 active torsions:
REMARK  status: ('A' for Active; 'I' for Inactive)
REMARK    1  A    between atoms: C_7  and  C_8 
REMARK    2  A    between atoms: C_16  and  C_17 
REMARK    3  A    between atoms: C_20  and  O_21 
REMARK    4  A    between atoms: C_24  and  C_25 
REMARK       I    between atoms: C_25  and  N_26 
REMARK    5  A    between atoms: N_26  and  C_27 
ROOT
HETATM    1  C   UNL     1     -43.263  56.354 -56.447  1.00  0.00     0.070 C 
HETATM    2  C   UNL     1     -43.394  57.164 -55.180  1.00  0.00     0.037 C 
HETATM    3  N   UNL     1     -43.965  58.430 -55.330  1.00  0.00    -0.192 N 
HETATM    4  C   UNL     1     -44.423  59.138 -54.277  1.00  0.00     0.726 A 
HETATM    5  N   UNL     1     -44.064  58.757 -53.018  1.00  0.00    -0.083 N 
HETATM    6  N   UNL     1     -44.697  59.481 -52.075  1.00  0.00    -0.135 NA
HETATM    7  C   UNL     1     -45.431  60.316 -52.840  1.00  0.00     0.200 A 
HETATM    8  N   UNL     1     -45.248  60.147 -54.200  1.00  0.00    -0.041 NA
HETATM    9  C   UNL     1     -43.160  57.644 -52.732  1.00  0.00     0.202 C 
HETATM   10  C   UNL     1     -43.014  56.732 -53.948  1.00  0.00     0.062 C 
HETATM   11  H   UNL     1     -44.368  58.640 -56.242  1.00  0.00     0.184 HD
ENDROOT
BRANCH  10  12
HETATM   12  C   UNL     1     -42.677  55.294 -53.707  1.00  0.00     0.256 C 
HETATM   13  N   UNL     1     -41.331  55.000 -53.746  1.00  0.00    -0.323 N 
HETATM   14  H   UNL     1     -40.687  55.724 -54.037  1.00  0.00     0.169 HD
HETATM   15  O   UNL     1     -43.579  54.508 -53.434  1.00  0.00    -0.267 OA
BRANCH  13  16
HETATM   16  C   UNL     1     -40.715  53.776 -53.403  1.00  0.00     0.035 A 
HETATM   17  C   UNL     1     -40.414  52.764 -54.318  1.00  0.00     0.029 A 
HETATM   18  C   UNL     1     -39.823  51.571 -53.889  1.00  0.00     0.002 A 
HETATM   19  C   UNL     1     -39.535  51.375 -52.542  1.00  0.00     0.000 A 
HETATM   20  C   UNL     1     -39.830  52.377 -51.620  1.00  0.00     0.002 A 
HETATM   21  C   UNL     1     -40.410  53.573 -52.050  1.00  0.00     0.029 A 
ENDBRANCH  13  16
ENDBRANCH  10  12
BRANCH   9  22
HETATM   22  C   UNL     1     -41.829  58.209 -52.229  1.00  0.00    -0.028 A 
HETATM   23  C   UNL     1     -41.663  58.482 -50.857  1.00  0.00     0.012 A 
HETATM   24  C   UNL     1     -40.458  59.000 -50.372  1.00  0.00     0.037 A 
HETATM   25  C   UNL     1     -39.415  59.253 -51.256  1.00  0.00     0.065 A 
HETATM   26  C   UNL     1     -39.560  59.005 -52.614  1.00  0.00     0.037 A 
HETATM   27  C   UNL     1     -40.763  58.495 -53.102  1.00  0.00     0.012 A 
BRANCH  25  28
HETATM   28  O   UNL     1     -38.226  59.760 -50.828  1.00  0.00    -0.361 OA
HETATM   29  H   UNL     1     -38.337  60.704 -50.631  1.00  0.00     0.217 HD
ENDBRANCH  25  28
ENDBRANCH   9  22
BRANCH   7  30
HETATM   30  C   UNL     1     -46.316  61.326 -52.274  1.00  0.00     0.036 A 
HETATM   31  C   UNL     1     -46.026  62.021 -51.089  1.00  0.00     0.048 A 
HETATM   32 CL   UNL     1     -44.564  61.799 -50.189  1.00  0.00    -0.083 Cl
HETATM   33  C   UNL     1     -46.918  62.988 -50.604  1.00  0.00     0.025 A 
HETATM   34  C   UNL     1     -48.097  63.275 -51.292  1.00  0.00     0.002 A 
HETATM   35  C   UNL     1     -48.391  62.600 -52.472  1.00  0.00     0.001 A 
HETATM   36  C   UNL     1     -47.506  61.635 -52.959  1.00  0.00     0.017 A 
ENDBRANCH   7  30
TORSDOF 5
ENDMDL
MODEL 5
REMARK VINA RESULT:      -8.2      3.642      8.231
REMARK  5 active torsions:
REMARK  status: ('A' for Active; 'I' for Inactive)
REMARK    1  A    between atoms: C_7  and  C_8 
REMARK    2  A    between atoms: C_16  and  C_17 
REMARK    3  A    between atoms: C_20  and  O_21 
REMARK    4  A    between atoms: C_24  and  C_25 
REMARK       I    between atoms: C_25  and  N_26 
REMARK    5  A    between atoms: N_26  and  C_27 
ROOT
HETATM    1  C   UNL     1     -42.501  60.629 -53.263  1.00  0.00     0.070 C 
HETATM    2  C   UNL     1     -42.450  59.241 -53.855  1.00  0.00     0.037 C 
HETATM    3  N   UNL     1     -41.338  58.474 -53.498  1.00  0.00    -0.192 N 
HETATM    4  C   UNL     1     -41.298  57.139 -53.690  1.00  0.00     0.726 A 
HETATM    5  N   UNL     1     -42.222  56.561 -54.508  1.00  0.00    -0.083 N 
HETATM    6  N   UNL     1     -42.129  55.218 -54.500  1.00  0.00    -0.135 NA
HETATM    7  C   UNL     1     -41.097  55.036 -53.651  1.00  0.00     0.200 A 
HETATM    8  N   UNL     1     -40.544  56.209 -53.171  1.00  0.00    -0.041 NA
HETATM    9  C   UNL     1     -43.239  57.311 -55.244  1.00  0.00     0.202 C 
HETATM   10  C   UNL     1     -43.403  58.717 -54.671  1.00  0.00     0.062 C 
HETATM   11  H   UNL     1     -40.739  58.858 -52.769  1.00  0.00     0.184 HD
ENDROOT
BRANCH  10  12
HETATM   12  C   UNL     1     -44.731  59.389 -54.834  1.00  0.00     0.256 C 
HETATM   13  N   UNL     1     -44.941  59.962 -56.070  1.00  0.00    -0.323 N 
HETATM   14  H   UNL     1     -44.173  59.992 -56.725  1.00  0.00     0.169 HD
HETATM   15  O   UNL     1     -45.544  59.333 -53.917  1.00  0.00    -0.267 OA
BRANCH  13  16
HETATM   16  C   UNL     1     -46.145  60.519 -56.557  1.00  0.00     0.035 A 
HETATM   17  C   UNL     1     -46.668  61.745 -56.142  1.00  0.00     0.029 A 
HETATM   18  C   UNL     1     -47.880  62.212 -56.662  1.00  0.00     0.002 A 
HETATM   19  C   UNL     1     -48.584  61.455 -57.593  1.00  0.00     0.000 A 
HETATM   20  C   UNL     1     -48.072  60.230 -58.015  1.00  0.00     0.002 A 
HETATM   21  C   UNL     1     -46.856  59.769 -57.504  1.00  0.00     0.029 A 
ENDBRANCH  13  16
ENDBRANCH  10  12
BRANCH   9  22
HETATM   22  C   UNL     1     -42.882  57.295 -56.732  1.00  0.00    -0.028 A 
HETATM   23  C   UNL     1     -42.161  58.371 -57.287  1.00  0.00     0.012 A 
HETATM   24  C   UNL     1     -41.824  58.381 -58.643  1.00  0.00     0.037 A 
HETATM   25  C   UNL     1     -42.209  57.319 -59.454  1.00  0.00     0.065 A 
HETATM   26  C   UNL     1     -42.930  56.253 -58.933  1.00  0.00     0.037 A 
HETATM   27  C   UNL     1     -43.275  56.244 -57.581  1.00  0.00     0.012 A 
BRANCH  25  28
HETATM   28  O   UNL     1     -41.904  57.288 -60.781  1.00  0.00    -0.361 OA
HETATM   29  H   UNL     1     -42.541  56.716 -61.238  1.00  0.00     0.217 HD
ENDBRANCH  25  28
ENDBRANCH   9  22
BRANCH   7  30
HETATM   30  C   UNL     1     -40.592  53.715 -53.300  1.00  0.00     0.036 A 
HETATM   31  C   UNL     1     -40.347  53.316 -51.977  1.00  0.00     0.048 A 
HETATM   32 CL   UNL     1     -40.664  54.323 -50.604  1.00  0.00    -0.083 Cl
HETATM   33  C   UNL     1     -39.869  52.026 -51.707  1.00  0.00     0.025 A 
HETATM   34  C   UNL     1     -39.635  51.123 -52.745  1.00  0.00     0.002 A 
HETATM   35  C   UNL     1     -39.883  51.504 -54.060  1.00  0.00     0.001 A 
HETATM   36  C   UNL     1     -40.359  52.789 -54.334  1.00  0.00     0.017 A 
ENDBRANCH   7  30
TORSDOF 5
ENDMDL
MODEL 6
REMARK VINA RESULT:      -8.1      4.320      5.790
REMARK  5 active torsions:
REMARK  status: ('A' for Active; 'I' for Inactive)
REMARK    1  A    between atoms: C_7  and  C_8 
REMARK    2  A    between atoms: C_16  and  C_17 
REMARK    3  A    between atoms: C_20  and  O_21 
REMARK    4  A    between atoms: C_24  and  C_25 
REMARK       I    between atoms: C_25  and  N_26 
REMARK    5  A    between atoms: N_26  and  C_27 
ROOT
HETATM    1  C   UNL     1     -44.128  54.981 -50.079  1.00  0.00     0.070 C 
HETATM    2  C   UNL     1     -43.693  56.157 -50.920  1.00  0.00     0.037 C 
HETATM    3  N   UNL     1     -44.436  57.328 -50.749  1.00  0.00    -0.192 N 
HETATM    4  C   UNL     1     -43.995  58.525 -51.187  1.00  0.00     0.726 A 
HETATM    5  N   UNL     1     -42.955  58.565 -52.067  1.00  0.00    -0.083 N 
HETATM    6  N   UNL     1     -42.553  59.826 -52.312  1.00  0.00    -0.135 NA
HETATM    7  C   UNL     1     -43.417  60.526 -51.547  1.00  0.00     0.200 A 
HETATM    8  N   UNL     1     -44.340  59.745 -50.875  1.00  0.00    -0.041 NA
HETATM    9  C   UNL     1     -42.309  57.374 -52.616  1.00  0.00     0.202 C 
HETATM   10  C   UNL     1     -42.646  56.137 -51.787  1.00  0.00     0.062 C 
HETATM   11  H   UNL     1     -45.106  57.331 -49.982  1.00  0.00     0.184 HD
ENDROOT
BRANCH  10  12
HETATM   12  C   UNL     1     -41.661  55.011 -51.778  1.00  0.00     0.256 C 
HETATM   13  N   UNL     1     -41.927  54.002 -52.680  1.00  0.00    -0.323 N 
HETATM   14  H   UNL     1     -42.798  54.029 -53.191  1.00  0.00     0.169 HD
HETATM   15  O   UNL     1     -40.680  55.082 -51.045  1.00  0.00    -0.267 OA
BRANCH  13  16
HETATM   16  C   UNL     1     -41.096  52.905 -53.001  1.00  0.00     0.035 A 
HETATM   17  C   UNL     1     -41.033  52.310 -54.262  1.00  0.00     0.029 A 
HETATM   18  C   UNL     1     -40.198  51.210 -54.488  1.00  0.00     0.002 A 
HETATM   19  C   UNL     1     -39.426  50.691 -53.454  1.00  0.00     0.000 A 
HETATM   20  C   UNL     1     -39.480  51.277 -52.191  1.00  0.00     0.002 A 
HETATM   21  C   UNL     1     -40.306  52.382 -51.969  1.00  0.00     0.029 A 
ENDBRANCH  13  16
ENDBRANCH  10  12
BRANCH   9  22
HETATM   22  C   UNL     1     -42.692  57.243 -54.093  1.00  0.00    -0.028 A 
HETATM   23  C   UNL     1     -43.941  57.720 -54.533  1.00  0.00     0.012 A 
HETATM   24  C   UNL     1     -44.315  57.611 -55.875  1.00  0.00     0.037 A 
HETATM   25  C   UNL     1     -43.444  57.020 -56.785  1.00  0.00     0.065 A 
HETATM   26  C   UNL     1     -42.212  56.531 -56.372  1.00  0.00     0.037 A 
HETATM   27  C   UNL     1     -41.840  56.632 -55.032  1.00  0.00     0.012 A 
BRANCH  25  28
HETATM   28  O   UNL     1     -43.769  56.891 -58.101  1.00  0.00    -0.361 OA
HETATM   29  H   UNL     1     -43.316  57.585 -58.607  1.00  0.00     0.217 HD
ENDBRANCH  25  28
ENDBRANCH   9  22
BRANCH   7  30
HETATM   30  C   UNL     1     -43.393  61.981 -51.464  1.00  0.00     0.036 A 
HETATM   31  C   UNL     1     -43.817  62.814 -52.511  1.00  0.00     0.048 A 
HETATM   32 CL   UNL     1     -44.466  62.216 -54.001  1.00  0.00    -0.083 Cl
HETATM   33  C   UNL     1     -43.776  64.208 -52.362  1.00  0.00     0.025 A 
HETATM   34  C   UNL     1     -43.321  64.782 -51.175  1.00  0.00     0.002 A 
HETATM   35  C   UNL     1     -42.906  63.966 -50.127  1.00  0.00     0.001 A 
HETATM   36  C   UNL     1     -42.944  62.577 -50.271  1.00  0.00     0.017 A 
ENDBRANCH   7  30
TORSDOF 5
ENDMDL
MODEL 7
REMARK VINA RESULT:      -8.0      4.372      8.797
REMARK  5 active torsions:
REMARK  status: ('A' for Active; 'I' for Inactive)
REMARK    1  A    between atoms: C_7  and  C_8 
REMARK    2  A    between atoms: C_16  and  C_17 
REMARK    3  A    between atoms: C_20  and  O_21 
REMARK    4  A    between atoms: C_24  and  C_25 
REMARK       I    between atoms: C_25  and  N_26 
REMARK    5  A    between atoms: N_26  and  C_27 
ROOT
HETATM    1  C   UNL     1     -42.893  61.041 -50.156  1.00  0.00     0.070 C 
HETATM    2  C   UNL     1     -43.010  59.838 -51.060  1.00  0.00     0.037 C 
HETATM    3  N   UNL     1     -41.841  59.090 -51.222  1.00  0.00    -0.192 N 
HETATM    4  C   UNL     1     -41.856  57.843 -51.737  1.00  0.00     0.726 A 
HETATM    5  N   UNL     1     -42.973  57.408 -52.385  1.00  0.00    -0.083 N 
HETATM    6  N   UNL     1     -42.879  56.110 -52.730  1.00  0.00    -0.135 NA
HETATM    7  C   UNL     1     -41.648  55.808 -52.270  1.00  0.00     0.200 A 
HETATM    8  N   UNL     1     -40.983  56.873 -51.689  1.00  0.00    -0.041 NA
HETATM    9  C   UNL     1     -44.158  58.235 -52.606  1.00  0.00     0.202 C 
HETATM   10  C   UNL     1     -44.155  59.453 -51.684  1.00  0.00     0.062 C 
HETATM   11  H   UNL     1     -41.060  59.334 -50.615  1.00  0.00     0.184 HD
ENDROOT
BRANCH  10  12
HETATM   12  C   UNL     1     -45.475  60.048 -51.307  1.00  0.00     0.256 C 
HETATM   13  N   UNL     1     -45.731  61.286 -51.858  1.00  0.00    -0.323 N 
HETATM   14  H   UNL     1     -44.992  61.748 -52.371  1.00  0.00     0.169 HD
HETATM   15  O   UNL     1     -46.246  59.396 -50.611  1.00  0.00    -0.267 OA
BRANCH  13  16
HETATM   16  C   UNL     1     -46.944  62.008 -51.807  1.00  0.00     0.035 A 
HETATM   17  C   UNL     1     -47.972  61.886 -52.744  1.00  0.00     0.029 A 
HETATM   18  C   UNL     1     -49.134  62.657 -52.630  1.00  0.00     0.002 A 
HETATM   19  C   UNL     1     -49.275  63.562 -51.582  1.00  0.00     0.000 A 
HETATM   20  C   UNL     1     -48.257  63.692 -50.640  1.00  0.00     0.002 A 
HETATM   21  C   UNL     1     -47.101  62.914 -50.749  1.00  0.00     0.029 A 
ENDBRANCH  13  16
ENDBRANCH  10  12
BRANCH   9  22
HETATM   22  C   UNL     1     -44.238  58.593 -54.092  1.00  0.00    -0.028 A 
HETATM   23  C   UNL     1     -45.183  57.948 -54.914  1.00  0.00     0.012 A 
HETATM   24  C   UNL     1     -45.274  58.255 -56.274  1.00  0.00     0.037 A 
HETATM   25  C   UNL     1     -44.419  59.205 -56.822  1.00  0.00     0.065 A 
HETATM   26  C   UNL     1     -43.471  59.845 -56.035  1.00  0.00     0.037 A 
HETATM   27  C   UNL     1     -43.373  59.534 -54.679  1.00  0.00     0.012 A 
BRANCH  25  28
HETATM   28  O   UNL     1     -44.472  59.533 -58.143  1.00  0.00    -0.361 OA
HETATM   29  H   UNL     1     -44.553  60.497 -58.226  1.00  0.00     0.217 HD
ENDBRANCH  25  28
ENDBRANCH   9  22
BRANCH   7  30
HETATM   30  C   UNL     1     -41.062  54.481 -52.405  1.00  0.00     0.036 A 
HETATM   31  C   UNL     1     -40.690  53.930 -53.641  1.00  0.00     0.048 A 
HETATM   32 CL   UNL     1     -40.834  54.778 -55.143  1.00  0.00    -0.083 Cl
HETATM   33  C   UNL     1     -40.123  52.649 -53.698  1.00  0.00     0.025 A 
HETATM   34  C   UNL     1     -39.916  51.910 -52.533  1.00  0.00     0.002 A 
HETATM   35  C   UNL     1     -40.272  52.449 -51.301  1.00  0.00     0.001 A 
HETATM   36  C   UNL     1     -40.838  53.725 -51.238  1.00  0.00     0.017 A 
ENDBRANCH   7  30
TORSDOF 5
ENDMDL
MODEL 8
REMARK VINA RESULT:      -8.0      3.880      5.793
REMARK  5 active torsions:
REMARK  status: ('A' for Active; 'I' for Inactive)
REMARK    1  A    between atoms: C_7  and  C_8 
REMARK    2  A    between atoms: C_16  and  C_17 
REMARK    3  A    between atoms: C_20  and  O_21 
REMARK    4  A    between atoms: C_24  and  C_25 
REMARK       I    between atoms: C_25  and  N_26 
REMARK    5  A    between atoms: N_26  and  C_27 
ROOT
HETATM    1  C   UNL     1     -40.522  54.761 -55.356  1.00  0.00     0.070 C 
HETATM    2  C   UNL     1     -41.704  55.697 -55.434  1.00  0.00     0.037 C 
HETATM    3  N   UNL     1     -41.921  56.291 -56.680  1.00  0.00    -0.192 N 
HETATM    4  C   UNL     1     -43.086  56.896 -56.990  1.00  0.00     0.726 A 
HETATM    5  N   UNL     1     -43.960  57.201 -55.990  1.00  0.00    -0.083 N 
HETATM    6  N   UNL     1     -45.121  57.685 -56.468  1.00  0.00    -0.135 NA
HETATM    7  C   UNL     1     -44.882  57.667 -57.795  1.00  0.00     0.200 A 
HETATM    8  N   UNL     1     -43.618  57.221 -58.138  1.00  0.00    -0.041 NA
HETATM    9  C   UNL     1     -43.691  56.956 -54.573  1.00  0.00     0.202 C 
HETATM   10  C   UNL     1     -42.542  55.966 -54.398  1.00  0.00     0.062 C 
HETATM   11  H   UNL     1     -41.360  55.939 -57.453  1.00  0.00     0.184 HD
ENDROOT
BRANCH  10  12
HETATM   12  C   UNL     1     -42.517  55.137 -53.153  1.00  0.00     0.256 C 
HETATM   13  N   UNL     1     -41.382  55.281 -52.384  1.00  0.00    -0.323 N 
HETATM   14  H   UNL     1     -40.616  55.829 -52.751  1.00  0.00     0.169 HD
HETATM   15  O   UNL     1     -43.498  54.456 -52.870  1.00  0.00    -0.267 OA
BRANCH  13  16
HETATM   16  C   UNL     1     -41.153  54.751 -51.094  1.00  0.00     0.035 A 
HETATM   17  C   UNL     1     -41.343  55.462 -49.907  1.00  0.00     0.029 A 
HETATM   18  C   UNL     1     -41.071  54.866 -48.671  1.00  0.00     0.002 A 
HETATM   19  C   UNL     1     -40.597  53.559 -48.610  1.00  0.00     0.000 A 
HETATM   20  C   UNL     1     -40.404  52.840 -49.788  1.00  0.00     0.002 A 
HETATM   21  C   UNL     1     -40.687  53.431 -51.022  1.00  0.00     0.029 A 
ENDBRANCH  13  16
ENDBRANCH  10  12
BRANCH   9  22
HETATM   22  C   UNL     1     -43.454  58.299 -53.878  1.00  0.00    -0.028 A 
HETATM   23  C   UNL     1     -44.438  58.820 -53.016  1.00  0.00     0.012 A 
HETATM   24  C   UNL     1     -44.246  60.046 -52.372  1.00  0.00     0.037 A 
HETATM   25  C   UNL     1     -43.071  60.759 -52.588  1.00  0.00     0.065 A 
HETATM   26  C   UNL     1     -42.092  60.271 -53.443  1.00  0.00     0.037 A 
HETATM   27  C   UNL     1     -42.285  59.052 -54.094  1.00  0.00     0.012 A 
BRANCH  25  28
HETATM   28  O   UNL     1     -42.844  61.957 -51.982  1.00  0.00    -0.361 OA
HETATM   29  H   UNL     1     -41.887  62.121 -51.956  1.00  0.00     0.217 HD
ENDBRANCH  25  28
ENDBRANCH   9  22
BRANCH   7  30
HETATM   30  C   UNL     1     -45.864  58.110 -58.778  1.00  0.00     0.036 A 
HETATM   31  C   UNL     1     -46.327  57.291 -59.819  1.00  0.00     0.048 A 
HETATM   32 CL   UNL     1     -45.830  55.646 -60.031  1.00  0.00    -0.083 Cl
HETATM   33  C   UNL     1     -47.280  57.778 -60.726  1.00  0.00     0.025 A 
HETATM   34  C   UNL     1     -47.781  59.074 -60.602  1.00  0.00     0.002 A 
HETATM   35  C   UNL     1     -47.336  59.891 -59.569  1.00  0.00     0.001 A 
HETATM   36  C   UNL     1     -46.387  59.412 -58.663  1.00  0.00     0.017 A 
ENDBRANCH   7  30
TORSDOF 5
ENDMDL
MODEL 9
REMARK VINA RESULT:      -8.0      2.065      2.835
REMARK  5 active torsions:
REMARK  status: ('A' for Active; 'I' for Inactive)
REMARK    1  A    between atoms: C_7  and  C_8 
REMARK    2  A    between atoms: C_16  and  C_17 
REMARK    3  A    between atoms: C_20  and  O_21 
REMARK    4  A    between atoms: C_24  and  C_25 
REMARK       I    between atoms: C_25  and  N_26 
REMARK    5  A    between atoms: N_26  and  C_27 
ROOT
HETATM    1  C   UNL     1     -44.151  61.280 -53.519  1.00  0.00     0.070 C 
HETATM    2  C   UNL     1     -43.443  60.866 -54.787  1.00  0.00     0.037 C 
HETATM    3  N   UNL     1     -43.400  61.832 -55.796  1.00  0.00    -0.192 N 
HETATM    4  C   UNL     1     -42.560  61.732 -56.846  1.00  0.00     0.726 A 
HETATM    5  N   UNL     1     -41.951  60.538 -57.095  1.00  0.00    -0.083 N 
HETATM    6  N   UNL     1     -41.054  60.630 -58.094  1.00  0.00    -0.135 NA
HETATM    7  C   UNL     1     -41.176  61.931 -58.432  1.00  0.00     0.200 A 
HETATM    8  N   UNL     1     -42.128  62.619 -57.701  1.00  0.00    -0.041 NA
HETATM    9  C   UNL     1     -42.192  59.324 -56.315  1.00  0.00     0.202 C 
HETATM   10  C   UNL     1     -42.856  59.656 -54.980  1.00  0.00     0.062 C 
HETATM   11  H   UNL     1     -43.720  62.765 -55.543  1.00  0.00     0.184 HD
ENDROOT
BRANCH  10  12
HETATM   12  C   UNL     1     -42.628  58.719 -53.835  1.00  0.00     0.256 C 
HETATM   13  N   UNL     1     -43.552  57.703 -53.725  1.00  0.00    -0.323 N 
HETATM   14  H   UNL     1     -44.360  57.718 -54.332  1.00  0.00     0.169 HD
HETATM   15  O   UNL     1     -41.634  58.869 -53.131  1.00  0.00    -0.267 OA
BRANCH  13  16
HETATM   16  C   UNL     1     -43.502  56.595 -52.850  1.00  0.00     0.035 A 
HETATM   17  C   UNL     1     -43.793  56.657 -51.486  1.00  0.00     0.029 A 
HETATM   18  C   UNL     1     -43.696  55.514 -50.685  1.00  0.00     0.002 A 
HETATM   19  C   UNL     1     -43.299  54.301 -51.239  1.00  0.00     0.000 A 
HETATM   20  C   UNL     1     -43.006  54.226 -52.599  1.00  0.00     0.002 A 
HETATM   21  C   UNL     1     -43.114  55.366 -53.400  1.00  0.00     0.029 A 
ENDBRANCH  13  16
ENDBRANCH  10  12
BRANCH   9  22
HETATM   22  C   UNL     1     -42.996  58.342 -57.170  1.00  0.00    -0.028 A 
HETATM   23  C   UNL     1     -42.552  57.012 -57.306  1.00  0.00     0.012 A 
HETATM   24  C   UNL     1     -43.267  56.097 -58.084  1.00  0.00     0.037 A 
HETATM   25  C   UNL     1     -44.427  56.505 -58.733  1.00  0.00     0.065 A 
HETATM   26  C   UNL     1     -44.878  57.814 -58.623  1.00  0.00     0.037 A 
HETATM   27  C   UNL     1     -44.162  58.732 -57.855  1.00  0.00     0.012 A 
BRANCH  25  28
HETATM   28  O   UNL     1     -45.153  55.647 -59.502  1.00  0.00    -0.361 OA
HETATM   29  H   UNL     1     -46.011  55.490 -59.075  1.00  0.00     0.217 HD
ENDBRANCH  25  28
ENDBRANCH   9  22
BRANCH   7  30
HETATM   30  C   UNL     1     -40.392  62.544 -59.497  1.00  0.00     0.036 A 
HETATM   31  C   UNL     1     -40.628  62.299 -60.858  1.00  0.00     0.048 A 
HETATM   32 CL   UNL     1     -41.907  61.285 -61.436  1.00  0.00    -0.083 Cl
HETATM   33  C   UNL     1     -39.841  62.930 -61.833  1.00  0.00     0.025 A 
HETATM   34  C   UNL     1     -38.822  63.808 -61.465  1.00  0.00     0.002 A 
HETATM   35  C   UNL     1     -38.585  64.065 -60.118  1.00  0.00     0.001 A 
HETATM   36  C   UNL     1     -39.365  63.439 -59.143  1.00  0.00     0.017 A 
ENDBRANCH   7  30
TORSDOF 5
ENDMDL
MODEL 10
REMARK VINA RESULT:      -7.6      4.957      8.827
REMARK  5 active torsions:
REMARK  status: ('A' for Active; 'I' for Inactive)
REMARK    1  A    between atoms: C_7  and  C_8 
REMARK    2  A    between atoms: C_16  and  C_17 
REMARK    3  A    between atoms: C_20  and  O_21 
REMARK    4  A    between atoms: C_24  and  C_25 
REMARK       I    between atoms: C_25  and  N_26 
REMARK    5  A    between atoms: N_26  and  C_27 
ROOT
HETATM    1  C   UNL     1     -42.086  60.871 -50.261  1.00  0.00     0.070 C 
HETATM    2  C   UNL     1     -42.438  59.660 -51.090  1.00  0.00     0.037 C 
HETATM    3  N   UNL     1     -41.353  58.913 -51.557  1.00  0.00    -0.192 N 
HETATM    4  C   UNL     1     -41.500  57.662 -52.039  1.00  0.00     0.726 A 
HETATM    5  N   UNL     1     -42.750  57.219 -52.357  1.00  0.00    -0.083 N 
HETATM    6  N   UNL     1     -42.747  55.918 -52.705  1.00  0.00    -0.135 NA
HETATM    7  C   UNL     1     -41.435  55.623 -52.594  1.00  0.00     0.200 A 
HETATM    8  N   UNL     1     -40.643  56.695 -52.222  1.00  0.00    -0.041 NA
HETATM    9  C   UNL     1     -43.954  58.041 -52.254  1.00  0.00     0.202 C 
HETATM   10  C   UNL     1     -43.707  59.267 -51.378  1.00  0.00     0.062 C 
HETATM   11  H   UNL     1     -40.438  59.164 -51.187  1.00  0.00     0.184 HD
ENDROOT
BRANCH  10  12
HETATM   12  C   UNL     1     -44.878  59.862 -50.661  1.00  0.00     0.256 C 
HETATM   13  N   UNL     1     -44.605  60.329 -49.394  1.00  0.00    -0.323 N 
HETATM   14  H   UNL     1     -43.694  60.145 -48.997  1.00  0.00     0.169 HD
HETATM   15  O   UNL     1     -45.952  59.953 -51.247  1.00  0.00    -0.267 OA
BRANCH  13  16
HETATM   16  C   UNL     1     -45.466  61.072 -48.555  1.00  0.00     0.035 A 
HETATM   17  C   UNL     1     -45.971  62.335 -48.869  1.00  0.00     0.029 A 
HETATM   18  C   UNL     1     -46.802  63.012 -47.969  1.00  0.00     0.002 A 
HETATM   19  C   UNL     1     -47.127  62.437 -46.745  1.00  0.00     0.000 A 
HETATM   20  C   UNL     1     -46.629  61.177 -46.420  1.00  0.00     0.002 A 
HETATM   21  C   UNL     1     -45.809  60.497 -47.324  1.00  0.00     0.029 A 
ENDBRANCH  13  16
ENDBRANCH  10  12
BRANCH   9  22
HETATM   22  C   UNL     1     -44.436  58.385 -53.666  1.00  0.00    -0.028 A 
HETATM   23  C   UNL     1     -44.141  59.649 -54.213  1.00  0.00     0.012 A 
HETATM   24  C   UNL     1     -44.572  59.989 -55.499  1.00  0.00     0.037 A 
HETATM   25  C   UNL     1     -45.302  59.069 -56.243  1.00  0.00     0.065 A 
HETATM   26  C   UNL     1     -45.615  57.822 -55.721  1.00  0.00     0.037 A 
HETATM   27  C   UNL     1     -45.194  57.483 -54.435  1.00  0.00     0.012 A 
BRANCH  25  28
HETATM   28  O   UNL     1     -45.743  59.359 -57.499  1.00  0.00    -0.361 OA
HETATM   29  H   UNL     1     -45.008  59.251 -58.124  1.00  0.00     0.217 HD
ENDBRANCH  25  28
ENDBRANCH   9  22
BRANCH   7  30
HETATM   30  C   UNL     1     -40.901  54.296 -52.872  1.00  0.00     0.036 A 
HETATM   31  C   UNL     1     -40.393  53.450 -51.874  1.00  0.00     0.048 A 
HETATM   32 CL   UNL     1     -40.388  53.859 -50.191  1.00  0.00    -0.083 Cl
HETATM   33  C   UNL     1     -39.902  52.181 -52.210  1.00  0.00     0.025 A 
HETATM   34  C   UNL     1     -39.916  51.741 -53.533  1.00  0.00     0.002 A 
HETATM   35  C   UNL     1     -40.425  52.567 -54.530  1.00  0.00     0.001 A 
HETATM   36  C   UNL     1     -40.916  53.833 -54.201  1.00  0.00     0.017 A 
ENDBRANCH   7  30
TORSDOF 5
ENDMDL
