MODEL 1
REMARK VINA RESULT:      -8.9      0.000      0.000
REMARK  7 active torsions:
REMARK  status: ('A' for Active; 'I' for Inactive)
REMARK    1  A    between atoms: C_2  and  C_3 
REMARK    2  A    between atoms: C_6  and  C_7 
REMARK       I    between atoms: C_7  and  N_8 
REMARK    3  A    between atoms: N_8  and  C_9 
REMARK    4  A    between atoms: C_9  and  C_10 
REMARK    5  A    between atoms: N_19  and  C_20 
REMARK    6  A    between atoms: C_20  and  C_21 
REMARK    7  A    between atoms: C_21  and  C_22 
ROOT
HETATM    1  C   UNL     1     -43.958  58.098 -56.883  1.00  0.00     0.249 C 
HETATM    2  C   UNL     1     -44.009  56.688 -57.505  1.00  0.00     0.266 C 
HETATM    3  O   UNL     1     -44.471  56.362 -58.585  1.00  0.00    -0.270 OA
HETATM    4  N   UNL     1     -43.447  55.805 -56.583  1.00  0.00    -0.310 N 
HETATM    5  C   UNL     1     -42.916  56.472 -55.530  1.00  0.00     0.129 C 
HETATM    6  C   UNL     1     -43.124  57.778 -55.683  1.00  0.00     0.101 C 
HETATM    7  N   UNL     1     -42.284  55.940 -54.441  1.00  0.00    -0.284 N 
HETATM    8  C   UNL     1     -41.714  56.780 -53.481  1.00  0.00     0.331 C 
HETATM    9  O   UNL     1     -41.122  56.383 -52.480  1.00  0.00    -0.246 OA
HETATM   10  N   UNL     1     -41.880  58.130 -53.695  1.00  0.00    -0.275 N 
HETATM   11  C   UNL     1     -42.628  58.707 -54.686  1.00  0.00     0.262 C 
HETATM   12  O   UNL     1     -42.878  59.903 -54.744  1.00  0.00    -0.267 OA
HETATM   13  H   UNL     1     -43.356  54.819 -56.775  1.00  0.00     0.170 HD
HETATM   14  H   UNL     1     -41.516  58.739 -52.979  1.00  0.00     0.173 HD
ENDROOT
BRANCH   1  15
HETATM   15  N   UNL     1     -43.379  59.154 -57.730  1.00  0.00    -0.327 N 
HETATM   16  C   UNL     1     -42.195  59.011 -58.413  1.00  0.00     0.253 C 
HETATM   17  O   UNL     1     -41.574  57.955 -58.448  1.00  0.00    -0.268 OA
HETATM   18  H   UNL     1     -43.615  60.100 -57.445  1.00  0.00     0.164 HD
BRANCH  16  19
HETATM   19  C   UNL     1     -41.667  60.248 -59.065  1.00  0.00     0.032 A 
HETATM   20  C   UNL     1     -40.959  61.218 -58.349  1.00  0.00     0.017 A 
HETATM   21  C   UNL     1     -40.440  62.341 -59.005  1.00  0.00     0.009 A 
HETATM   22  C   UNL     1     -40.616  62.536 -60.388  1.00  0.00    -0.051 A 
HETATM   23  C   UNL     1     -41.367  61.571 -61.081  1.00  0.00     0.009 A 
HETATM   24  C   UNL     1     -41.888  60.443 -60.429  1.00  0.00     0.017 A 
BRANCH  22  25
HETATM   25  C   UNL     1     -40.013  63.777 -61.074  1.00  0.00    -0.024 C 
HETATM   26  C   UNL     1     -41.130  64.782 -61.436  1.00  0.00     0.019 C 
HETATM   27  C   UNL     1     -39.288  63.343 -62.364  1.00  0.00     0.019 C 
HETATM   28  C   UNL     1     -38.992  64.538 -60.198  1.00  0.00     0.019 C 
ENDBRANCH  22  25
ENDBRANCH  16  19
ENDBRANCH   1  15
BRANCH   1  29
HETATM   29  C   UNL     1     -45.415  58.387 -56.485  1.00  0.00     0.426 C 
HETATM   30  F   UNL     1     -45.589  59.706 -56.220  1.00  0.00    -0.167 F 
HETATM   31  F   UNL     1     -46.285  58.087 -57.477  1.00  0.00    -0.167 F 
HETATM   32  F   UNL     1     -45.806  57.709 -55.381  1.00  0.00    -0.167 F 
ENDBRANCH   1  29
BRANCH   7  33
HETATM   33  C   UNL     1     -42.288  54.501 -54.186  1.00  0.00     0.140 C 
BRANCH  33  34
HETATM   34  C   UNL     1     -41.098  53.767 -54.806  1.00  0.00     0.059 C 
BRANCH  34  35
HETATM   35  C   UNL     1     -40.523  52.778 -53.819  1.00  0.00    -0.057 A 
HETATM   36  C   UNL     1     -40.162  51.487 -54.232  1.00  0.00     0.007 A 
HETATM   37  C   UNL     1     -39.699  50.552 -53.304  1.00  0.00     0.001 A 
HETATM   38  C   UNL     1     -39.589  50.898 -51.959  1.00  0.00     0.000 A 
HETATM   39  C   UNL     1     -39.939  52.180 -51.540  1.00  0.00     0.001 A 
HETATM   40  C   UNL     1     -40.407  53.116 -52.464  1.00  0.00     0.007 A 
ENDBRANCH  34  35
ENDBRANCH  33  34
ENDBRANCH   7  33
TORSDOF 7
ENDMDL
MODEL 2
REMARK VINA RESULT:      -8.9      4.885      7.066
REMARK  7 active torsions:
REMARK  status: ('A' for Active; 'I' for Inactive)
REMARK    1  A    between atoms: C_2  and  C_3 
REMARK    2  A    between atoms: C_6  and  C_7 
REMARK       I    between atoms: C_7  and  N_8 
REMARK    3  A    between atoms: N_8  and  C_9 
REMARK    4  A    between atoms: C_9  and  C_10 
REMARK    5  A    between atoms: N_19  and  C_20 
REMARK    6  A    between atoms: C_20  and  C_21 
REMARK    7  A    between atoms: C_21  and  C_22 
ROOT
HETATM    1  C   UNL     1     -42.108  58.378 -52.524  1.00  0.00     0.249 C 
HETATM    2  C   UNL     1     -41.667  57.524 -51.319  1.00  0.00     0.266 C 
HETATM    3  O   UNL     1     -41.276  57.910 -50.230  1.00  0.00    -0.270 OA
HETATM    4  N   UNL     1     -41.762  56.186 -51.699  1.00  0.00    -0.310 N 
HETATM    5  C   UNL     1     -42.337  56.064 -52.919  1.00  0.00     0.129 C 
HETATM    6  C   UNL     1     -42.609  57.275 -53.403  1.00  0.00     0.101 C 
HETATM    7  N   UNL     1     -42.593  54.912 -53.608  1.00  0.00    -0.284 N 
HETATM    8  C   UNL     1     -43.277  54.959 -54.826  1.00  0.00     0.331 C 
HETATM    9  O   UNL     1     -43.554  53.971 -55.501  1.00  0.00    -0.246 OA
HETATM   10  N   UNL     1     -43.610  56.218 -55.274  1.00  0.00    -0.275 N 
HETATM   11  C   UNL     1     -43.247  57.406 -54.697  1.00  0.00     0.262 C 
HETATM   12  O   UNL     1     -43.429  58.499 -55.215  1.00  0.00    -0.267 OA
HETATM   13  H   UNL     1     -41.538  55.433 -51.065  1.00  0.00     0.170 HD
HETATM   14  H   UNL     1     -44.057  56.262 -56.177  1.00  0.00     0.173 HD
ENDROOT
BRANCH   1  15
HETATM   15  N   UNL     1     -43.122  59.408 -52.247  1.00  0.00    -0.327 N 
HETATM   16  C   UNL     1     -44.330  59.137 -51.649  1.00  0.00     0.253 C 
HETATM   17  O   UNL     1     -44.619  58.031 -51.211  1.00  0.00    -0.268 OA
HETATM   18  H   UNL     1     -43.112  60.194 -52.890  1.00  0.00     0.164 HD
BRANCH  16  19
HETATM   19  C   UNL     1     -45.308  60.267 -51.621  1.00  0.00     0.032 A 
HETATM   20  C   UNL     1     -46.041  60.641 -52.752  1.00  0.00     0.017 A 
HETATM   21  C   UNL     1     -46.982  61.674 -52.673  1.00  0.00     0.009 A 
HETATM   22  C   UNL     1     -47.218  62.370 -51.473  1.00  0.00    -0.051 A 
HETATM   23  C   UNL     1     -46.441  62.008 -50.359  1.00  0.00     0.009 A 
HETATM   24  C   UNL     1     -45.497  60.971 -50.431  1.00  0.00     0.017 A 
BRANCH  22  25
HETATM   25  C   UNL     1     -48.276  63.489 -51.425  1.00  0.00    -0.024 C 
HETATM   26  C   UNL     1     -48.570  63.883 -49.960  1.00  0.00     0.019 C 
HETATM   27  C   UNL     1     -49.578  62.986 -52.082  1.00  0.00     0.019 C 
HETATM   28  C   UNL     1     -47.851  64.780 -52.160  1.00  0.00     0.019 C 
ENDBRANCH  22  25
ENDBRANCH  16  19
ENDBRANCH   1  15
BRANCH   1  29
HETATM   29  C   UNL     1     -40.795  58.967 -53.068  1.00  0.00     0.426 C 
HETATM   30  F   UNL     1     -40.086  59.560 -52.075  1.00  0.00    -0.167 F 
HETATM   31  F   UNL     1     -39.985  58.017 -53.589  1.00  0.00    -0.167 F 
HETATM   32  F   UNL     1     -40.992  59.905 -54.023  1.00  0.00    -0.167 F 
ENDBRANCH   1  29
BRANCH   7  33
HETATM   33  C   UNL     1     -42.066  53.624 -53.161  1.00  0.00     0.140 C 
BRANCH  33  34
HETATM   34  C   UNL     1     -40.565  53.458 -53.408  1.00  0.00     0.059 C 
BRANCH  34  35
HETATM   35  C   UNL     1     -40.134  52.050 -53.071  1.00  0.00    -0.057 A 
HETATM   36  C   UNL     1     -40.090  51.061 -54.063  1.00  0.00     0.007 A 
HETATM   37  C   UNL     1     -39.760  49.744 -53.735  1.00  0.00     0.001 A 
HETATM   38  C   UNL     1     -39.469  49.405 -52.416  1.00  0.00     0.000 A 
HETATM   39  C   UNL     1     -39.505  50.382 -51.423  1.00  0.00     0.001 A 
HETATM   40  C   UNL     1     -39.838  51.698 -51.746  1.00  0.00     0.007 A 
ENDBRANCH  34  35
ENDBRANCH  33  34
ENDBRANCH   7  33
TORSDOF 7
ENDMDL
MODEL 3
REMARK VINA RESULT:      -8.8      2.221      3.635
REMARK  7 active torsions:
REMARK  status: ('A' for Active; 'I' for Inactive)
REMARK    1  A    between atoms: C_2  and  C_3 
REMARK    2  A    between atoms: C_6  and  C_7 
REMARK       I    between atoms: C_7  and  N_8 
REMARK    3  A    between atoms: N_8  and  C_9 
REMARK    4  A    between atoms: C_9  and  C_10 
REMARK    5  A    between atoms: N_19  and  C_20 
REMARK    6  A    between atoms: C_20  and  C_21 
REMARK    7  A    between atoms: C_21  and  C_22 
ROOT
HETATM    1  C   UNL     1     -42.328  55.727 -54.282  1.00  0.00     0.249 C 
HETATM    2  C   UNL     1     -41.173  54.741 -54.546  1.00  0.00     0.266 C 
HETATM    3  O   UNL     1     -40.827  54.260 -55.612  1.00  0.00    -0.270 OA
HETATM    4  N   UNL     1     -40.582  54.451 -53.317  1.00  0.00    -0.310 N 
HETATM    5  C   UNL     1     -41.102  55.223 -52.332  1.00  0.00     0.129 C 
HETATM    6  C   UNL     1     -42.051  56.007 -52.838  1.00  0.00     0.101 C 
HETATM    7  N   UNL     1     -40.768  55.218 -51.006  1.00  0.00    -0.284 N 
HETATM    8  C   UNL     1     -41.342  56.145 -50.134  1.00  0.00     0.331 C 
HETATM    9  O   UNL     1     -41.089  56.214 -48.934  1.00  0.00    -0.246 OA
HETATM   10  N   UNL     1     -42.271  56.994 -50.694  1.00  0.00    -0.275 N 
HETATM   11  C   UNL     1     -42.747  56.942 -51.976  1.00  0.00     0.262 C 
HETATM   12  O   UNL     1     -43.686  57.613 -52.384  1.00  0.00    -0.267 OA
HETATM   13  H   UNL     1     -39.788  53.834 -53.237  1.00  0.00     0.170 HD
HETATM   14  H   UNL     1     -42.728  57.631 -50.059  1.00  0.00     0.173 HD
ENDROOT
BRANCH   1  15
HETATM   15  N   UNL     1     -42.343  56.939 -55.117  1.00  0.00    -0.327 N 
HETATM   16  C   UNL     1     -42.505  56.915 -56.482  1.00  0.00     0.253 C 
HETATM   17  O   UNL     1     -42.746  55.887 -57.102  1.00  0.00    -0.268 OA
HETATM   18  H   UNL     1     -41.796  57.712 -54.749  1.00  0.00     0.164 HD
BRANCH  16  19
HETATM   19  C   UNL     1     -42.303  58.219 -57.184  1.00  0.00     0.032 A 
HETATM   20  C   UNL     1     -42.157  59.422 -56.485  1.00  0.00     0.017 A 
HETATM   21  C   UNL     1     -41.923  60.616 -57.177  1.00  0.00     0.009 A 
HETATM   22  C   UNL     1     -41.834  60.651 -58.581  1.00  0.00    -0.051 A 
HETATM   23  C   UNL     1     -42.024  59.440 -59.267  1.00  0.00     0.009 A 
HETATM   24  C   UNL     1     -42.258  58.239 -58.578  1.00  0.00     0.017 A 
BRANCH  22  25
HETATM   25  C   UNL     1     -41.556  61.985 -59.302  1.00  0.00    -0.024 C 
HETATM   26  C   UNL     1     -41.426  61.751 -60.825  1.00  0.00     0.019 C 
HETATM   27  C   UNL     1     -40.240  62.586 -58.771  1.00  0.00     0.019 C 
HETATM   28  C   UNL     1     -42.665  63.042 -59.105  1.00  0.00     0.019 C 
ENDBRANCH  22  25
ENDBRANCH  16  19
ENDBRANCH   1  15
BRANCH   1  29
HETATM   29  C   UNL     1     -43.597  54.874 -54.448  1.00  0.00     0.426 C 
HETATM   30  F   UNL     1     -43.848  54.161 -53.322  1.00  0.00    -0.167 F 
HETATM   31  F   UNL     1     -44.697  55.631 -54.665  1.00  0.00    -0.167 F 
HETATM   32  F   UNL     1     -43.506  53.985 -55.464  1.00  0.00    -0.167 F 
ENDBRANCH   1  29
BRANCH   7  33
HETATM   33  C   UNL     1     -39.902  54.183 -50.443  1.00  0.00     0.140 C 
BRANCH  33  34
HETATM   34  C   UNL     1     -40.658  52.933 -49.990  1.00  0.00     0.059 C 
BRANCH  34  35
HETATM   35  C   UNL     1     -40.211  51.734 -50.794  1.00  0.00    -0.057 A 
HETATM   36  C   UNL     1     -39.864  51.871 -52.145  1.00  0.00     0.007 A 
HETATM   37  C   UNL     1     -39.521  50.750 -52.904  1.00  0.00     0.001 A 
HETATM   38  C   UNL     1     -39.519  49.485 -52.320  1.00  0.00     0.000 A 
HETATM   39  C   UNL     1     -39.856  49.339 -50.976  1.00  0.00     0.001 A 
HETATM   40  C   UNL     1     -40.204  50.457 -50.215  1.00  0.00     0.007 A 
ENDBRANCH  34  35
ENDBRANCH  33  34
ENDBRANCH   7  33
TORSDOF 7
ENDMDL
MODEL 4
REMARK VINA RESULT:      -8.8      4.346      7.422
REMARK  7 active torsions:
REMARK  status: ('A' for Active; 'I' for Inactive)
REMARK    1  A    between atoms: C_2  and  C_3 
REMARK    2  A    between atoms: C_6  and  C_7 
REMARK       I    between atoms: C_7  and  N_8 
REMARK    3  A    between atoms: N_8  and  C_9 
REMARK    4  A    between atoms: C_9  and  C_10 
REMARK    5  A    between atoms: N_19  and  C_20 
REMARK    6  A    between atoms: C_20  and  C_21 
REMARK    7  A    between atoms: C_21  and  C_22 
ROOT
HETATM    1  C   UNL     1     -42.562  59.155 -53.911  1.00  0.00     0.249 C 
HETATM    2  C   UNL     1     -41.095  58.778 -53.622  1.00  0.00     0.266 C 
HETATM    3  O   UNL     1     -40.173  59.523 -53.337  1.00  0.00    -0.270 OA
HETATM    4  N   UNL     1     -40.981  57.397 -53.776  1.00  0.00    -0.310 N 
HETATM    5  C   UNL     1     -42.193  56.827 -53.978  1.00  0.00     0.129 C 
HETATM    6  C   UNL     1     -43.129  57.773 -54.001  1.00  0.00     0.101 C 
HETATM    7  N   UNL     1     -42.468  55.501 -54.167  1.00  0.00    -0.284 N 
HETATM    8  C   UNL     1     -43.792  55.067 -54.274  1.00  0.00     0.331 C 
HETATM    9  O   UNL     1     -44.124  53.896 -54.435  1.00  0.00    -0.246 OA
HETATM   10  N   UNL     1     -44.749  56.056 -54.225  1.00  0.00    -0.275 N 
HETATM   11  C   UNL     1     -44.519  57.405 -54.186  1.00  0.00     0.262 C 
HETATM   12  O   UNL     1     -45.396  58.250 -54.304  1.00  0.00    -0.267 OA
HETATM   13  H   UNL     1     -40.109  56.913 -53.623  1.00  0.00     0.170 HD
HETATM   14  H   UNL     1     -45.703  55.755 -54.353  1.00  0.00     0.173 HD
ENDROOT
BRANCH   1  15
HETATM   15  N   UNL     1     -43.224  59.991 -52.896  1.00  0.00    -0.327 N 
HETATM   16  C   UNL     1     -43.204  59.706 -51.551  1.00  0.00     0.253 C 
HETATM   17  O   UNL     1     -42.552  58.782 -51.080  1.00  0.00    -0.268 OA
HETATM   18  H   UNL     1     -44.040  60.494 -53.231  1.00  0.00     0.164 HD
BRANCH  16  19
HETATM   19  C   UNL     1     -44.086  60.554 -50.694  1.00  0.00     0.032 A 
HETATM   20  C   UNL     1     -45.418  60.814 -51.030  1.00  0.00     0.017 A 
HETATM   21  C   UNL     1     -46.226  61.576 -50.177  1.00  0.00     0.009 A 
HETATM   22  C   UNL     1     -45.731  62.108 -48.971  1.00  0.00    -0.051 A 
HETATM   23  C   UNL     1     -44.379  61.872 -48.673  1.00  0.00     0.009 A 
HETATM   24  C   UNL     1     -43.565  61.107 -49.523  1.00  0.00     0.017 A 
BRANCH  22  25
HETATM   25  C   UNL     1     -46.659  62.926 -48.052  1.00  0.00    -0.024 C 
HETATM   26  C   UNL     1     -47.918  63.374 -48.828  1.00  0.00     0.019 C 
HETATM   27  C   UNL     1     -45.906  64.174 -47.550  1.00  0.00     0.019 C 
HETATM   28  C   UNL     1     -47.151  62.147 -46.811  1.00  0.00     0.019 C 
ENDBRANCH  22  25
ENDBRANCH  16  19
ENDBRANCH   1  15
BRANCH   1  29
HETATM   29  C   UNL     1     -42.513  59.825 -55.294  1.00  0.00     0.426 C 
HETATM   30  F   UNL     1     -43.750  59.875 -55.849  1.00  0.00    -0.167 F 
HETATM   31  F   UNL     1     -42.082  61.105 -55.227  1.00  0.00    -0.167 F 
HETATM   32  F   UNL     1     -41.716  59.171 -56.171  1.00  0.00    -0.167 F 
ENDBRANCH   1  29
BRANCH   7  33
HETATM   33  C   UNL     1     -41.401  54.525 -54.379  1.00  0.00     0.140 C 
BRANCH  33  34
HETATM   34  C   UNL     1     -40.655  54.146 -53.098  1.00  0.00     0.059 C 
BRANCH  34  35
HETATM   35  C   UNL     1     -40.350  52.666 -53.090  1.00  0.00    -0.057 A 
HETATM   36  C   UNL     1     -39.885  52.041 -51.924  1.00  0.00     0.007 A 
HETATM   37  C   UNL     1     -39.536  50.689 -51.939  1.00  0.00     0.001 A 
HETATM   38  C   UNL     1     -39.652  49.951 -53.114  1.00  0.00     0.000 A 
HETATM   39  C   UNL     1     -40.119  50.561 -54.276  1.00  0.00     0.001 A 
HETATM   40  C   UNL     1     -40.464  51.914 -54.267  1.00  0.00     0.007 A 
ENDBRANCH  34  35
ENDBRANCH  33  34
ENDBRANCH   7  33
TORSDOF 7
ENDMDL
MODEL 5
REMARK VINA RESULT:      -8.7      4.825      7.410
REMARK  7 active torsions:
REMARK  status: ('A' for Active; 'I' for Inactive)
REMARK    1  A    between atoms: C_2  and  C_3 
REMARK    2  A    between atoms: C_6  and  C_7 
REMARK       I    between atoms: C_7  and  N_8 
REMARK    3  A    between atoms: N_8  and  C_9 
REMARK    4  A    between atoms: C_9  and  C_10 
REMARK    5  A    between atoms: N_19  and  C_20 
REMARK    6  A    between atoms: C_20  and  C_21 
REMARK    7  A    between atoms: C_21  and  C_22 
ROOT
HETATM    1  C   UNL     1     -43.406  58.303 -53.032  1.00  0.00     0.249 C 
HETATM    2  C   UNL     1     -42.057  58.455 -53.762  1.00  0.00     0.266 C 
HETATM    3  O   UNL     1     -41.678  59.389 -54.449  1.00  0.00    -0.270 OA
HETATM    4  N   UNL     1     -41.322  57.294 -53.528  1.00  0.00    -0.310 N 
HETATM    5  C   UNL     1     -41.950  56.490 -52.636  1.00  0.00     0.129 C 
HETATM    6  C   UNL     1     -43.106  57.046 -52.277  1.00  0.00     0.101 C 
HETATM    7  N   UNL     1     -41.529  55.277 -52.168  1.00  0.00    -0.284 N 
HETATM    8  C   UNL     1     -42.259  54.615 -51.177  1.00  0.00     0.331 C 
HETATM    9  O   UNL     1     -41.945  53.529 -50.697  1.00  0.00    -0.246 OA
HETATM   10  N   UNL     1     -43.416  55.242 -50.770  1.00  0.00    -0.275 N 
HETATM   11  C   UNL     1     -43.955  56.378 -51.310  1.00  0.00     0.262 C 
HETATM   12  O   UNL     1     -45.063  56.810 -51.024  1.00  0.00    -0.267 OA
HETATM   13  H   UNL     1     -40.391  57.167 -53.896  1.00  0.00     0.170 HD
HETATM   14  H   UNL     1     -43.973  54.745 -50.093  1.00  0.00     0.173 HD
ENDROOT
BRANCH   1  15
HETATM   15  N   UNL     1     -43.798  59.424 -52.162  1.00  0.00    -0.327 N 
HETATM   16  C   UNL     1     -42.968  59.968 -51.210  1.00  0.00     0.253 C 
HETATM   17  O   UNL     1     -41.801  59.624 -51.075  1.00  0.00    -0.268 OA
HETATM   18  H   UNL     1     -44.793  59.480 -51.967  1.00  0.00     0.164 HD
BRANCH  16  19
HETATM   19  C   UNL     1     -43.597  60.968 -50.295  1.00  0.00     0.032 A 
HETATM   20  C   UNL     1     -43.187  62.304 -50.263  1.00  0.00     0.017 A 
HETATM   21  C   UNL     1     -43.834  63.221 -49.425  1.00  0.00     0.009 A 
HETATM   22  C   UNL     1     -44.899  62.836 -48.590  1.00  0.00    -0.051 A 
HETATM   23  C   UNL     1     -45.268  61.480 -48.605  1.00  0.00     0.009 A 
HETATM   24  C   UNL     1     -44.625  60.557 -49.445  1.00  0.00     0.017 A 
BRANCH  22  25
HETATM   25  C   UNL     1     -45.595  63.881 -47.697  1.00  0.00    -0.024 C 
HETATM   26  C   UNL     1     -46.546  64.758 -48.543  1.00  0.00     0.019 C 
HETATM   27  C   UNL     1     -44.528  64.782 -47.042  1.00  0.00     0.019 C 
HETATM   28  C   UNL     1     -46.445  63.265 -46.563  1.00  0.00     0.019 C 
ENDBRANCH  22  25
ENDBRANCH  16  19
ENDBRANCH   1  15
BRANCH   1  29
HETATM   29  C   UNL     1     -44.418  58.044 -54.160  1.00  0.00     0.426 C 
HETATM   30  F   UNL     1     -45.494  58.861 -54.039  1.00  0.00    -0.167 F 
HETATM   31  F   UNL     1     -43.896  58.292 -55.383  1.00  0.00    -0.167 F 
HETATM   32  F   UNL     1     -44.889  56.775 -54.167  1.00  0.00    -0.167 F 
ENDBRANCH   1  29
BRANCH   7  33
HETATM   33  C   UNL     1     -40.386  54.587 -52.761  1.00  0.00     0.140 C 
BRANCH  33  34
HETATM   34  C   UNL     1     -40.765  53.642 -53.902  1.00  0.00     0.059 C 
BRANCH  34  35
HETATM   35  C   UNL     1     -40.365  52.225 -53.562  1.00  0.00    -0.057 A 
HETATM   36  C   UNL     1     -39.871  51.911 -52.288  1.00  0.00     0.007 A 
HETATM   37  C   UNL     1     -39.434  50.617 -51.998  1.00  0.00     0.001 A 
HETATM   38  C   UNL     1     -39.490  49.626 -52.976  1.00  0.00     0.000 A 
HETATM   39  C   UNL     1     -39.984  49.927 -54.243  1.00  0.00     0.001 A 
HETATM   40  C   UNL     1     -40.417  51.221 -54.538  1.00  0.00     0.007 A 
ENDBRANCH  34  35
ENDBRANCH  33  34
ENDBRANCH   7  33
TORSDOF 7
ENDMDL
MODEL 6
REMARK VINA RESULT:      -8.4      5.498      9.624
REMARK  7 active torsions:
REMARK  status: ('A' for Active; 'I' for Inactive)
REMARK    1  A    between atoms: C_2  and  C_3 
REMARK    2  A    between atoms: C_6  and  C_7 
REMARK       I    between atoms: C_7  and  N_8 
REMARK    3  A    between atoms: N_8  and  C_9 
REMARK    4  A    between atoms: C_9  and  C_10 
REMARK    5  A    between atoms: N_19  and  C_20 
REMARK    6  A    between atoms: C_20  and  C_21 
REMARK    7  A    between atoms: C_21  and  C_22 
ROOT
HETATM    1  C   UNL     1     -41.228  58.101 -51.787  1.00  0.00     0.249 C 
HETATM    2  C   UNL     1     -40.621  59.198 -52.684  1.00  0.00     0.266 C 
HETATM    3  O   UNL     1     -39.452  59.344 -53.002  1.00  0.00    -0.270 OA
HETATM    4  N   UNL     1     -41.658  60.048 -53.064  1.00  0.00    -0.310 N 
HETATM    5  C   UNL     1     -42.858  59.566 -52.658  1.00  0.00     0.129 C 
HETATM    6  C   UNL     1     -42.674  58.433 -51.983  1.00  0.00     0.101 C 
HETATM    7  N   UNL     1     -44.089  60.127 -52.851  1.00  0.00    -0.284 N 
HETATM    8  C   UNL     1     -45.241  59.451 -52.441  1.00  0.00     0.331 C 
HETATM    9  O   UNL     1     -46.383  59.880 -52.586  1.00  0.00    -0.246 OA
HETATM   10  N   UNL     1     -45.031  58.246 -51.807  1.00  0.00    -0.275 N 
HETATM   11  C   UNL     1     -43.819  57.714 -51.459  1.00  0.00     0.262 C 
HETATM   12  O   UNL     1     -43.686  56.721 -50.758  1.00  0.00    -0.267 OA
HETATM   13  H   UNL     1     -41.506  60.840 -53.671  1.00  0.00     0.170 HD
HETATM   14  H   UNL     1     -45.855  57.778 -51.463  1.00  0.00     0.173 HD
ENDROOT
BRANCH   1  15
HETATM   15  N   UNL     1     -40.895  56.714 -52.151  1.00  0.00    -0.327 N 
HETATM   16  C   UNL     1     -41.044  56.208 -53.421  1.00  0.00     0.253 C 
HETATM   17  O   UNL     1     -41.377  56.901 -54.374  1.00  0.00    -0.268 OA
HETATM   18  H   UNL     1     -40.990  56.044 -51.393  1.00  0.00     0.164 HD
BRANCH  16  19
HETATM   19  C   UNL     1     -40.839  54.735 -53.562  1.00  0.00     0.032 A 
HETATM   20  C   UNL     1     -40.685  54.124 -54.810  1.00  0.00     0.017 A 
HETATM   21  C   UNL     1     -40.448  52.747 -54.898  1.00  0.00     0.009 A 
HETATM   22  C   UNL     1     -40.364  51.937 -53.750  1.00  0.00    -0.051 A 
HETATM   23  C   UNL     1     -40.563  52.562 -52.508  1.00  0.00     0.009 A 
HETATM   24  C   UNL     1     -40.800  53.943 -52.414  1.00  0.00     0.017 A 
BRANCH  22  25
HETATM   25  C   UNL     1     -40.083  50.429 -53.891  1.00  0.00    -0.024 C 
HETATM   26  C   UNL     1     -38.866  50.197 -54.816  1.00  0.00     0.019 C 
HETATM   27  C   UNL     1     -41.318  49.735 -54.501  1.00  0.00     0.019 C 
HETATM   28  C   UNL     1     -39.767  49.726 -52.552  1.00  0.00     0.019 C 
ENDBRANCH  22  25
ENDBRANCH  16  19
ENDBRANCH   1  15
BRANCH   1  29
HETATM   29  C   UNL     1     -40.762  58.472 -50.370  1.00  0.00     0.426 C 
HETATM   30  F   UNL     1     -41.433  59.558 -49.911  1.00  0.00    -0.167 F 
HETATM   31  F   UNL     1     -40.997  57.483 -49.478  1.00  0.00    -0.167 F 
HETATM   32  F   UNL     1     -39.443  58.772 -50.309  1.00  0.00    -0.167 F 
ENDBRANCH   1  29
BRANCH   7  33
HETATM   33  C   UNL     1     -44.234  61.483 -53.377  1.00  0.00     0.140 C 
BRANCH  33  34
HETATM   34  C   UNL     1     -43.706  62.565 -52.434  1.00  0.00     0.059 C 
BRANCH  34  35
HETATM   35  C   UNL     1     -44.443  62.514 -51.116  1.00  0.00    -0.057 A 
HETATM   36  C   UNL     1     -43.823  61.993 -49.972  1.00  0.00     0.007 A 
HETATM   37  C   UNL     1     -44.530  61.881 -48.773  1.00  0.00     0.001 A 
HETATM   38  C   UNL     1     -45.860  62.290 -48.706  1.00  0.00     0.000 A 
HETATM   39  C   UNL     1     -46.484  62.815 -49.836  1.00  0.00     0.001 A 
HETATM   40  C   UNL     1     -45.781  62.925 -51.037  1.00  0.00     0.007 A 
ENDBRANCH  34  35
ENDBRANCH  33  34
ENDBRANCH   7  33
TORSDOF 7
ENDMDL
MODEL 7
REMARK VINA RESULT:      -8.2     17.836     21.494
REMARK  7 active torsions:
REMARK  status: ('A' for Active; 'I' for Inactive)
REMARK    1  A    between atoms: C_2  and  C_3 
REMARK    2  A    between atoms: C_6  and  C_7 
REMARK       I    between atoms: C_7  and  N_8 
REMARK    3  A    between atoms: N_8  and  C_9 
REMARK    4  A    between atoms: C_9  and  C_10 
REMARK    5  A    between atoms: N_19  and  C_20 
REMARK    6  A    between atoms: C_20  and  C_21 
REMARK    7  A    between atoms: C_21  and  C_22 
ROOT
HETATM    1  C   UNL     1     -36.185  40.591 -52.986  1.00  0.00     0.249 C 
HETATM    2  C   UNL     1     -35.793  41.941 -53.621  1.00  0.00     0.266 C 
HETATM    3  O   UNL     1     -35.735  43.033 -53.081  1.00  0.00    -0.270 OA
HETATM    4  N   UNL     1     -35.537  41.708 -54.971  1.00  0.00    -0.310 N 
HETATM    5  C   UNL     1     -35.567  40.384 -55.253  1.00  0.00     0.129 C 
HETATM    6  C   UNL     1     -35.869  39.703 -54.149  1.00  0.00     0.101 C 
HETATM    7  N   UNL     1     -35.362  39.785 -56.465  1.00  0.00    -0.284 N 
HETATM    8  C   UNL     1     -35.342  38.391 -56.565  1.00  0.00     0.331 C 
HETATM    9  O   UNL     1     -35.154  37.777 -57.612  1.00  0.00    -0.246 OA
HETATM   10  N   UNL     1     -35.587  37.706 -55.396  1.00  0.00    -0.275 N 
HETATM   11  C   UNL     1     -35.944  38.256 -54.194  1.00  0.00     0.262 C 
HETATM   12  O   UNL     1     -36.307  37.603 -53.225  1.00  0.00    -0.267 OA
HETATM   13  H   UNL     1     -35.245  42.446 -55.595  1.00  0.00     0.170 HD
HETATM   14  H   UNL     1     -35.626  36.701 -55.472  1.00  0.00     0.173 HD
ENDROOT
BRANCH   1  15
HETATM   15  N   UNL     1     -35.461  40.222 -51.759  1.00  0.00    -0.327 N 
HETATM   16  C   UNL     1     -34.093  40.278 -51.642  1.00  0.00     0.253 C 
HETATM   17  O   UNL     1     -33.371  40.731 -52.522  1.00  0.00    -0.268 OA
HETATM   18  H   UNL     1     -35.927  39.523 -51.189  1.00  0.00     0.164 HD
BRANCH  16  19
HETATM   19  C   UNL     1     -33.522  39.687 -50.394  1.00  0.00     0.032 A 
HETATM   20  C   UNL     1     -32.252  40.032 -49.923  1.00  0.00     0.017 A 
HETATM   21  C   UNL     1     -31.772  39.492 -48.724  1.00  0.00     0.009 A 
HETATM   22  C   UNL     1     -32.536  38.588 -47.963  1.00  0.00    -0.051 A 
HETATM   23  C   UNL     1     -33.792  38.221 -48.474  1.00  0.00     0.009 A 
HETATM   24  C   UNL     1     -34.279  38.761 -49.675  1.00  0.00     0.017 A 
BRANCH  22  25
HETATM   25  C   UNL     1     -31.977  38.031 -46.639  1.00  0.00    -0.024 C 
HETATM   26  C   UNL     1     -33.128  37.781 -45.638  1.00  0.00     0.019 C 
HETATM   27  C   UNL     1     -30.994  39.052 -46.032  1.00  0.00     0.019 C 
HETATM   28  C   UNL     1     -31.222  36.693 -46.796  1.00  0.00     0.019 C 
ENDBRANCH  22  25
ENDBRANCH  16  19
ENDBRANCH   1  15
BRANCH   1  29
HETATM   29  C   UNL     1     -37.704  40.703 -52.771  1.00  0.00     0.426 C 
HETATM   30  F   UNL     1     -38.163  39.660 -52.036  1.00  0.00    -0.167 F 
HETATM   31  F   UNL     1     -38.042  41.820 -52.088  1.00  0.00    -0.167 F 
HETATM   32  F   UNL     1     -38.403  40.705 -53.930  1.00  0.00    -0.167 F 
ENDBRANCH   1  29
BRANCH   7  33
HETATM   33  C   UNL     1     -35.275  40.568 -57.695  1.00  0.00     0.140 C 
BRANCH  33  34
HETATM   34  C   UNL     1     -36.603  41.203 -58.112  1.00  0.00     0.059 C 
BRANCH  34  35
HETATM   35  C   UNL     1     -37.345  40.287 -59.058  1.00  0.00    -0.057 A 
HETATM   36  C   UNL     1     -38.361  39.445 -58.583  1.00  0.00     0.007 A 
HETATM   37  C   UNL     1     -38.995  38.548 -59.446  1.00  0.00     0.001 A 
HETATM   38  C   UNL     1     -38.624  38.487 -60.787  1.00  0.00     0.000 A 
HETATM   39  C   UNL     1     -37.620  39.324 -61.269  1.00  0.00     0.001 A 
HETATM   40  C   UNL     1     -36.980  40.219 -60.409  1.00  0.00     0.007 A 
ENDBRANCH  34  35
ENDBRANCH  33  34
ENDBRANCH   7  33
TORSDOF 7
ENDMDL
MODEL 8
REMARK VINA RESULT:      -8.2      3.826      9.129
REMARK  7 active torsions:
REMARK  status: ('A' for Active; 'I' for Inactive)
REMARK    1  A    between atoms: C_2  and  C_3 
REMARK    2  A    between atoms: C_6  and  C_7 
REMARK       I    between atoms: C_7  and  N_8 
REMARK    3  A    between atoms: N_8  and  C_9 
REMARK    4  A    between atoms: C_9  and  C_10 
REMARK    5  A    between atoms: N_19  and  C_20 
REMARK    6  A    between atoms: C_20  and  C_21 
REMARK    7  A    between atoms: C_21  and  C_22 
ROOT
HETATM    1  C   UNL     1     -41.245  58.114 -51.833  1.00  0.00     0.249 C 
HETATM    2  C   UNL     1     -40.612  59.195 -52.733  1.00  0.00     0.266 C 
HETATM    3  O   UNL     1     -39.436  59.333 -53.024  1.00  0.00    -0.270 OA
HETATM    4  N   UNL     1     -41.638  60.041 -53.153  1.00  0.00    -0.310 N 
HETATM    5  C   UNL     1     -42.848  59.569 -52.768  1.00  0.00     0.129 C 
HETATM    6  C   UNL     1     -42.685  58.447 -52.071  1.00  0.00     0.101 C 
HETATM    7  N   UNL     1     -44.073  60.130 -53.002  1.00  0.00    -0.284 N 
HETATM    8  C   UNL     1     -45.236  59.463 -52.609  1.00  0.00     0.331 C 
HETATM    9  O   UNL     1     -46.373  59.892 -52.790  1.00  0.00    -0.246 OA
HETATM   10  N   UNL     1     -45.046  58.268 -51.951  1.00  0.00    -0.275 N 
HETATM   11  C   UNL     1     -43.844  57.739 -51.564  1.00  0.00     0.262 C 
HETATM   12  O   UNL     1     -43.731  56.757 -50.843  1.00  0.00    -0.267 OA
HETATM   13  H   UNL     1     -41.468  60.823 -53.768  1.00  0.00     0.170 HD
HETATM   14  H   UNL     1     -45.879  57.808 -51.619  1.00  0.00     0.173 HD
ENDROOT
BRANCH   1  15
HETATM   15  N   UNL     1     -40.906  56.721 -52.166  1.00  0.00    -0.327 N 
HETATM   16  C   UNL     1     -41.011  56.199 -53.434  1.00  0.00     0.253 C 
HETATM   17  O   UNL     1     -41.304  56.881 -54.408  1.00  0.00    -0.268 OA
HETATM   18  H   UNL     1     -41.034  56.062 -51.404  1.00  0.00     0.164 HD
BRANCH  16  19
HETATM   19  C   UNL     1     -40.809  54.723 -53.547  1.00  0.00     0.032 A 
HETATM   20  C   UNL     1     -40.741  54.078 -54.786  1.00  0.00     0.017 A 
HETATM   21  C   UNL     1     -40.504  52.699 -54.851  1.00  0.00     0.009 A 
HETATM   22  C   UNL     1     -40.336  51.922 -53.690  1.00  0.00    -0.051 A 
HETATM   23  C   UNL     1     -40.450  52.582 -52.455  1.00  0.00     0.009 A 
HETATM   24  C   UNL     1     -40.686  53.964 -52.383  1.00  0.00     0.017 A 
BRANCH  22  25
HETATM   25  C   UNL     1     -40.058  50.411 -53.807  1.00  0.00    -0.024 C 
HETATM   26  C   UNL     1     -41.272  49.694 -54.440  1.00  0.00     0.019 C 
HETATM   27  C   UNL     1     -39.806  49.829 -52.402  1.00  0.00     0.019 C 
HETATM   28  C   UNL     1     -38.831  50.069 -54.681  1.00  0.00     0.019 C 
ENDBRANCH  22  25
ENDBRANCH  16  19
ENDBRANCH   1  15
BRANCH   1  29
HETATM   29  C   UNL     1     -40.813  58.508 -50.411  1.00  0.00     0.426 C 
HETATM   30  F   UNL     1     -39.489  58.800 -50.374  1.00  0.00    -0.167 F 
HETATM   31  F   UNL     1     -41.452  59.616 -49.971  1.00  0.00    -0.167 F 
HETATM   32  F   UNL     1     -41.024  57.527 -49.503  1.00  0.00    -0.167 F 
ENDBRANCH   1  29
BRANCH   7  33
HETATM   33  C   UNL     1     -44.201  61.477 -53.553  1.00  0.00     0.140 C 
BRANCH  33  34
HETATM   34  C   UNL     1     -44.824  61.510 -54.950  1.00  0.00     0.059 C 
BRANCH  34  35
HETATM   35  C   UNL     1     -43.944  60.770 -55.931  1.00  0.00    -0.057 A 
HETATM   36  C   UNL     1     -44.320  59.509 -56.415  1.00  0.00     0.007 A 
HETATM   37  C   UNL     1     -43.472  58.796 -57.265  1.00  0.00     0.001 A 
HETATM   38  C   UNL     1     -42.245  59.337 -57.641  1.00  0.00     0.000 A 
HETATM   39  C   UNL     1     -41.865  60.592 -57.171  1.00  0.00     0.001 A 
HETATM   40  C   UNL     1     -42.708  61.306 -56.317  1.00  0.00     0.007 A 
ENDBRANCH  34  35
ENDBRANCH  33  34
ENDBRANCH   7  33
TORSDOF 7
ENDMDL
MODEL 9
REMARK VINA RESULT:      -8.2      5.188      6.822
REMARK  7 active torsions:
REMARK  status: ('A' for Active; 'I' for Inactive)
REMARK    1  A    between atoms: C_2  and  C_3 
REMARK    2  A    between atoms: C_6  and  C_7 
REMARK       I    between atoms: C_7  and  N_8 
REMARK    3  A    between atoms: N_8  and  C_9 
REMARK    4  A    between atoms: C_9  and  C_10 
REMARK    5  A    between atoms: N_19  and  C_20 
REMARK    6  A    between atoms: C_20  and  C_21 
REMARK    7  A    between atoms: C_21  and  C_22 
ROOT
HETATM    1  C   UNL     1     -42.181  58.758 -52.263  1.00  0.00     0.249 C 
HETATM    2  C   UNL     1     -41.491  58.861 -50.888  1.00  0.00     0.266 C 
HETATM    3  O   UNL     1     -40.970  59.841 -50.383  1.00  0.00    -0.270 OA
HETATM    4  N   UNL     1     -41.534  57.596 -50.304  1.00  0.00    -0.310 N 
HETATM    5  C   UNL     1     -42.278  56.740 -51.045  1.00  0.00     0.129 C 
HETATM    6  C   UNL     1     -42.719  57.367 -52.134  1.00  0.00     0.101 C 
HETATM    7  N   UNL     1     -42.541  55.425 -50.785  1.00  0.00    -0.284 N 
HETATM    8  C   UNL     1     -43.406  54.704 -51.613  1.00  0.00     0.331 C 
HETATM    9  O   UNL     1     -43.702  53.524 -51.443  1.00  0.00    -0.246 OA
HETATM   10  N   UNL     1     -43.907  55.393 -52.695  1.00  0.00    -0.275 N 
HETATM   11  C   UNL     1     -43.559  56.660 -53.081  1.00  0.00     0.262 C 
HETATM   12  O   UNL     1     -43.907  57.172 -54.136  1.00  0.00    -0.267 OA
HETATM   13  H   UNL     1     -41.153  57.418 -49.386  1.00  0.00     0.170 HD
HETATM   14  H   UNL     1     -44.490  54.864 -53.325  1.00  0.00     0.173 HD
ENDROOT
BRANCH   1  15
HETATM   15  N   UNL     1     -43.222  59.762 -52.538  1.00  0.00    -0.327 N 
HETATM   16  C   UNL     1     -44.326  59.945 -51.739  1.00  0.00     0.253 C 
HETATM   17  O   UNL     1     -44.481  59.351 -50.679  1.00  0.00    -0.268 OA
HETATM   18  H   UNL     1     -43.345  59.983 -53.521  1.00  0.00     0.164 HD
BRANCH  16  19
HETATM   19  C   UNL     1     -45.368  60.872 -52.274  1.00  0.00     0.032 A 
HETATM   20  C   UNL     1     -45.522  61.103 -53.644  1.00  0.00     0.017 A 
HETATM   21  C   UNL     1     -46.542  61.943 -54.109  1.00  0.00     0.009 A 
HETATM   22  C   UNL     1     -47.431  62.583 -53.226  1.00  0.00    -0.051 A 
HETATM   23  C   UNL     1     -47.233  62.373 -51.851  1.00  0.00     0.009 A 
HETATM   24  C   UNL     1     -46.214  61.530 -51.379  1.00  0.00     0.017 A 
BRANCH  22  25
HETATM   25  C   UNL     1     -48.551  63.485 -53.780  1.00  0.00    -0.024 C 
HETATM   26  C   UNL     1     -49.316  64.160 -52.619  1.00  0.00     0.019 C 
HETATM   27  C   UNL     1     -49.535  62.628 -54.601  1.00  0.00     0.019 C 
HETATM   28  C   UNL     1     -48.041  64.619 -54.698  1.00  0.00     0.019 C 
ENDBRANCH  22  25
ENDBRANCH  16  19
ENDBRANCH   1  15
BRANCH   1  29
HETATM   29  C   UNL     1     -41.021  58.812 -53.271  1.00  0.00     0.426 C 
HETATM   30  F   UNL     1     -40.821  57.597 -53.840  1.00  0.00    -0.167 F 
HETATM   31  F   UNL     1     -41.269  59.666 -54.291  1.00  0.00    -0.167 F 
HETATM   32  F   UNL     1     -39.847  59.180 -52.707  1.00  0.00    -0.167 F 
ENDBRANCH   1  29
BRANCH   7  33
HETATM   33  C   UNL     1     -41.847  54.706 -49.718  1.00  0.00     0.140 C 
BRANCH  33  34
HETATM   34  C   UNL     1     -40.368  54.450 -50.014  1.00  0.00     0.059 C 
BRANCH  34  35
HETATM   35  C   UNL     1     -40.221  53.291 -50.972  1.00  0.00    -0.057 A 
HETATM   36  C   UNL     1     -40.024  51.989 -50.491  1.00  0.00     0.007 A 
HETATM   37  C   UNL     1     -39.816  50.932 -51.378  1.00  0.00     0.001 A 
HETATM   38  C   UNL     1     -39.806  51.164 -52.752  1.00  0.00     0.000 A 
HETATM   39  C   UNL     1     -40.007  52.453 -53.240  1.00  0.00     0.001 A 
HETATM   40  C   UNL     1     -40.210  53.514 -52.356  1.00  0.00     0.007 A 
ENDBRANCH  34  35
ENDBRANCH  33  34
ENDBRANCH   7  33
TORSDOF 7
ENDMDL
MODEL 10
REMARK VINA RESULT:      -8.1      5.089      8.180
REMARK  7 active torsions:
REMARK  status: ('A' for Active; 'I' for Inactive)
REMARK    1  A    between atoms: C_2  and  C_3 
REMARK    2  A    between atoms: C_6  and  C_7 
REMARK       I    between atoms: C_7  and  N_8 
REMARK    3  A    between atoms: N_8  and  C_9 
REMARK    4  A    between atoms: C_9  and  C_10 
REMARK    5  A    between atoms: N_19  and  C_20 
REMARK    6  A    between atoms: C_20  and  C_21 
REMARK    7  A    between atoms: C_21  and  C_22 
ROOT
HETATM    1  C   UNL     1     -42.812  57.783 -51.619  1.00  0.00     0.249 C 
HETATM    2  C   UNL     1     -43.768  56.604 -51.888  1.00  0.00     0.266 C 
HETATM    3  O   UNL     1     -44.316  55.882 -51.072  1.00  0.00    -0.270 OA
HETATM    4  N   UNL     1     -43.887  56.470 -53.271  1.00  0.00    -0.310 N 
HETATM    5  C   UNL     1     -43.261  57.484 -53.915  1.00  0.00     0.129 C 
HETATM    6  C   UNL     1     -42.689  58.289 -53.022  1.00  0.00     0.101 C 
HETATM    7  N   UNL     1     -43.169  57.684 -55.264  1.00  0.00    -0.284 N 
HETATM    8  C   UNL     1     -42.557  58.836 -55.763  1.00  0.00     0.331 C 
HETATM    9  O   UNL     1     -42.443  59.095 -56.959  1.00  0.00    -0.246 OA
HETATM   10  N   UNL     1     -42.034  59.690 -54.819  1.00  0.00    -0.275 N 
HETATM   11  C   UNL     1     -41.968  59.465 -53.470  1.00  0.00     0.262 C 
HETATM   12  O   UNL     1     -41.353  60.177 -52.688  1.00  0.00    -0.267 OA
HETATM   13  H   UNL     1     -44.478  55.768 -53.691  1.00  0.00     0.170 HD
HETATM   14  H   UNL     1     -41.545  60.498 -55.174  1.00  0.00     0.173 HD
ENDROOT
BRANCH   1  15
HETATM   15  N   UNL     1     -43.296  58.801 -50.673  1.00  0.00    -0.327 N 
HETATM   16  C   UNL     1     -44.559  59.342 -50.725  1.00  0.00     0.253 C 
HETATM   17  O   UNL     1     -45.416  58.949 -51.506  1.00  0.00    -0.268 OA
HETATM   18  H   UNL     1     -42.572  59.403 -50.293  1.00  0.00     0.164 HD
BRANCH  16  19
HETATM   19  C   UNL     1     -44.810  60.495 -49.808  1.00  0.00     0.032 A 
HETATM   20  C   UNL     1     -45.896  60.520 -48.928  1.00  0.00     0.017 A 
HETATM   21  C   UNL     1     -46.071  61.598 -48.052  1.00  0.00     0.009 A 
HETATM   22  C   UNL     1     -45.177  62.685 -48.030  1.00  0.00    -0.051 A 
HETATM   23  C   UNL     1     -44.116  62.661 -48.951  1.00  0.00     0.009 A 
HETATM   24  C   UNL     1     -43.935  61.583 -49.831  1.00  0.00     0.017 A 
BRANCH  22  25
HETATM   25  C   UNL     1     -45.396  63.842 -47.037  1.00  0.00    -0.024 C 
HETATM   26  C   UNL     1     -45.698  63.286 -45.627  1.00  0.00     0.019 C 
HETATM   27  C   UNL     1     -46.590  64.698 -47.507  1.00  0.00     0.019 C 
HETATM   28  C   UNL     1     -44.176  64.781 -46.895  1.00  0.00     0.019 C 
ENDBRANCH  22  25
ENDBRANCH  16  19
ENDBRANCH   1  15
BRANCH   1  29
HETATM   29  C   UNL     1     -41.508  57.112 -51.155  1.00  0.00     0.426 C 
HETATM   30  F   UNL     1     -40.948  56.400 -52.165  1.00  0.00    -0.167 F 
HETATM   31  F   UNL     1     -40.576  58.015 -50.772  1.00  0.00    -0.167 F 
HETATM   32  F   UNL     1     -41.693  56.254 -50.125  1.00  0.00    -0.167 F 
ENDBRANCH   1  29
BRANCH   7  33
HETATM   33  C   UNL     1     -43.595  56.659 -56.215  1.00  0.00     0.140 C 
BRANCH  33  34
HETATM   34  C   UNL     1     -42.440  55.831 -56.782  1.00  0.00     0.059 C 
BRANCH  34  35
HETATM   35  C   UNL     1     -41.889  54.910 -55.719  1.00  0.00    -0.057 A 
HETATM   36  C   UNL     1     -40.547  55.000 -55.323  1.00  0.00     0.007 A 
HETATM   37  C   UNL     1     -40.022  54.100 -54.394  1.00  0.00     0.001 A 
HETATM   38  C   UNL     1     -40.832  53.106 -53.849  1.00  0.00     0.000 A 
HETATM   39  C   UNL     1     -42.168  53.012 -54.231  1.00  0.00     0.001 A 
HETATM   40  C   UNL     1     -42.696  53.907 -55.164  1.00  0.00     0.007 A 
ENDBRANCH  34  35
ENDBRANCH  33  34
ENDBRANCH   7  33
TORSDOF 7
ENDMDL
