MODEL 1
REMARK VINA RESULT:      -7.2      0.000      0.000
REMARK  7 active torsions:
REMARK  status: ('A' for Active; 'I' for Inactive)
REMARK    1  A    between atoms: S_2  and  C_3 
REMARK    2  A    between atoms: C_3  and  C_4 
REMARK    3  A    between atoms: C_4  and  C_5 
REMARK    4  A    between atoms: C_5  and  N_6 
REMARK    5  A    between atoms: C_5  and  C_10 
REMARK       I    between atoms: N_6  and  C_7 
REMARK       I    between atoms: C_7  and  N_8 
REMARK       I    between atoms: C_10  and  N_11 
REMARK    6  A    between atoms: N_11  and  N_12 
REMARK       I    between atoms: N_12  and  C_13 
REMARK    7  A    between atoms: C_13  and  C_14 
ROOT
HETATM    1  C   UNL     1     -44.687  58.900 -51.406  1.00  0.00     0.259 C 
HETATM    2  N   UNL     1     -43.709  58.295 -50.646  1.00  0.00    -0.265 N 
HETATM    3  O   UNL     1     -45.076  58.428 -52.477  1.00  0.00    -0.269 OA
HETATM    4  H   UNL     1     -43.471  58.588 -49.695  1.00  0.00     0.190 HD
ENDROOT
BRANCH   2   5
HETATM    5  N   UNL     1     -43.169  57.089 -51.101  1.00  0.00    -0.263 N 
HETATM    6  C   UNL     1     -41.795  56.910 -51.120  1.00  0.00     0.278 C 
HETATM    7  O   UNL     1     -41.052  57.817 -50.742  1.00  0.00    -0.265 OA
HETATM    8  H   UNL     1     -43.821  56.334 -51.302  1.00  0.00     0.190 HD
BRANCH   6   9
HETATM    9  C   UNL     1     -41.332  55.617 -51.613  1.00  0.00     0.097 A 
HETATM   10  S   UNL     1     -41.375  55.250 -53.287  1.00  0.00    -0.082 SA
HETATM   11  C   UNL     1     -40.666  53.703 -53.071  1.00  0.00     0.017 A 
HETATM   12  C   UNL     1     -40.409  53.444 -51.723  1.00  0.00     0.004 A 
HETATM   13  C   UNL     1     -40.359  52.770 -54.080  1.00  0.00     0.020 A 
HETATM   14  C   UNL     1     -40.807  54.558 -50.896  1.00  0.00     0.068 A 
HETATM   15  C   UNL     1     -39.821  52.193 -51.396  1.00  0.00     0.014 A 
HETATM   16 CL   UNL     1     -40.606  54.510 -49.186  1.00  0.00    -0.082 Cl
HETATM   17  C   UNL     1     -39.511  51.264 -52.394  1.00  0.00     0.001 A 
HETATM   18  C   UNL     1     -39.777  51.552 -53.723  1.00  0.00     0.001 A 
ENDBRANCH   6   9
ENDBRANCH   2   5
BRANCH   1  19
HETATM   19  C   UNL     1     -45.263  60.192 -50.806  1.00  0.00     0.180 C 
BRANCH  19  20
HETATM   20  C   UNL     1     -44.899  61.435 -51.633  1.00  0.00     0.045 C 
BRANCH  20  21
HETATM   21  C   UNL     1     -43.416  61.655 -51.940  1.00  0.00     0.076 C 
BRANCH  21  22
HETATM   22  S   UNL     1     -43.010  61.402 -53.697  1.00  0.00    -0.173 SA
HETATM   23  C   UNL     1     -41.881  59.998 -53.520  1.00  0.00     0.089 C 
ENDBRANCH  21  22
ENDBRANCH  20  21
ENDBRANCH  19  20
BRANCH  19  24
HETATM   24  N   UNL     1     -44.712  60.291 -49.454  1.00  0.00    -0.330 N 
HETATM   25  C   UNL     1     -45.365  60.909 -48.440  1.00  0.00     0.314 C 
HETATM   26  N   UNL     1     -44.663  60.889 -47.280  1.00  0.00    -0.352 N 
HETATM   27  O   UNL     1     -46.463  61.436 -48.521  1.00  0.00    -0.248 OA
HETATM   28  H   UNL     1     -44.114  60.063 -47.091  1.00  0.00     0.160 HD
HETATM   29  H   UNL     1     -45.193  61.235 -46.490  1.00  0.00     0.160 HD
HETATM   30  H   UNL     1     -43.730  60.070 -49.337  1.00  0.00     0.165 HD
ENDBRANCH  19  24
ENDBRANCH   1  19
TORSDOF 7
ENDMDL
MODEL 2
REMARK VINA RESULT:      -7.1      5.516      7.247
REMARK  7 active torsions:
REMARK  status: ('A' for Active; 'I' for Inactive)
REMARK    1  A    between atoms: S_2  and  C_3 
REMARK    2  A    between atoms: C_3  and  C_4 
REMARK    3  A    between atoms: C_4  and  C_5 
REMARK    4  A    between atoms: C_5  and  N_6 
REMARK    5  A    between atoms: C_5  and  C_10 
REMARK       I    between atoms: N_6  and  C_7 
REMARK       I    between atoms: C_7  and  N_8 
REMARK       I    between atoms: C_10  and  N_11 
REMARK    6  A    between atoms: N_11  and  N_12 
REMARK       I    between atoms: N_12  and  C_13 
REMARK    7  A    between atoms: C_13  and  C_14 
ROOT
HETATM    1  C   UNL     1     -43.737  57.220 -56.785  1.00  0.00     0.259 C 
HETATM    2  N   UNL     1     -43.641  55.920 -56.336  1.00  0.00    -0.265 N 
HETATM    3  O   UNL     1     -43.482  58.187 -56.063  1.00  0.00    -0.269 OA
HETATM    4  H   UNL     1     -43.711  55.104 -56.950  1.00  0.00     0.190 HD
ENDROOT
BRANCH   2   5
HETATM    5  N   UNL     1     -43.207  55.703 -55.026  1.00  0.00    -0.263 N 
HETATM    6  C   UNL     1     -42.038  54.998 -54.792  1.00  0.00     0.278 C 
HETATM    7  O   UNL     1     -41.386  54.559 -55.740  1.00  0.00    -0.265 OA
HETATM    8  H   UNL     1     -43.719  56.174 -54.282  1.00  0.00     0.190 HD
BRANCH   6   9
HETATM    9  C   UNL     1     -41.672  54.825 -53.391  1.00  0.00     0.097 A 
HETATM   10  S   UNL     1     -42.084  56.012 -52.224  1.00  0.00    -0.082 SA
HETATM   11  C   UNL     1     -41.416  55.115 -50.924  1.00  0.00     0.017 A 
HETATM   12  C   UNL     1     -40.856  53.915 -51.368  1.00  0.00     0.004 A 
HETATM   13  C   UNL     1     -41.402  55.485 -49.565  1.00  0.00     0.020 A 
HETATM   14  C   UNL     1     -41.008  53.768 -52.796  1.00  0.00     0.068 A 
HETATM   15  C   UNL     1     -40.263  53.068 -50.394  1.00  0.00     0.014 A 
HETATM   16 CL   UNL     1     -40.405  52.379 -53.615  1.00  0.00    -0.082 Cl
HETATM   17  C   UNL     1     -40.249  53.429 -49.043  1.00  0.00     0.001 A 
HETATM   18  C   UNL     1     -40.814  54.627 -48.634  1.00  0.00     0.001 A 
ENDBRANCH   6   9
ENDBRANCH   2   5
BRANCH   1  19
HETATM   19  C   UNL     1     -44.170  57.366 -58.253  1.00  0.00     0.180 C 
BRANCH  19  20
HETATM   20  C   UNL     1     -45.340  58.346 -58.424  1.00  0.00     0.045 C 
BRANCH  20  21
HETATM   21  C   UNL     1     -46.684  57.756 -58.860  1.00  0.00     0.076 C 
BRANCH  21  22
HETATM   22  S   UNL     1     -47.098  58.139 -60.591  1.00  0.00    -0.173 SA
HETATM   23  C   UNL     1     -47.488  56.465 -61.159  1.00  0.00     0.089 C 
ENDBRANCH  21  22
ENDBRANCH  20  21
ENDBRANCH  19  20
BRANCH  19  24
HETATM   24  N   UNL     1     -44.550  56.024 -58.696  1.00  0.00    -0.330 N 
HETATM   25  C   UNL     1     -44.128  55.493 -59.870  1.00  0.00     0.314 C 
HETATM   26  N   UNL     1     -44.611  54.245 -60.080  1.00  0.00    -0.352 N 
HETATM   27  O   UNL     1     -43.393  56.045 -60.674  1.00  0.00    -0.248 OA
HETATM   28  H   UNL     1     -44.712  53.650 -59.270  1.00  0.00     0.160 HD
HETATM   29  H   UNL     1     -44.203  53.793 -60.889  1.00  0.00     0.160 HD
HETATM   30  H   UNL     1     -45.312  55.572 -58.205  1.00  0.00     0.165 HD
ENDBRANCH  19  24
ENDBRANCH   1  19
TORSDOF 7
ENDMDL
MODEL 3
REMARK VINA RESULT:      -7.1      2.231      3.051
REMARK  7 active torsions:
REMARK  status: ('A' for Active; 'I' for Inactive)
REMARK    1  A    between atoms: S_2  and  C_3 
REMARK    2  A    between atoms: C_3  and  C_4 
REMARK    3  A    between atoms: C_4  and  C_5 
REMARK    4  A    between atoms: C_5  and  N_6 
REMARK    5  A    between atoms: C_5  and  C_10 
REMARK       I    between atoms: N_6  and  C_7 
REMARK       I    between atoms: C_7  and  N_8 
REMARK       I    between atoms: C_10  and  N_11 
REMARK    6  A    between atoms: N_11  and  N_12 
REMARK       I    between atoms: N_12  and  C_13 
REMARK    7  A    between atoms: C_13  and  C_14 
ROOT
HETATM    1  C   UNL     1     -45.169  59.829 -49.877  1.00  0.00     0.259 C 
HETATM    2  N   UNL     1     -43.842  59.771 -50.244  1.00  0.00    -0.265 N 
HETATM    3  O   UNL     1     -45.972  58.938 -50.165  1.00  0.00    -0.269 OA
HETATM    4  H   UNL     1     -43.132  60.423 -49.900  1.00  0.00     0.190 HD
ENDROOT
BRANCH   2   5
HETATM    5  N   UNL     1     -43.396  58.642 -50.937  1.00  0.00    -0.263 N 
HETATM    6  C   UNL     1     -42.067  58.544 -51.318  1.00  0.00     0.278 C 
HETATM    7  O   UNL     1     -41.283  59.456 -51.050  1.00  0.00    -0.265 OA
HETATM    8  H   UNL     1     -44.052  57.871 -51.042  1.00  0.00     0.190 HD
BRANCH   6   9
HETATM    9  C   UNL     1     -41.703  57.328 -52.037  1.00  0.00     0.097 A 
HETATM   10  S   UNL     1     -41.330  57.377 -53.710  1.00  0.00    -0.082 SA
HETATM   11  C   UNL     1     -40.975  55.700 -53.784  1.00  0.00     0.017 A 
HETATM   12  C   UNL     1     -41.155  55.085 -52.543  1.00  0.00     0.004 A 
HETATM   13  C   UNL     1     -40.552  54.979 -54.917  1.00  0.00     0.020 A 
HETATM   14  C   UNL     1     -41.582  56.040 -51.548  1.00  0.00     0.068 A 
HETATM   15  C   UNL     1     -40.897  53.692 -52.458  1.00  0.00     0.014 A 
HETATM   16 CL   UNL     1     -41.883  55.555 -49.924  1.00  0.00    -0.082 Cl
HETATM   17  C   UNL     1     -40.473  52.971 -53.579  1.00  0.00     0.001 A 
HETATM   18  C   UNL     1     -40.303  53.610 -54.797  1.00  0.00     0.001 A 
ENDBRANCH   6   9
ENDBRANCH   2   5
BRANCH   1  19
HETATM   19  C   UNL     1     -45.562  61.079 -49.073  1.00  0.00     0.180 C 
BRANCH  19  20
HETATM   20  C   UNL     1     -45.045  62.376 -49.715  1.00  0.00     0.045 C 
BRANCH  20  21
HETATM   21  C   UNL     1     -46.021  63.553 -49.786  1.00  0.00     0.076 C 
BRANCH  21  22
HETATM   22  S   UNL     1     -47.526  63.287 -48.796  1.00  0.00    -0.173 SA
HETATM   23  C   UNL     1     -46.988  64.076 -47.259  1.00  0.00     0.089 C 
ENDBRANCH  21  22
ENDBRANCH  20  21
ENDBRANCH  19  20
BRANCH  19  24
HETATM   24  N   UNL     1     -44.987  60.898 -47.740  1.00  0.00    -0.330 N 
HETATM   25  C   UNL     1     -45.733  60.564 -46.659  1.00  0.00     0.314 C 
HETATM   26  N   UNL     1     -44.994  60.460 -45.527  1.00  0.00    -0.352 N 
HETATM   27  O   UNL     1     -46.939  60.371 -46.662  1.00  0.00    -0.248 OA
HETATM   28  H   UNL     1     -44.060  60.087 -45.624  1.00  0.00     0.160 HD
HETATM   29  H   UNL     1     -45.518  60.090 -44.744  1.00  0.00     0.160 HD
HETATM   30  H   UNL     1     -44.042  61.232 -47.593  1.00  0.00     0.165 HD
ENDBRANCH  19  24
ENDBRANCH   1  19
TORSDOF 7
ENDMDL
MODEL 4
REMARK VINA RESULT:      -7.1      5.248      7.066
REMARK  7 active torsions:
REMARK  status: ('A' for Active; 'I' for Inactive)
REMARK    1  A    between atoms: S_2  and  C_3 
REMARK    2  A    between atoms: C_3  and  C_4 
REMARK    3  A    between atoms: C_4  and  C_5 
REMARK    4  A    between atoms: C_5  and  N_6 
REMARK    5  A    between atoms: C_5  and  C_10 
REMARK       I    between atoms: N_6  and  C_7 
REMARK       I    between atoms: C_7  and  N_8 
REMARK       I    between atoms: C_10  and  N_11 
REMARK    6  A    between atoms: N_11  and  N_12 
REMARK       I    between atoms: N_12  and  C_13 
REMARK    7  A    between atoms: C_13  and  C_14 
ROOT
HETATM    1  C   UNL     1     -43.198  56.590 -57.443  1.00  0.00     0.259 C 
HETATM    2  N   UNL     1     -42.219  55.680 -57.107  1.00  0.00    -0.265 N 
HETATM    3  O   UNL     1     -43.761  57.294 -56.601  1.00  0.00    -0.269 OA
HETATM    4  H   UNL     1     -41.643  55.190 -57.797  1.00  0.00     0.190 HD
ENDROOT
BRANCH   2   5
HETATM    5  N   UNL     1     -41.836  55.584 -55.767  1.00  0.00    -0.263 N 
HETATM    6  C   UNL     1     -42.375  54.594 -54.962  1.00  0.00     0.278 C 
HETATM    7  O   UNL     1     -43.196  53.803 -55.429  1.00  0.00    -0.265 OA
HETATM    8  H   UNL     1     -41.079  56.190 -55.455  1.00  0.00     0.190 HD
BRANCH   6   9
HETATM    9  C   UNL     1     -41.911  54.579 -53.579  1.00  0.00     0.097 A 
HETATM   10  S   UNL     1     -42.512  55.712 -52.441  1.00  0.00    -0.082 SA
HETATM   11  C   UNL     1     -41.601  55.050 -51.147  1.00  0.00     0.017 A 
HETATM   12  C   UNL     1     -40.818  53.975 -51.573  1.00  0.00     0.004 A 
HETATM   13  C   UNL     1     -41.600  55.488 -49.809  1.00  0.00     0.020 A 
HETATM   14  C   UNL     1     -41.005  53.723 -52.981  1.00  0.00     0.068 A 
HETATM   15  C   UNL     1     -40.008  53.329 -50.602  1.00  0.00     0.014 A 
HETATM   16 CL   UNL     1     -40.157  52.452 -53.776  1.00  0.00    -0.082 Cl
HETATM   17  C   UNL     1     -40.004  53.757 -49.270  1.00  0.00     0.001 A 
HETATM   18  C   UNL     1     -40.795  54.827 -48.879  1.00  0.00     0.001 A 
ENDBRANCH   6   9
ENDBRANCH   2   5
BRANCH   1  19
HETATM   19  C   UNL     1     -43.520  56.668 -58.944  1.00  0.00     0.180 C 
BRANCH  19  20
HETATM   20  C   UNL     1     -43.006  57.965 -59.587  1.00  0.00     0.045 C 
BRANCH  20  21
HETATM   21  C   UNL     1     -43.966  59.157 -59.612  1.00  0.00     0.076 C 
BRANCH  21  22
HETATM   22  S   UNL     1     -43.476  60.488 -58.472  1.00  0.00    -0.173 SA
HETATM   23  C   UNL     1     -41.801  59.919 -58.087  1.00  0.00     0.089 C 
ENDBRANCH  21  22
ENDBRANCH  20  21
ENDBRANCH  19  20
BRANCH  19  24
HETATM   24  N   UNL     1     -44.976  56.581 -59.050  1.00  0.00    -0.330 N 
HETATM   25  C   UNL     1     -45.599  55.833 -59.994  1.00  0.00     0.314 C 
HETATM   26  N   UNL     1     -46.950  55.909 -59.910  1.00  0.00    -0.352 N 
HETATM   27  O   UNL     1     -45.042  55.154 -60.841  1.00  0.00    -0.248 OA
HETATM   28  H   UNL     1     -47.348  55.979 -58.985  1.00  0.00     0.160 HD
HETATM   29  H   UNL     1     -47.422  55.260 -60.527  1.00  0.00     0.160 HD
HETATM   30  H   UNL     1     -45.520  57.260 -58.531  1.00  0.00     0.165 HD
ENDBRANCH  19  24
ENDBRANCH   1  19
TORSDOF 7
ENDMDL
MODEL 5
REMARK VINA RESULT:      -6.8      1.711      2.229
REMARK  7 active torsions:
REMARK  status: ('A' for Active; 'I' for Inactive)
REMARK    1  A    between atoms: S_2  and  C_3 
REMARK    2  A    between atoms: C_3  and  C_4 
REMARK    3  A    between atoms: C_4  and  C_5 
REMARK    4  A    between atoms: C_5  and  N_6 
REMARK    5  A    between atoms: C_5  and  C_10 
REMARK       I    between atoms: N_6  and  C_7 
REMARK       I    between atoms: C_7  and  N_8 
REMARK       I    between atoms: C_10  and  N_11 
REMARK    6  A    between atoms: N_11  and  N_12 
REMARK       I    between atoms: N_12  and  C_13 
REMARK    7  A    between atoms: C_13  and  C_14 
ROOT
HETATM    1  C   UNL     1     -42.843  59.940 -50.795  1.00  0.00     0.259 C 
HETATM    2  N   UNL     1     -43.559  58.771 -50.940  1.00  0.00    -0.265 N 
HETATM    3  O   UNL     1     -41.635  60.008 -51.035  1.00  0.00    -0.269 OA
HETATM    4  H   UNL     1     -44.579  58.724 -50.883  1.00  0.00     0.190 HD
ENDROOT
BRANCH   2   5
HETATM    5  N   UNL     1     -42.888  57.639 -51.408  1.00  0.00    -0.263 N 
HETATM    6  C   UNL     1     -43.419  56.378 -51.185  1.00  0.00     0.278 C 
HETATM    7  O   UNL     1     -44.479  56.259 -50.570  1.00  0.00    -0.265 OA
HETATM    8  H   UNL     1     -42.074  57.792 -52.001  1.00  0.00     0.190 HD
BRANCH   6   9
HETATM    9  C   UNL     1     -42.643  55.262 -51.713  1.00  0.00     0.097 A 
HETATM   10  S   UNL     1     -42.812  54.771 -53.347  1.00  0.00    -0.082 SA
HETATM   11  C   UNL     1     -41.619  53.546 -53.209  1.00  0.00     0.017 A 
HETATM   12  C   UNL     1     -41.096  53.486 -51.916  1.00  0.00     0.004 A 
HETATM   13  C   UNL     1     -41.179  52.681 -54.230  1.00  0.00     0.020 A 
HETATM   14  C   UNL     1     -41.704  54.480 -51.064  1.00  0.00     0.068 A 
HETATM   15  C   UNL     1     -40.095  52.513 -51.658  1.00  0.00     0.014 A 
HETATM   16 CL   UNL     1     -41.249  54.631 -49.410  1.00  0.00    -0.082 Cl
HETATM   17  C   UNL     1     -39.652  51.653 -52.668  1.00  0.00     0.001 A 
HETATM   18  C   UNL     1     -40.191  51.738 -53.942  1.00  0.00     0.001 A 
ENDBRANCH   6   9
ENDBRANCH   2   5
BRANCH   1  19
HETATM   19  C   UNL     1     -43.669  61.149 -50.327  1.00  0.00     0.180 C 
BRANCH  19  20
HETATM   20  C   UNL     1     -42.885  62.467 -50.423  1.00  0.00     0.045 C 
BRANCH  20  21
HETATM   21  C   UNL     1     -43.604  63.739 -49.966  1.00  0.00     0.076 C 
BRANCH  21  22
HETATM   22  S   UNL     1     -44.344  64.669 -51.344  1.00  0.00    -0.173 SA
HETATM   23  C   UNL     1     -46.010  63.964 -51.290  1.00  0.00     0.089 C 
ENDBRANCH  21  22
ENDBRANCH  20  21
ENDBRANCH  19  20
BRANCH  19  24
HETATM   24  N   UNL     1     -44.044  60.871 -48.941  1.00  0.00    -0.330 N 
HETATM   25  C   UNL     1     -45.331  60.868 -48.515  1.00  0.00     0.314 C 
HETATM   26  N   UNL     1     -45.441  60.595 -47.192  1.00  0.00    -0.352 N 
HETATM   27  O   UNL     1     -46.308  61.082 -49.214  1.00  0.00    -0.248 OA
HETATM   28  H   UNL     1     -44.786  59.931 -46.805  1.00  0.00     0.160 HD
HETATM   29  H   UNL     1     -46.400  60.467 -46.893  1.00  0.00     0.160 HD
HETATM   30  H   UNL     1     -43.303  60.884 -48.249  1.00  0.00     0.165 HD
ENDBRANCH  19  24
ENDBRANCH   1  19
TORSDOF 7
ENDMDL
MODEL 6
REMARK VINA RESULT:      -6.6      3.322      4.271
REMARK  7 active torsions:
REMARK  status: ('A' for Active; 'I' for Inactive)
REMARK    1  A    between atoms: S_2  and  C_3 
REMARK    2  A    between atoms: C_3  and  C_4 
REMARK    3  A    between atoms: C_4  and  C_5 
REMARK    4  A    between atoms: C_5  and  N_6 
REMARK    5  A    between atoms: C_5  and  C_10 
REMARK       I    between atoms: N_6  and  C_7 
REMARK       I    between atoms: C_7  and  N_8 
REMARK       I    between atoms: C_10  and  N_11 
REMARK    6  A    between atoms: N_11  and  N_12 
REMARK       I    between atoms: N_12  and  C_13 
REMARK    7  A    between atoms: C_13  and  C_14 
ROOT
HETATM    1  C   UNL     1     -43.967  57.354 -53.998  1.00  0.00     0.259 C 
HETATM    2  N   UNL     1     -43.087  56.671 -54.810  1.00  0.00    -0.265 N 
HETATM    3  O   UNL     1     -44.354  56.901 -52.917  1.00  0.00    -0.269 OA
HETATM    4  H   UNL     1     -42.647  57.083 -55.637  1.00  0.00     0.190 HD
ENDROOT
BRANCH   2   5
HETATM    5  N   UNL     1     -42.598  55.440 -54.368  1.00  0.00    -0.263 N 
HETATM    6  C   UNL     1     -41.319  55.351 -53.842  1.00  0.00     0.278 C 
HETATM    7  O   UNL     1     -40.614  56.359 -53.771  1.00  0.00    -0.265 OA
HETATM    8  H   UNL     1     -43.252  54.659 -54.349  1.00  0.00     0.190 HD
BRANCH   6   9
HETATM    9  C   UNL     1     -40.903  54.022 -53.410  1.00  0.00     0.097 A 
HETATM   10  S   UNL     1     -40.614  52.778 -54.555  1.00  0.00    -0.082 SA
HETATM   11  C   UNL     1     -40.144  51.644 -53.357  1.00  0.00     0.017 A 
HETATM   12  C   UNL     1     -40.221  52.194 -52.076  1.00  0.00     0.004 A 
HETATM   13  C   UNL     1     -39.724  50.317 -53.573  1.00  0.00     0.020 A 
HETATM   14  C   UNL     1     -40.668  53.565 -52.126  1.00  0.00     0.068 A 
HETATM   15  C   UNL     1     -39.860  51.362 -50.983  1.00  0.00     0.014 A 
HETATM   16 CL   UNL     1     -40.857  54.491 -50.686  1.00  0.00    -0.082 Cl
HETATM   17  C   UNL     1     -39.439  50.045 -51.191  1.00  0.00     0.001 A 
HETATM   18  C   UNL     1     -39.372  49.529 -52.476  1.00  0.00     0.001 A 
ENDBRANCH   6   9
ENDBRANCH   2   5
BRANCH   1  19
HETATM   19  C   UNL     1     -44.413  58.723 -54.536  1.00  0.00     0.180 C 
BRANCH  19  20
HETATM   20  C   UNL     1     -44.585  59.764 -53.418  1.00  0.00     0.045 C 
BRANCH  20  21
HETATM   21  C   UNL     1     -43.417  60.724 -53.177  1.00  0.00     0.076 C 
BRANCH  21  22
HETATM   22  S   UNL     1     -41.853  59.863 -52.821  1.00  0.00    -0.173 SA
HETATM   23  C   UNL     1     -42.241  59.261 -51.159  1.00  0.00     0.089 C 
ENDBRANCH  21  22
ENDBRANCH  20  21
ENDBRANCH  19  20
BRANCH  19  24
HETATM   24  N   UNL     1     -45.683  58.492 -55.225  1.00  0.00    -0.330 N 
HETATM   25  C   UNL     1     -45.752  58.115 -56.525  1.00  0.00     0.314 C 
HETATM   26  N   UNL     1     -47.029  57.969 -56.957  1.00  0.00    -0.352 N 
HETATM   27  O   UNL     1     -44.796  57.919 -57.258  1.00  0.00    -0.248 OA
HETATM   28  H   UNL     1     -47.697  57.603 -56.295  1.00  0.00     0.160 HD
HETATM   29  H   UNL     1     -47.089  57.568 -57.885  1.00  0.00     0.160 HD
HETATM   30  H   UNL     1     -46.525  58.823 -54.769  1.00  0.00     0.165 HD
ENDBRANCH  19  24
ENDBRANCH   1  19
TORSDOF 7
ENDMDL
MODEL 7
REMARK VINA RESULT:      -6.5      2.033      2.755
REMARK  7 active torsions:
REMARK  status: ('A' for Active; 'I' for Inactive)
REMARK    1  A    between atoms: S_2  and  C_3 
REMARK    2  A    between atoms: C_3  and  C_4 
REMARK    3  A    between atoms: C_4  and  C_5 
REMARK    4  A    between atoms: C_5  and  N_6 
REMARK    5  A    between atoms: C_5  and  C_10 
REMARK       I    between atoms: N_6  and  C_7 
REMARK       I    between atoms: C_7  and  N_8 
REMARK       I    between atoms: C_10  and  N_11 
REMARK    6  A    between atoms: N_11  and  N_12 
REMARK       I    between atoms: N_12  and  C_13 
REMARK    7  A    between atoms: C_13  and  C_14 
ROOT
HETATM    1  C   UNL     1     -42.909  58.153 -51.460  1.00  0.00     0.259 C 
HETATM    2  N   UNL     1     -43.274  57.236 -52.423  1.00  0.00    -0.265 N 
HETATM    3  O   UNL     1     -42.128  57.874 -50.547  1.00  0.00    -0.269 OA
HETATM    4  H   UNL     1     -43.805  57.481 -53.263  1.00  0.00     0.190 HD
ENDROOT
BRANCH   2   5
HETATM    5  N   UNL     1     -42.708  55.960 -52.370  1.00  0.00    -0.263 N 
HETATM    6  C   UNL     1     -41.449  55.738 -52.904  1.00  0.00     0.278 C 
HETATM    7  O   UNL     1     -40.834  56.667 -53.431  1.00  0.00    -0.265 OA
HETATM    8  H   UNL     1     -43.206  55.252 -51.833  1.00  0.00     0.190 HD
BRANCH   6   9
HETATM    9  C   UNL     1     -40.948  54.373 -52.799  1.00  0.00     0.097 A 
HETATM   10  S   UNL     1     -40.713  53.640 -51.267  1.00  0.00    -0.082 SA
HETATM   11  C   UNL     1     -40.210  52.146 -51.944  1.00  0.00     0.017 A 
HETATM   12  C   UNL     1     -40.197  52.198 -53.339  1.00  0.00     0.004 A 
HETATM   13  C   UNL     1     -39.845  50.983 -51.238  1.00  0.00     0.020 A 
HETATM   14  C   UNL     1     -40.619  53.493 -53.815  1.00  0.00     0.068 A 
HETATM   15  C   UNL     1     -39.797  51.026 -54.034  1.00  0.00     0.014 A 
HETATM   16 CL   UNL     1     -40.695  53.839 -55.500  1.00  0.00    -0.082 Cl
HETATM   17  C   UNL     1     -39.436  49.867 -53.340  1.00  0.00     0.001 A 
HETATM   18  C   UNL     1     -39.461  49.848 -51.954  1.00  0.00     0.001 A 
ENDBRANCH   6   9
ENDBRANCH   2   5
BRANCH   1  19
HETATM   19  C   UNL     1     -43.537  59.546 -51.625  1.00  0.00     0.180 C 
BRANCH  19  20
HETATM   20  C   UNL     1     -42.543  60.573 -52.189  1.00  0.00     0.045 C 
BRANCH  20  21
HETATM   21  C   UNL     1     -43.110  61.655 -53.112  1.00  0.00     0.076 C 
BRANCH  21  22
HETATM   22  S   UNL     1     -43.846  63.049 -52.202  1.00  0.00    -0.173 SA
HETATM   23  C   UNL     1     -45.593  62.645 -52.443  1.00  0.00     0.089 C 
ENDBRANCH  21  22
ENDBRANCH  20  21
ENDBRANCH  19  20
BRANCH  19  24
HETATM   24  N   UNL     1     -43.990  59.944 -50.292  1.00  0.00    -0.330 N 
HETATM   25  C   UNL     1     -45.290  59.885 -49.912  1.00  0.00     0.314 C 
HETATM   26  N   UNL     1     -45.480  60.312 -48.639  1.00  0.00    -0.352 N 
HETATM   27  O   UNL     1     -46.214  59.497 -50.608  1.00  0.00    -0.248 OA
HETATM   28  H   UNL     1     -44.754  60.097 -47.971  1.00  0.00     0.160 HD
HETATM   29  H   UNL     1     -46.423  60.154 -48.305  1.00  0.00     0.160 HD
HETATM   30  H   UNL     1     -43.339  60.467 -49.718  1.00  0.00     0.165 HD
ENDBRANCH  19  24
ENDBRANCH   1  19
TORSDOF 7
ENDMDL
MODEL 8
REMARK VINA RESULT:      -6.4      5.255      6.964
REMARK  7 active torsions:
REMARK  status: ('A' for Active; 'I' for Inactive)
REMARK    1  A    between atoms: S_2  and  C_3 
REMARK    2  A    between atoms: C_3  and  C_4 
REMARK    3  A    between atoms: C_4  and  C_5 
REMARK    4  A    between atoms: C_5  and  N_6 
REMARK    5  A    between atoms: C_5  and  C_10 
REMARK       I    between atoms: N_6  and  C_7 
REMARK       I    between atoms: C_7  and  N_8 
REMARK       I    between atoms: C_10  and  N_11 
REMARK    6  A    between atoms: N_11  and  N_12 
REMARK       I    between atoms: N_12  and  C_13 
REMARK    7  A    between atoms: C_13  and  C_14 
ROOT
HETATM    1  C   UNL     1     -43.757  57.735 -56.554  1.00  0.00     0.259 C 
HETATM    2  N   UNL     1     -43.735  56.387 -56.268  1.00  0.00    -0.265 N 
HETATM    3  O   UNL     1     -43.485  58.593 -55.710  1.00  0.00    -0.269 OA
HETATM    4  H   UNL     1     -43.818  55.657 -56.981  1.00  0.00     0.190 HD
ENDROOT
BRANCH   2   5
HETATM    5  N   UNL     1     -43.359  55.990 -54.982  1.00  0.00    -0.263 N 
HETATM    6  C   UNL     1     -42.063  55.563 -54.741  1.00  0.00     0.278 C 
HETATM    7  O   UNL     1     -41.246  55.530 -55.662  1.00  0.00    -0.265 OA
HETATM    8  H   UNL     1     -44.035  56.135 -54.235  1.00  0.00     0.190 HD
BRANCH   6   9
HETATM    9  C   UNL     1     -41.772  55.170 -53.367  1.00  0.00     0.097 A 
HETATM   10  S   UNL     1     -41.218  53.587 -53.007  1.00  0.00    -0.082 SA
HETATM   11  C   UNL     1     -41.061  53.913 -51.330  1.00  0.00     0.017 A 
HETATM   12  C   UNL     1     -41.447  55.221 -51.026  1.00  0.00     0.004 A 
HETATM   13  C   UNL     1     -40.608  53.022 -50.338  1.00  0.00     0.020 A 
HETATM   14  C   UNL     1     -41.861  55.928 -52.214  1.00  0.00     0.068 A 
HETATM   15  C   UNL     1     -41.369  55.628 -49.668  1.00  0.00     0.014 A 
HETATM   16 CL   UNL     1     -42.392  57.564 -52.133  1.00  0.00    -0.082 Cl
HETATM   17  C   UNL     1     -40.917  54.749 -48.679  1.00  0.00     0.001 A 
HETATM   18  C   UNL     1     -40.540  53.458 -49.014  1.00  0.00     0.001 A 
ENDBRANCH   6   9
ENDBRANCH   2   5
BRANCH   1  19
HETATM   19  C   UNL     1     -44.128  58.082 -58.005  1.00  0.00     0.180 C 
BRANCH  19  20
HETATM   20  C   UNL     1     -45.580  57.709 -58.343  1.00  0.00     0.045 C 
BRANCH  20  21
HETATM   21  C   UNL     1     -45.987  57.765 -59.817  1.00  0.00     0.076 C 
BRANCH  21  22
HETATM   22  S   UNL     1     -46.783  56.231 -60.391  1.00  0.00    -0.173 SA
HETATM   23  C   UNL     1     -45.314  55.371 -61.006  1.00  0.00     0.089 C 
ENDBRANCH  21  22
ENDBRANCH  20  21
ENDBRANCH  19  20
BRANCH  19  24
HETATM   24  N   UNL     1     -43.194  57.336 -58.850  1.00  0.00    -0.330 N 
HETATM   25  C   UNL     1     -42.085  57.898 -59.388  1.00  0.00     0.314 C 
HETATM   26  N   UNL     1     -41.373  57.026 -60.143  1.00  0.00    -0.352 N 
HETATM   27  O   UNL     1     -41.731  59.057 -59.235  1.00  0.00    -0.248 OA
HETATM   28  H   UNL     1     -41.344  56.066 -59.829  1.00  0.00     0.160 HD
HETATM   29  H   UNL     1     -40.481  57.399 -60.444  1.00  0.00     0.160 HD
HETATM   30  H   UNL     1     -43.503  56.437 -59.201  1.00  0.00     0.165 HD
ENDBRANCH  19  24
ENDBRANCH   1  19
TORSDOF 7
ENDMDL
MODEL 9
REMARK VINA RESULT:      -6.4      4.909      6.728
REMARK  7 active torsions:
REMARK  status: ('A' for Active; 'I' for Inactive)
REMARK    1  A    between atoms: S_2  and  C_3 
REMARK    2  A    between atoms: C_3  and  C_4 
REMARK    3  A    between atoms: C_4  and  C_5 
REMARK    4  A    between atoms: C_5  and  N_6 
REMARK    5  A    between atoms: C_5  and  C_10 
REMARK       I    between atoms: N_6  and  C_7 
REMARK       I    between atoms: C_7  and  N_8 
REMARK       I    between atoms: C_10  and  N_11 
REMARK    6  A    between atoms: N_11  and  N_12 
REMARK       I    between atoms: N_12  and  C_13 
REMARK    7  A    between atoms: C_13  and  C_14 
ROOT
HETATM    1  C   UNL     1     -43.201  57.370 -57.503  1.00  0.00     0.259 C 
HETATM    2  N   UNL     1     -43.789  56.377 -56.749  1.00  0.00    -0.265 N 
HETATM    3  O   UNL     1     -42.115  57.870 -57.201  1.00  0.00    -0.269 OA
HETATM    4  H   UNL     1     -44.614  55.852 -57.052  1.00  0.00     0.190 HD
ENDROOT
BRANCH   2   5
HETATM    5  N   UNL     1     -43.106  55.907 -55.624  1.00  0.00    -0.263 N 
HETATM    6  C   UNL     1     -43.642  56.096 -54.360  1.00  0.00     0.278 C 
HETATM    7  O   UNL     1     -44.716  56.684 -54.231  1.00  0.00    -0.265 OA
HETATM    8  H   UNL     1     -42.279  55.336 -55.787  1.00  0.00     0.190 HD
BRANCH   6   9
HETATM    9  C   UNL     1     -42.852  55.570 -53.253  1.00  0.00     0.097 A 
HETATM   10  S   UNL     1     -42.167  54.000 -53.333  1.00  0.00    -0.082 SA
HETATM   11  C   UNL     1     -41.405  54.142 -51.803  1.00  0.00     0.017 A 
HETATM   12  C   UNL     1     -41.681  55.376 -51.209  1.00  0.00     0.004 A 
HETATM   13  C   UNL     1     -40.595  53.178 -51.173  1.00  0.00     0.020 A 
HETATM   14  C   UNL     1     -42.523  56.183 -52.058  1.00  0.00     0.068 A 
HETATM   15  C   UNL     1     -41.114  55.630 -49.932  1.00  0.00     0.014 A 
HETATM   16 CL   UNL     1     -43.025  57.758 -51.572  1.00  0.00    -0.082 Cl
HETATM   17  C   UNL     1     -40.306  54.678 -49.303  1.00  0.00     0.001 A 
HETATM   18  C   UNL     1     -40.050  53.463 -49.920  1.00  0.00     0.001 A 
ENDBRANCH   6   9
ENDBRANCH   2   5
BRANCH   1  19
HETATM   19  C   UNL     1     -43.995  57.789 -58.751  1.00  0.00     0.180 C 
BRANCH  19  20
HETATM   20  C   UNL     1     -44.678  59.155 -58.579  1.00  0.00     0.045 C 
BRANCH  20  21
HETATM   21  C   UNL     1     -45.832  59.234 -57.577  1.00  0.00     0.076 C 
BRANCH  21  22
HETATM   22  S   UNL     1     -45.420  60.209 -56.096  1.00  0.00    -0.173 SA
HETATM   23  C   UNL     1     -43.893  60.980 -56.689  1.00  0.00     0.089 C 
ENDBRANCH  21  22
ENDBRANCH  20  21
ENDBRANCH  19  20
BRANCH  19  24
HETATM   24  N   UNL     1     -44.989  56.738 -58.969  1.00  0.00    -0.330 N 
HETATM   25  C   UNL     1     -44.914  55.861 -60.000  1.00  0.00     0.314 C 
HETATM   26  N   UNL     1     -45.946  54.982 -60.012  1.00  0.00    -0.352 N 
HETATM   27  O   UNL     1     -44.032  55.832 -60.843  1.00  0.00    -0.248 OA
HETATM   28  H   UNL     1     -46.293  54.671 -59.116  1.00  0.00     0.160 HD
HETATM   29  H   UNL     1     -45.833  54.248 -60.700  1.00  0.00     0.160 HD
HETATM   30  H   UNL     1     -45.857  56.807 -58.451  1.00  0.00     0.165 HD
ENDBRANCH  19  24
ENDBRANCH   1  19
TORSDOF 7
ENDMDL
MODEL 10
REMARK VINA RESULT:      -6.1      4.927      8.591
REMARK  7 active torsions:
REMARK  status: ('A' for Active; 'I' for Inactive)
REMARK    1  A    between atoms: S_2  and  C_3 
REMARK    2  A    between atoms: C_3  and  C_4 
REMARK    3  A    between atoms: C_4  and  C_5 
REMARK    4  A    between atoms: C_5  and  N_6 
REMARK    5  A    between atoms: C_5  and  C_10 
REMARK       I    between atoms: N_6  and  C_7 
REMARK       I    between atoms: C_7  and  N_8 
REMARK       I    between atoms: C_10  and  N_11 
REMARK    6  A    between atoms: N_11  and  N_12 
REMARK       I    between atoms: N_12  and  C_13 
REMARK    7  A    between atoms: C_13  and  C_14 
ROOT
HETATM    1  C   UNL     1     -41.309  55.758 -53.962  1.00  0.00     0.259 C 
HETATM    2  N   UNL     1     -41.848  55.535 -55.211  1.00  0.00    -0.265 N 
HETATM    3  O   UNL     1     -40.684  56.786 -53.689  1.00  0.00    -0.269 OA
HETATM    4  H   UNL     1     -42.485  54.762 -55.421  1.00  0.00     0.190 HD
ENDROOT
BRANCH   2   5
HETATM    5  N   UNL     1     -41.701  56.528 -56.183  1.00  0.00    -0.263 N 
HETATM    6  C   UNL     1     -42.798  57.279 -56.575  1.00  0.00     0.278 C 
HETATM    7  O   UNL     1     -43.901  57.065 -56.071  1.00  0.00    -0.265 OA
HETATM    8  H   UNL     1     -40.755  56.740 -56.492  1.00  0.00     0.190 HD
BRANCH   6   9
HETATM    9  C   UNL     1     -42.540  58.289 -57.595  1.00  0.00     0.097 A 
HETATM   10  S   UNL     1     -42.252  59.922 -57.159  1.00  0.00    -0.082 SA
HETATM   11  C   UNL     1     -41.997  60.418 -58.781  1.00  0.00     0.017 A 
HETATM   12  C   UNL     1     -42.148  59.352 -59.670  1.00  0.00     0.004 A 
HETATM   13  C   UNL     1     -41.675  61.716 -59.223  1.00  0.00     0.020 A 
HETATM   14  C   UNL     1     -42.468  58.132 -58.967  1.00  0.00     0.068 A 
HETATM   15  C   UNL     1     -41.965  59.620 -61.052  1.00  0.00     0.014 A 
HETATM   16 CL   UNL     1     -42.713  56.655 -59.818  1.00  0.00    -0.082 Cl
HETATM   17  C   UNL     1     -41.642  60.905 -61.498  1.00  0.00     0.001 A 
HETATM   18  C   UNL     1     -41.498  61.943 -60.589  1.00  0.00     0.001 A 
ENDBRANCH   6   9
ENDBRANCH   2   5
BRANCH   1  19
HETATM   19  C   UNL     1     -41.562  54.639 -52.939  1.00  0.00     0.180 C 
BRANCH  19  20
HETATM   20  C   UNL     1     -41.517  53.242 -53.577  1.00  0.00     0.045 C 
BRANCH  20  21
HETATM   21  C   UNL     1     -40.166  52.768 -54.118  1.00  0.00     0.076 C 
BRANCH  21  22
HETATM   22  S   UNL     1     -39.756  51.068 -53.612  1.00  0.00    -0.173 SA
HETATM   23  C   UNL     1     -39.457  51.368 -51.853  1.00  0.00     0.089 C 
ENDBRANCH  21  22
ENDBRANCH  20  21
ENDBRANCH  19  20
BRANCH  19  24
HETATM   24  N   UNL     1     -42.884  54.904 -52.370  1.00  0.00    -0.330 N 
HETATM   25  C   UNL     1     -43.057  55.547 -51.189  1.00  0.00     0.314 C 
HETATM   26  N   UNL     1     -44.364  55.674 -50.852  1.00  0.00    -0.352 N 
HETATM   27  O   UNL     1     -42.162  55.979 -50.480  1.00  0.00    -0.248 OA
HETATM   28  H   UNL     1     -45.018  55.828 -51.606  1.00  0.00     0.160 HD
HETATM   29  H   UNL     1     -44.508  56.260 -50.039  1.00  0.00     0.160 HD
HETATM   30  H   UNL     1     -43.670  54.411 -52.775  1.00  0.00     0.165 HD
ENDBRANCH  19  24
ENDBRANCH   1  19
TORSDOF 7
ENDMDL
