MODEL 1
REMARK VINA RESULT:      -7.1      0.000      0.000
REMARK  11 active torsions:
REMARK  status: ('A' for Active; 'I' for Inactive)
REMARK    1  A    between atoms: C_4  and  C_5 
REMARK       I    between atoms: C_5  and  N_6 
REMARK    2  A    between atoms: N_6  and  C_7 
REMARK    3  A    between atoms: C_7  and  C_8 
REMARK    4  A    between atoms: C_8  and  C_9 
REMARK    5  A    between atoms: C_9  and  C_10 
REMARK    6  A    between atoms: C_10  and  C_11 
REMARK    7  A    between atoms: C_11  and  C_12 
REMARK       I    between atoms: C_12  and  N_13 
REMARK    8  A    between atoms: N_13  and  N_14 
REMARK    9  A    between atoms: C_15  and  C_16 
REMARK   10  A    between atoms: C_17  and  O_18 
REMARK   11  A    between atoms: C_20  and  O_21 
ROOT
HETATM    1  C   UNL     1     -42.411  54.822 -55.900  1.00  0.00     0.237 C 
HETATM    2  N   UNL     1     -41.064  54.530 -55.731  1.00  0.00    -0.247 N 
HETATM    3  O   UNL     1     -43.298  54.470 -55.128  1.00  0.00    -0.272 OA
HETATM    4  H   UNL     1     -40.372  54.842 -56.404  1.00  0.00     0.192 HD
ENDROOT
BRANCH   1   5
HETATM    5  C   UNL     1     -42.675  55.640 -57.152  1.00  0.00     0.105 C 
BRANCH   5   6
HETATM    6  C   UNL     1     -42.626  57.139 -56.864  1.00  0.00     0.009 C 
BRANCH   6   7
HETATM    7  C   UNL     1     -44.019  57.764 -56.827  1.00  0.00     0.002 C 
BRANCH   7   8
HETATM    8  C   UNL     1     -44.549  57.823 -55.392  1.00  0.00     0.020 C 
BRANCH   8   9
HETATM    9  C   UNL     1     -43.481  58.303 -54.414  1.00  0.00     0.123 C 
BRANCH   9  10
HETATM   10  N   UNL     1     -43.295  57.348 -53.338  1.00  0.00    -0.357 N 
HETATM   11  C   UNL     1     -42.041  56.869 -53.007  1.00  0.00     0.251 C 
HETATM   12  O   UNL     1     -41.029  57.177 -53.627  1.00  0.00    -0.268 OA
HETATM   13  H   UNL     1     -44.064  57.219 -52.700  1.00  0.00     0.162 HD
BRANCH  11  14
HETATM   14  C   UNL     1     -41.947  55.961 -51.823  1.00  0.00     0.032 A 
HETATM   15  C   UNL     1     -42.807  54.872 -51.625  1.00  0.00     0.017 A 
HETATM   16  C   UNL     1     -42.664  54.058 -50.497  1.00  0.00     0.001 A 
HETATM   17  C   UNL     1     -41.655  54.315 -49.570  1.00  0.00     0.000 A 
HETATM   18  C   UNL     1     -40.784  55.384 -49.768  1.00  0.00     0.001 A 
HETATM   19  C   UNL     1     -40.929  56.204 -50.889  1.00  0.00     0.017 A 
ENDBRANCH  11  14
ENDBRANCH   9  10
ENDBRANCH   8   9
ENDBRANCH   7   8
ENDBRANCH   6   7
ENDBRANCH   5   6
ENDBRANCH   1   5
BRANCH   2  20
HETATM   20  N   UNL     1     -40.684  53.802 -54.649  1.00  0.00    -0.184 NA
HETATM   21  C   UNL     1     -40.603  52.521 -54.807  1.00  0.00     0.153 C 
BRANCH  21  22
HETATM   22  C   UNL     1     -40.201  51.657 -53.678  1.00  0.00     0.016 A 
HETATM   23  C   UNL     1     -39.971  50.283 -53.838  1.00  0.00     0.080 A 
HETATM   24  C   UNL     1     -39.591  49.499 -52.751  1.00  0.00     0.074 A 
HETATM   25  C   UNL     1     -39.443  50.096 -51.502  1.00  0.00     0.068 A 
HETATM   26  C   UNL     1     -39.670  51.458 -51.327  1.00  0.00     0.037 A 
HETATM   27  C   UNL     1     -40.049  52.245 -52.418  1.00  0.00     0.018 A 
BRANCH  23  28
HETATM   28  O   UNL     1     -40.097  49.630 -55.035  1.00  0.00    -0.360 OA
HETATM   29  H   UNL     1     -39.197  49.481 -55.409  1.00  0.00     0.217 HD
ENDBRANCH  23  28
BRANCH  25  30
HETATM   30  O   UNL     1     -39.073  49.368 -50.409  1.00  0.00    -0.361 OA
HETATM   31  H   UNL     1     -38.284  48.848 -50.638  1.00  0.00     0.217 HD
ENDBRANCH  25  30
ENDBRANCH  21  22
ENDBRANCH   2  20
TORSDOF 11
ENDMDL
MODEL 2
REMARK VINA RESULT:      -6.8      2.833      7.021
REMARK  11 active torsions:
REMARK  status: ('A' for Active; 'I' for Inactive)
REMARK    1  A    between atoms: C_4  and  C_5 
REMARK       I    between atoms: C_5  and  N_6 
REMARK    2  A    between atoms: N_6  and  C_7 
REMARK    3  A    between atoms: C_7  and  C_8 
REMARK    4  A    between atoms: C_8  and  C_9 
REMARK    5  A    between atoms: C_9  and  C_10 
REMARK    6  A    between atoms: C_10  and  C_11 
REMARK    7  A    between atoms: C_11  and  C_12 
REMARK       I    between atoms: C_12  and  N_13 
REMARK    8  A    between atoms: N_13  and  N_14 
REMARK    9  A    between atoms: C_15  and  C_16 
REMARK   10  A    between atoms: C_17  and  O_18 
REMARK   11  A    between atoms: C_20  and  O_21 
ROOT
HETATM    1  C   UNL     1     -42.113  57.470 -54.826  1.00  0.00     0.237 C 
HETATM    2  N   UNL     1     -42.163  56.403 -55.714  1.00  0.00    -0.247 N 
HETATM    3  O   UNL     1     -42.952  58.364 -54.771  1.00  0.00    -0.272 OA
HETATM    4  H   UNL     1     -41.439  55.692 -55.720  1.00  0.00     0.192 HD
ENDROOT
BRANCH   1   5
HETATM    5  C   UNL     1     -40.902  57.408 -53.913  1.00  0.00     0.105 C 
BRANCH   5   6
HETATM    6  C   UNL     1     -41.071  58.314 -52.695  1.00  0.00     0.009 C 
BRANCH   6   7
HETATM    7  C   UNL     1     -41.452  57.529 -51.441  1.00  0.00     0.002 C 
BRANCH   7   8
HETATM    8  C   UNL     1     -42.962  57.590 -51.202  1.00  0.00     0.020 C 
BRANCH   8   9
HETATM    9  C   UNL     1     -43.648  56.277 -51.567  1.00  0.00     0.123 C 
BRANCH   9  10
HETATM   10  N   UNL     1     -42.675  55.216 -51.746  1.00  0.00    -0.357 N 
HETATM   11  C   UNL     1     -42.701  54.393 -52.855  1.00  0.00     0.251 C 
HETATM   12  O   UNL     1     -43.567  54.472 -53.720  1.00  0.00    -0.268 OA
HETATM   13  H   UNL     1     -41.855  55.241 -51.160  1.00  0.00     0.162 HD
BRANCH  11  14
HETATM   14  C   UNL     1     -41.598  53.392 -52.990  1.00  0.00     0.032 A 
HETATM   15  C   UNL     1     -41.313  52.725 -54.189  1.00  0.00     0.017 A 
HETATM   16  C   UNL     1     -40.264  51.802 -54.249  1.00  0.00     0.001 A 
HETATM   17  C   UNL     1     -39.486  51.550 -53.121  1.00  0.00     0.000 A 
HETATM   18  C   UNL     1     -39.750  52.221 -51.929  1.00  0.00     0.001 A 
HETATM   19  C   UNL     1     -40.801  53.138 -51.863  1.00  0.00     0.017 A 
ENDBRANCH  11  14
ENDBRANCH   9  10
ENDBRANCH   8   9
ENDBRANCH   7   8
ENDBRANCH   6   7
ENDBRANCH   5   6
ENDBRANCH   1   5
BRANCH   2  20
HETATM   20  N   UNL     1     -43.197  56.332 -56.592  1.00  0.00    -0.184 NA
HETATM   21  C   UNL     1     -42.895  56.330 -57.850  1.00  0.00     0.153 C 
BRANCH  21  22
HETATM   22  C   UNL     1     -43.962  56.259 -58.870  1.00  0.00     0.016 A 
HETATM   23  C   UNL     1     -45.029  57.169 -58.894  1.00  0.00     0.080 A 
HETATM   24  C   UNL     1     -46.016  57.073 -59.873  1.00  0.00     0.074 A 
HETATM   25  C   UNL     1     -45.932  56.063 -60.826  1.00  0.00     0.068 A 
HETATM   26  C   UNL     1     -44.880  55.151 -60.813  1.00  0.00     0.037 A 
HETATM   27  C   UNL     1     -43.889  55.247 -59.833  1.00  0.00     0.018 A 
BRANCH  23  28
HETATM   28  O   UNL     1     -45.175  58.186 -57.990  1.00  0.00    -0.360 OA
HETATM   29  H   UNL     1     -44.731  58.991 -58.346  1.00  0.00     0.217 HD
ENDBRANCH  23  28
BRANCH  25  30
HETATM   30  O   UNL     1     -46.875  55.931 -61.802  1.00  0.00    -0.361 OA
HETATM   31  H   UNL     1     -47.289  55.056 -61.715  1.00  0.00     0.217 HD
ENDBRANCH  25  30
ENDBRANCH  21  22
ENDBRANCH   2  20
TORSDOF 11
ENDMDL
MODEL 3
REMARK VINA RESULT:      -6.8      1.991      5.095
REMARK  11 active torsions:
REMARK  status: ('A' for Active; 'I' for Inactive)
REMARK    1  A    between atoms: C_4  and  C_5 
REMARK       I    between atoms: C_5  and  N_6 
REMARK    2  A    between atoms: N_6  and  C_7 
REMARK    3  A    between atoms: C_7  and  C_8 
REMARK    4  A    between atoms: C_8  and  C_9 
REMARK    5  A    between atoms: C_9  and  C_10 
REMARK    6  A    between atoms: C_10  and  C_11 
REMARK    7  A    between atoms: C_11  and  C_12 
REMARK       I    between atoms: C_12  and  N_13 
REMARK    8  A    between atoms: N_13  and  N_14 
REMARK    9  A    between atoms: C_15  and  C_16 
REMARK   10  A    between atoms: C_17  and  O_18 
REMARK   11  A    between atoms: C_20  and  O_21 
ROOT
HETATM    1  C   UNL     1     -41.526  56.919 -51.673  1.00  0.00     0.237 C 
HETATM    2  N   UNL     1     -41.617  55.973 -52.686  1.00  0.00    -0.247 N 
HETATM    3  O   UNL     1     -41.172  56.670 -50.524  1.00  0.00    -0.272 OA
HETATM    4  H   UNL     1     -41.920  56.233 -53.619  1.00  0.00     0.192 HD
ENDROOT
BRANCH   1   5
HETATM    5  C   UNL     1     -41.905  58.312 -52.143  1.00  0.00     0.105 C 
BRANCH   5   6
HETATM    6  C   UNL     1     -43.149  58.828 -51.423  1.00  0.00     0.009 C 
BRANCH   6   7
HETATM    7  C   UNL     1     -44.411  58.075 -51.842  1.00  0.00     0.002 C 
BRANCH   7   8
HETATM    8  C   UNL     1     -44.726  58.323 -53.318  1.00  0.00     0.020 C 
BRANCH   8   9
HETATM    9  C   UNL     1     -44.720  57.027 -54.124  1.00  0.00     0.123 C 
BRANCH   9  10
HETATM   10  N   UNL     1     -44.196  57.248 -55.459  1.00  0.00    -0.357 N 
HETATM   11  C   UNL     1     -43.346  56.340 -56.059  1.00  0.00     0.251 C 
HETATM   12  O   UNL     1     -42.944  55.330 -55.490  1.00  0.00    -0.268 OA
HETATM   13  H   UNL     1     -44.643  57.959 -56.016  1.00  0.00     0.162 HD
BRANCH  11  14
HETATM   14  C   UNL     1     -42.938  56.615 -57.471  1.00  0.00     0.032 A 
HETATM   15  C   UNL     1     -43.160  55.713 -58.521  1.00  0.00     0.017 A 
HETATM   16  C   UNL     1     -42.757  56.033 -59.821  1.00  0.00     0.001 A 
HETATM   17  C   UNL     1     -42.145  57.257 -60.085  1.00  0.00     0.000 A 
HETATM   18  C   UNL     1     -41.935  58.167 -59.051  1.00  0.00     0.001 A 
HETATM   19  C   UNL     1     -42.330  57.848 -57.750  1.00  0.00     0.017 A 
ENDBRANCH  11  14
ENDBRANCH   9  10
ENDBRANCH   8   9
ENDBRANCH   7   8
ENDBRANCH   6   7
ENDBRANCH   5   6
ENDBRANCH   1   5
BRANCH   2  20
HETATM   20  N   UNL     1     -41.305  54.682 -52.404  1.00  0.00    -0.184 NA
HETATM   21  C   UNL     1     -40.632  54.035 -53.299  1.00  0.00     0.153 C 
BRANCH  21  22
HETATM   22  C   UNL     1     -40.257  52.624 -53.071  1.00  0.00     0.016 A 
HETATM   23  C   UNL     1     -39.879  52.149 -51.807  1.00  0.00     0.080 A 
HETATM   24  C   UNL     1     -39.535  50.812 -51.629  1.00  0.00     0.074 A 
HETATM   25  C   UNL     1     -39.568  49.951 -52.721  1.00  0.00     0.068 A 
HETATM   26  C   UNL     1     -39.938  50.407 -53.983  1.00  0.00     0.037 A 
HETATM   27  C   UNL     1     -40.286  51.748 -54.162  1.00  0.00     0.018 A 
BRANCH  23  28
HETATM   28  O   UNL     1     -39.825  52.939 -50.690  1.00  0.00    -0.360 OA
HETATM   29  H   UNL     1     -40.571  53.582 -50.721  1.00  0.00     0.217 HD
ENDBRANCH  23  28
BRANCH  25  30
HETATM   30  O   UNL     1     -39.238  48.633 -52.594  1.00  0.00    -0.361 OA
HETATM   31  H   UNL     1     -38.397  48.480 -53.057  1.00  0.00     0.217 HD
ENDBRANCH  25  30
ENDBRANCH  21  22
ENDBRANCH   2  20
TORSDOF 11
ENDMDL
MODEL 4
REMARK VINA RESULT:      -6.8      2.937      7.419
REMARK  11 active torsions:
REMARK  status: ('A' for Active; 'I' for Inactive)
REMARK    1  A    between atoms: C_4  and  C_5 
REMARK       I    between atoms: C_5  and  N_6 
REMARK    2  A    between atoms: N_6  and  C_7 
REMARK    3  A    between atoms: C_7  and  C_8 
REMARK    4  A    between atoms: C_8  and  C_9 
REMARK    5  A    between atoms: C_9  and  C_10 
REMARK    6  A    between atoms: C_10  and  C_11 
REMARK    7  A    between atoms: C_11  and  C_12 
REMARK       I    between atoms: C_12  and  N_13 
REMARK    8  A    between atoms: N_13  and  N_14 
REMARK    9  A    between atoms: C_15  and  C_16 
REMARK   10  A    between atoms: C_17  and  O_18 
REMARK   11  A    between atoms: C_20  and  O_21 
ROOT
HETATM    1  C   UNL     1     -41.787  55.169 -55.175  1.00  0.00     0.237 C 
HETATM    2  N   UNL     1     -41.871  55.966 -56.309  1.00  0.00    -0.247 N 
HETATM    3  O   UNL     1     -42.555  54.245 -54.920  1.00  0.00    -0.272 OA
HETATM    4  H   UNL     1     -41.212  56.721 -56.469  1.00  0.00     0.192 HD
ENDROOT
BRANCH   1   5
HETATM    5  C   UNL     1     -40.626  55.557 -54.277  1.00  0.00     0.105 C 
BRANCH   5   6
HETATM    6  C   UNL     1     -40.898  56.869 -53.543  1.00  0.00     0.009 C 
BRANCH   6   7
HETATM    7  C   UNL     1     -41.938  56.704 -52.435  1.00  0.00     0.002 C 
BRANCH   7   8
HETATM    8  C   UNL     1     -41.273  56.261 -51.131  1.00  0.00     0.020 C 
BRANCH   8   9
HETATM    9  C   UNL     1     -41.902  54.984 -50.579  1.00  0.00     0.123 C 
BRANCH   9  10
HETATM   10  N   UNL     1     -41.540  53.836 -51.387  1.00  0.00    -0.357 N 
HETATM   11  C   UNL     1     -40.309  53.222 -51.257  1.00  0.00     0.251 C 
HETATM   12  O   UNL     1     -39.438  53.636 -50.499  1.00  0.00    -0.268 OA
HETATM   13  H   UNL     1     -42.284  53.365 -51.876  1.00  0.00     0.162 HD
BRANCH  11  14
HETATM   14  C   UNL     1     -40.070  51.989 -52.069  1.00  0.00     0.032 A 
HETATM   15  C   UNL     1     -40.133  51.972 -53.469  1.00  0.00     0.017 A 
HETATM   16  C   UNL     1     -39.895  50.785 -54.170  1.00  0.00     0.001 A 
HETATM   17  C   UNL     1     -39.581  49.615 -53.482  1.00  0.00     0.000 A 
HETATM   18  C   UNL     1     -39.500  49.626 -52.091  1.00  0.00     0.001 A 
HETATM   19  C   UNL     1     -39.743  50.807 -51.388  1.00  0.00     0.017 A 
ENDBRANCH  11  14
ENDBRANCH   9  10
ENDBRANCH   8   9
ENDBRANCH   7   8
ENDBRANCH   6   7
ENDBRANCH   5   6
ENDBRANCH   1   5
BRANCH   2  20
HETATM   20  N   UNL     1     -42.866  55.729 -57.202  1.00  0.00    -0.184 NA
HETATM   21  C   UNL     1     -43.120  56.666 -58.056  1.00  0.00     0.153 C 
BRANCH  21  22
HETATM   22  C   UNL     1     -44.191  56.489 -59.058  1.00  0.00     0.016 A 
HETATM   23  C   UNL     1     -45.360  57.263 -59.043  1.00  0.00     0.080 A 
HETATM   24  C   UNL     1     -46.348  57.069 -60.006  1.00  0.00     0.074 A 
HETATM   25  C   UNL     1     -46.162  56.096 -60.983  1.00  0.00     0.068 A 
HETATM   26  C   UNL     1     -45.008  55.319 -61.010  1.00  0.00     0.037 A 
HETATM   27  C   UNL     1     -44.016  55.513 -60.046  1.00  0.00     0.018 A 
BRANCH  23  28
HETATM   28  O   UNL     1     -45.609  58.236 -58.113  1.00  0.00    -0.360 OA
HETATM   29  H   UNL     1     -46.556  58.180 -57.844  1.00  0.00     0.217 HD
ENDBRANCH  23  28
BRANCH  25  30
HETATM   30  O   UNL     1     -47.102  55.871 -61.946  1.00  0.00    -0.361 OA
HETATM   31  H   UNL     1     -47.932  56.295 -61.671  1.00  0.00     0.217 HD
ENDBRANCH  25  30
ENDBRANCH  21  22
ENDBRANCH   2  20
TORSDOF 11
ENDMDL
MODEL 5
REMARK VINA RESULT:      -6.8      1.537      2.063
REMARK  11 active torsions:
REMARK  status: ('A' for Active; 'I' for Inactive)
REMARK    1  A    between atoms: C_4  and  C_5 
REMARK       I    between atoms: C_5  and  N_6 
REMARK    2  A    between atoms: N_6  and  C_7 
REMARK    3  A    between atoms: C_7  and  C_8 
REMARK    4  A    between atoms: C_8  and  C_9 
REMARK    5  A    between atoms: C_9  and  C_10 
REMARK    6  A    between atoms: C_10  and  C_11 
REMARK    7  A    between atoms: C_11  and  C_12 
REMARK       I    between atoms: C_12  and  N_13 
REMARK    8  A    between atoms: N_13  and  N_14 
REMARK    9  A    between atoms: C_15  and  C_16 
REMARK   10  A    between atoms: C_17  and  O_18 
REMARK   11  A    between atoms: C_20  and  O_21 
ROOT
HETATM    1  C   UNL     1     -42.378  55.648 -56.177  1.00  0.00     0.237 C 
HETATM    2  N   UNL     1     -41.163  55.421 -55.542  1.00  0.00    -0.247 N 
HETATM    3  O   UNL     1     -43.185  54.769 -56.461  1.00  0.00    -0.272 OA
HETATM    4  H   UNL     1     -40.529  56.185 -55.335  1.00  0.00     0.192 HD
ENDROOT
BRANCH   1   5
HETATM    5  C   UNL     1     -42.608  57.118 -56.478  1.00  0.00     0.105 C 
BRANCH   5   6
HETATM    6  C   UNL     1     -43.799  57.671 -55.696  1.00  0.00     0.009 C 
BRANCH   6   7
HETATM    7  C   UNL     1     -43.374  58.708 -54.657  1.00  0.00     0.002 C 
BRANCH   7   8
HETATM    8  C   UNL     1     -41.960  59.217 -54.946  1.00  0.00     0.020 C 
BRANCH   8   9
HETATM    9  C   UNL     1     -41.087  59.205 -53.694  1.00  0.00     0.123 C 
BRANCH   9  10
HETATM   10  N   UNL     1     -41.241  57.961 -52.965  1.00  0.00    -0.357 N 
HETATM   11  C   UNL     1     -41.705  57.941 -51.664  1.00  0.00     0.251 C 
HETATM   12  O   UNL     1     -41.960  58.962 -51.034  1.00  0.00    -0.268 OA
HETATM   13  H   UNL     1     -41.219  57.108 -53.502  1.00  0.00     0.162 HD
BRANCH  11  14
HETATM   14  C   UNL     1     -41.917  56.601 -51.034  1.00  0.00     0.032 A 
HETATM   15  C   UNL     1     -42.769  55.628 -51.575  1.00  0.00     0.017 A 
HETATM   16  C   UNL     1     -42.921  54.392 -50.939  1.00  0.00     0.001 A 
HETATM   17  C   UNL     1     -42.214  54.113 -49.771  1.00  0.00     0.000 A 
HETATM   18  C   UNL     1     -41.352  55.067 -49.234  1.00  0.00     0.001 A 
HETATM   19  C   UNL     1     -41.203  56.306 -49.863  1.00  0.00     0.017 A 
ENDBRANCH  11  14
ENDBRANCH   9  10
ENDBRANCH   8   9
ENDBRANCH   7   8
ENDBRANCH   6   7
ENDBRANCH   5   6
ENDBRANCH   1   5
BRANCH   2  20
HETATM   20  N   UNL     1     -40.826  54.147 -55.214  1.00  0.00    -0.184 NA
HETATM   21  C   UNL     1     -40.655  53.894 -53.957  1.00  0.00     0.153 C 
BRANCH  21  22
HETATM   22  C   UNL     1     -40.284  52.534 -53.516  1.00  0.00     0.016 A 
HETATM   23  C   UNL     1     -39.746  52.284 -52.246  1.00  0.00     0.080 A 
HETATM   24  C   UNL     1     -39.409  50.988 -51.863  1.00  0.00     0.074 A 
HETATM   25  C   UNL     1     -39.611  49.942 -52.758  1.00  0.00     0.068 A 
HETATM   26  C   UNL     1     -40.142  50.174 -54.024  1.00  0.00     0.037 A 
HETATM   27  C   UNL     1     -40.482  51.473 -54.407  1.00  0.00     0.018 A 
BRANCH  23  28
HETATM   28  O   UNL     1     -39.521  53.263 -51.315  1.00  0.00    -0.360 OA
HETATM   29  H   UNL     1     -39.853  52.951 -50.441  1.00  0.00     0.217 HD
ENDBRANCH  23  28
BRANCH  25  30
HETATM   30  O   UNL     1     -39.296  48.656 -52.428  1.00  0.00    -0.361 OA
HETATM   31  H   UNL     1     -39.108  48.620 -51.475  1.00  0.00     0.217 HD
ENDBRANCH  25  30
ENDBRANCH  21  22
ENDBRANCH   2  20
TORSDOF 11
ENDMDL
MODEL 6
REMARK VINA RESULT:      -6.5      2.794      6.649
REMARK  11 active torsions:
REMARK  status: ('A' for Active; 'I' for Inactive)
REMARK    1  A    between atoms: C_4  and  C_5 
REMARK       I    between atoms: C_5  and  N_6 
REMARK    2  A    between atoms: N_6  and  C_7 
REMARK    3  A    between atoms: C_7  and  C_8 
REMARK    4  A    between atoms: C_8  and  C_9 
REMARK    5  A    between atoms: C_9  and  C_10 
REMARK    6  A    between atoms: C_10  and  C_11 
REMARK    7  A    between atoms: C_11  and  C_12 
REMARK       I    between atoms: C_12  and  N_13 
REMARK    8  A    between atoms: N_13  and  N_14 
REMARK    9  A    between atoms: C_15  and  C_16 
REMARK   10  A    between atoms: C_17  and  O_18 
REMARK   11  A    between atoms: C_20  and  O_21 
ROOT
HETATM    1  C   UNL     1     -41.772  59.206 -54.476  1.00  0.00     0.237 C 
HETATM    2  N   UNL     1     -42.299  57.933 -54.656  1.00  0.00    -0.247 N 
HETATM    3  O   UNL     1     -41.452  59.958 -55.391  1.00  0.00    -0.272 OA
HETATM    4  H   UNL     1     -42.543  57.350 -53.863  1.00  0.00     0.192 HD
ENDROOT
BRANCH   1   5
HETATM    5  C   UNL     1     -41.642  59.577 -53.010  1.00  0.00     0.105 C 
BRANCH   5   6
HETATM    6  C   UNL     1     -40.638  58.678 -52.290  1.00  0.00     0.009 C 
BRANCH   6   7
HETATM    7  C   UNL     1     -41.292  57.857 -51.180  1.00  0.00     0.002 C 
BRANCH   7   8
HETATM    8  C   UNL     1     -42.804  58.088 -51.154  1.00  0.00     0.020 C 
BRANCH   8   9
HETATM    9  C   UNL     1     -43.579  56.804 -51.437  1.00  0.00     0.123 C 
BRANCH   9  10
HETATM   10  N   UNL     1     -42.679  55.676 -51.582  1.00  0.00    -0.357 N 
HETATM   11  C   UNL     1     -42.663  54.909 -52.731  1.00  0.00     0.251 C 
HETATM   12  O   UNL     1     -43.435  55.097 -53.665  1.00  0.00    -0.268 OA
HETATM   13  H   UNL     1     -41.918  55.608 -50.924  1.00  0.00     0.162 HD
BRANCH  11  14
HETATM   14  C   UNL     1     -41.633  53.828 -52.817  1.00  0.00     0.032 A 
HETATM   15  C   UNL     1     -40.848  53.431 -51.725  1.00  0.00     0.017 A 
HETATM   16  C   UNL     1     -39.904  52.410 -51.871  1.00  0.00     0.001 A 
HETATM   17  C   UNL     1     -39.747  51.770 -53.099  1.00  0.00     0.000 A 
HETATM   18  C   UNL     1     -40.534  52.146 -54.186  1.00  0.00     0.001 A 
HETATM   19  C   UNL     1     -41.473  53.170 -54.046  1.00  0.00     0.017 A 
ENDBRANCH  11  14
ENDBRANCH   9  10
ENDBRANCH   8   9
ENDBRANCH   7   8
ENDBRANCH   6   7
ENDBRANCH   5   6
ENDBRANCH   1   5
BRANCH   2  20
HETATM   20  N   UNL     1     -42.471  57.471 -55.922  1.00  0.00    -0.184 NA
HETATM   21  C   UNL     1     -43.684  57.432 -56.370  1.00  0.00     0.153 C 
BRANCH  21  22
HETATM   22  C   UNL     1     -43.956  56.938 -57.735  1.00  0.00     0.016 A 
HETATM   23  C   UNL     1     -43.229  55.882 -58.303  1.00  0.00     0.080 A 
HETATM   24  C   UNL     1     -43.515  55.441 -59.593  1.00  0.00     0.074 A 
HETATM   25  C   UNL     1     -44.532  56.061 -60.313  1.00  0.00     0.068 A 
HETATM   26  C   UNL     1     -45.261  57.112 -59.763  1.00  0.00     0.037 A 
HETATM   27  C   UNL     1     -44.975  57.554 -58.469  1.00  0.00     0.018 A 
BRANCH  23  28
HETATM   28  O   UNL     1     -42.217  55.227 -57.654  1.00  0.00    -0.360 OA
HETATM   29  H   UNL     1     -42.523  54.996 -56.746  1.00  0.00     0.217 HD
ENDBRANCH  23  28
BRANCH  25  30
HETATM   30  O   UNL     1     -44.847  55.663 -61.579  1.00  0.00    -0.361 OA
HETATM   31  H   UNL     1     -44.990  56.455 -62.124  1.00  0.00     0.217 HD
ENDBRANCH  25  30
ENDBRANCH  21  22
ENDBRANCH   2  20
TORSDOF 11
ENDMDL
MODEL 7
REMARK VINA RESULT:      -6.3      2.495      4.427
REMARK  11 active torsions:
REMARK  status: ('A' for Active; 'I' for Inactive)
REMARK    1  A    between atoms: C_4  and  C_5 
REMARK       I    between atoms: C_5  and  N_6 
REMARK    2  A    between atoms: N_6  and  C_7 
REMARK    3  A    between atoms: C_7  and  C_8 
REMARK    4  A    between atoms: C_8  and  C_9 
REMARK    5  A    between atoms: C_9  and  C_10 
REMARK    6  A    between atoms: C_10  and  C_11 
REMARK    7  A    between atoms: C_11  and  C_12 
REMARK       I    between atoms: C_12  and  N_13 
REMARK    8  A    between atoms: N_13  and  N_14 
REMARK    9  A    between atoms: C_15  and  C_16 
REMARK   10  A    between atoms: C_17  and  O_18 
REMARK   11  A    between atoms: C_20  and  O_21 
ROOT
HETATM    1  C   UNL     1     -42.058  60.029 -53.695  1.00  0.00     0.237 C 
HETATM    2  N   UNL     1     -42.386  59.004 -54.574  1.00  0.00    -0.247 N 
HETATM    3  O   UNL     1     -41.303  59.903 -52.735  1.00  0.00    -0.272 OA
HETATM    4  H   UNL     1     -43.020  59.162 -55.349  1.00  0.00     0.192 HD
ENDROOT
BRANCH   1   5
HETATM    5  C   UNL     1     -42.734  61.340 -54.054  1.00  0.00     0.105 C 
BRANCH   5   6
HETATM    6  C   UNL     1     -43.493  61.925 -52.865  1.00  0.00     0.009 C 
BRANCH   6   7
HETATM    7  C   UNL     1     -44.697  61.070 -52.473  1.00  0.00     0.002 C 
BRANCH   7   8
HETATM    8  C   UNL     1     -44.629  60.685 -50.994  1.00  0.00     0.020 C 
BRANCH   8   9
HETATM    9  C   UNL     1     -45.375  59.383 -50.713  1.00  0.00     0.123 C 
BRANCH   9  10
HETATM   10  N   UNL     1     -44.449  58.280 -50.542  1.00  0.00    -0.357 N 
HETATM   11  C   UNL     1     -44.178  57.400 -51.572  1.00  0.00     0.251 C 
HETATM   12  O   UNL     1     -44.736  57.463 -52.663  1.00  0.00    -0.268 OA
HETATM   13  H   UNL     1     -43.844  58.308 -49.736  1.00  0.00     0.162 HD
BRANCH  11  14
HETATM   14  C   UNL     1     -43.138  56.355 -51.323  1.00  0.00     0.032 A 
HETATM   15  C   UNL     1     -41.796  56.660 -51.055  1.00  0.00     0.017 A 
HETATM   16  C   UNL     1     -40.873  55.634 -50.826  1.00  0.00     0.001 A 
HETATM   17  C   UNL     1     -41.284  54.303 -50.849  1.00  0.00     0.000 A 
HETATM   18  C   UNL     1     -42.619  53.990 -51.097  1.00  0.00     0.001 A 
HETATM   19  C   UNL     1     -43.542  55.011 -51.333  1.00  0.00     0.017 A 
ENDBRANCH  11  14
ENDBRANCH   9  10
ENDBRANCH   8   9
ENDBRANCH   7   8
ENDBRANCH   6   7
ENDBRANCH   5   6
ENDBRANCH   1   5
BRANCH   2  20
HETATM   20  N   UNL     1     -41.850  57.773 -54.370  1.00  0.00    -0.184 NA
HETATM   21  C   UNL     1     -42.382  56.790 -55.020  1.00  0.00     0.153 C 
BRANCH  21  22
HETATM   22  C   UNL     1     -41.861  55.418 -54.851  1.00  0.00     0.016 A 
HETATM   23  C   UNL     1     -42.709  54.305 -54.768  1.00  0.00     0.080 A 
HETATM   24  C   UNL     1     -42.182  53.025 -54.611  1.00  0.00     0.074 A 
HETATM   25  C   UNL     1     -40.802  52.864 -54.536  1.00  0.00     0.068 A 
HETATM   26  C   UNL     1     -39.947  53.959 -54.614  1.00  0.00     0.037 A 
HETATM   27  C   UNL     1     -40.475  55.243 -54.773  1.00  0.00     0.018 A 
BRANCH  23  28
HETATM   28  O   UNL     1     -44.074  54.389 -54.835  1.00  0.00    -0.360 OA
HETATM   29  H   UNL     1     -44.316  55.227 -55.294  1.00  0.00     0.217 HD
ENDBRANCH  23  28
BRANCH  25  30
HETATM   30  O   UNL     1     -40.241  51.630 -54.382  1.00  0.00    -0.361 OA
HETATM   31  H   UNL     1     -39.279  51.714 -54.490  1.00  0.00     0.217 HD
ENDBRANCH  25  30
ENDBRANCH  21  22
ENDBRANCH   2  20
TORSDOF 11
ENDMDL
MODEL 8
REMARK VINA RESULT:      -6.2      2.200      4.991
REMARK  11 active torsions:
REMARK  status: ('A' for Active; 'I' for Inactive)
REMARK    1  A    between atoms: C_4  and  C_5 
REMARK       I    between atoms: C_5  and  N_6 
REMARK    2  A    between atoms: N_6  and  C_7 
REMARK    3  A    between atoms: C_7  and  C_8 
REMARK    4  A    between atoms: C_8  and  C_9 
REMARK    5  A    between atoms: C_9  and  C_10 
REMARK    6  A    between atoms: C_10  and  C_11 
REMARK    7  A    between atoms: C_11  and  C_12 
REMARK       I    between atoms: C_12  and  N_13 
REMARK    8  A    between atoms: N_13  and  N_14 
REMARK    9  A    between atoms: C_15  and  C_16 
REMARK   10  A    between atoms: C_17  and  O_18 
REMARK   11  A    between atoms: C_20  and  O_21 
ROOT
HETATM    1  C   UNL     1     -41.840  56.922 -52.801  1.00  0.00     0.237 C 
HETATM    2  N   UNL     1     -42.237  55.833 -53.567  1.00  0.00    -0.247 N 
HETATM    3  O   UNL     1     -41.165  56.840 -51.780  1.00  0.00    -0.272 OA
HETATM    4  H   UNL     1     -42.800  55.958 -54.402  1.00  0.00     0.192 HD
ENDROOT
BRANCH   1   5
HETATM    5  C   UNL     1     -42.328  58.242 -53.372  1.00  0.00     0.105 C 
BRANCH   5   6
HETATM    6  C   UNL     1     -43.804  58.478 -53.058  1.00  0.00     0.009 C 
BRANCH   6   7
HETATM    7  C   UNL     1     -44.429  59.524 -53.980  1.00  0.00     0.002 C 
BRANCH   7   8
HETATM    8  C   UNL     1     -43.556  60.778 -54.047  1.00  0.00     0.020 C 
BRANCH   8   9
HETATM    9  C   UNL     1     -43.171  61.125 -55.482  1.00  0.00     0.123 C 
BRANCH   9  10
HETATM   10  N   UNL     1     -43.299  59.968 -56.348  1.00  0.00    -0.357 N 
HETATM   11  C   UNL     1     -42.258  59.555 -57.158  1.00  0.00     0.251 C 
HETATM   12  O   UNL     1     -41.195  60.163 -57.234  1.00  0.00    -0.268 OA
HETATM   13  H   UNL     1     -44.075  59.349 -56.176  1.00  0.00     0.162 HD
BRANCH  11  14
HETATM   14  C   UNL     1     -42.459  58.297 -57.941  1.00  0.00     0.032 A 
HETATM   15  C   UNL     1     -42.294  58.227 -59.331  1.00  0.00     0.017 A 
HETATM   16  C   UNL     1     -42.494  57.018 -60.004  1.00  0.00     0.001 A 
HETATM   17  C   UNL     1     -42.844  55.870 -59.295  1.00  0.00     0.000 A 
HETATM   18  C   UNL     1     -42.993  55.926 -57.911  1.00  0.00     0.001 A 
HETATM   19  C   UNL     1     -42.802  57.134 -57.236  1.00  0.00     0.017 A 
ENDBRANCH  11  14
ENDBRANCH   9  10
ENDBRANCH   8   9
ENDBRANCH   7   8
ENDBRANCH   6   7
ENDBRANCH   5   6
ENDBRANCH   1   5
BRANCH   2  20
HETATM   20  N   UNL     1     -41.869  54.588 -53.171  1.00  0.00    -0.184 NA
HETATM   21  C   UNL     1     -40.910  54.025 -53.832  1.00  0.00     0.153 C 
BRANCH  21  22
HETATM   22  C   UNL     1     -40.453  52.668 -53.467  1.00  0.00     0.016 A 
HETATM   23  C   UNL     1     -39.920  52.377 -52.203  1.00  0.00     0.080 A 
HETATM   24  C   UNL     1     -39.501  51.085 -51.893  1.00  0.00     0.074 A 
HETATM   25  C   UNL     1     -39.617  50.085 -52.854  1.00  0.00     0.068 A 
HETATM   26  C   UNL     1     -40.142  50.359 -54.114  1.00  0.00     0.037 A 
HETATM   27  C   UNL     1     -40.563  51.654 -54.425  1.00  0.00     0.018 A 
BRANCH  23  28
HETATM   28  O   UNL     1     -39.777  53.309 -51.211  1.00  0.00    -0.360 OA
HETATM   29  H   UNL     1     -40.035  52.899 -50.352  1.00  0.00     0.217 HD
ENDBRANCH  23  28
BRANCH  25  30
HETATM   30  O   UNL     1     -39.220  48.806 -52.596  1.00  0.00    -0.361 OA
HETATM   31  H   UNL     1     -38.404  48.837 -52.068  1.00  0.00     0.217 HD
ENDBRANCH  25  30
ENDBRANCH  21  22
ENDBRANCH   2  20
TORSDOF 11
ENDMDL
MODEL 9
REMARK VINA RESULT:      -6.2      2.262      6.843
REMARK  11 active torsions:
REMARK  status: ('A' for Active; 'I' for Inactive)
REMARK    1  A    between atoms: C_4  and  C_5 
REMARK       I    between atoms: C_5  and  N_6 
REMARK    2  A    between atoms: N_6  and  C_7 
REMARK    3  A    between atoms: C_7  and  C_8 
REMARK    4  A    between atoms: C_8  and  C_9 
REMARK    5  A    between atoms: C_9  and  C_10 
REMARK    6  A    between atoms: C_10  and  C_11 
REMARK    7  A    between atoms: C_11  and  C_12 
REMARK       I    between atoms: C_12  and  N_13 
REMARK    8  A    between atoms: N_13  and  N_14 
REMARK    9  A    between atoms: C_15  and  C_16 
REMARK   10  A    between atoms: C_17  and  O_18 
REMARK   11  A    between atoms: C_20  and  O_21 
ROOT
HETATM    1  C   UNL     1     -41.414  59.181 -52.699  1.00  0.00     0.237 C 
HETATM    2  N   UNL     1     -42.346  58.341 -53.296  1.00  0.00    -0.247 N 
HETATM    3  O   UNL     1     -40.370  59.546 -53.231  1.00  0.00    -0.272 OA
HETATM    4  H   UNL     1     -43.192  58.067 -52.809  1.00  0.00     0.192 HD
ENDROOT
BRANCH   1   5
HETATM    5  C   UNL     1     -41.832  59.612 -51.305  1.00  0.00     0.105 C 
BRANCH   5   6
HETATM    6  C   UNL     1     -41.947  58.419 -50.358  1.00  0.00     0.009 C 
BRANCH   6   7
HETATM    7  C   UNL     1     -40.623  57.672 -50.209  1.00  0.00     0.002 C 
BRANCH   7   8
HETATM    8  C   UNL     1     -40.862  56.167 -50.072  1.00  0.00     0.020 C 
BRANCH   8   9
HETATM    9  C   UNL     1     -41.833  55.649 -51.129  1.00  0.00     0.123 C 
BRANCH   9  10
HETATM   10  N   UNL     1     -41.496  54.295 -51.524  1.00  0.00    -0.357 N 
HETATM   11  C   UNL     1     -40.774  54.037 -52.673  1.00  0.00     0.251 C 
HETATM   12  O   UNL     1     -40.425  54.920 -53.449  1.00  0.00    -0.268 OA
HETATM   13  H   UNL     1     -41.603  53.573 -50.828  1.00  0.00     0.162 HD
BRANCH  11  14
HETATM   14  C   UNL     1     -40.398  52.615 -52.941  1.00  0.00     0.032 A 
HETATM   15  C   UNL     1     -40.541  52.009 -54.197  1.00  0.00     0.017 A 
HETATM   16  C   UNL     1     -40.167  50.675 -54.381  1.00  0.00     0.001 A 
HETATM   17  C   UNL     1     -39.636  49.942 -53.322  1.00  0.00     0.000 A 
HETATM   18  C   UNL     1     -39.474  50.540 -52.074  1.00  0.00     0.001 A 
HETATM   19  C   UNL     1     -39.854  51.870 -51.884  1.00  0.00     0.017 A 
ENDBRANCH  11  14
ENDBRANCH   9  10
ENDBRANCH   8   9
ENDBRANCH   7   8
ENDBRANCH   6   7
ENDBRANCH   5   6
ENDBRANCH   1   5
BRANCH   2  20
HETATM   20  N   UNL     1     -42.098  57.878 -54.548  1.00  0.00    -0.184 NA
HETATM   21  C   UNL     1     -42.989  58.131 -55.451  1.00  0.00     0.153 C 
BRANCH  21  22
HETATM   22  C   UNL     1     -42.798  57.658 -56.838  1.00  0.00     0.016 A 
HETATM   23  C   UNL     1     -43.114  56.349 -57.228  1.00  0.00     0.080 A 
HETATM   24  C   UNL     1     -42.923  55.938 -58.545  1.00  0.00     0.074 A 
HETATM   25  C   UNL     1     -42.411  56.842 -59.470  1.00  0.00     0.068 A 
HETATM   26  C   UNL     1     -42.090  58.145 -59.098  1.00  0.00     0.037 A 
HETATM   27  C   UNL     1     -42.283  58.558 -57.778  1.00  0.00     0.018 A 
BRANCH  23  28
HETATM   28  O   UNL     1     -43.621  55.408 -56.372  1.00  0.00    -0.360 OA
HETATM   29  H   UNL     1     -44.450  55.760 -55.971  1.00  0.00     0.217 HD
ENDBRANCH  23  28
BRANCH  25  30
HETATM   30  O   UNL     1     -42.207  56.485 -60.771  1.00  0.00    -0.361 OA
HETATM   31  H   UNL     1     -42.425  55.543 -60.869  1.00  0.00     0.217 HD
ENDBRANCH  25  30
ENDBRANCH  21  22
ENDBRANCH   2  20
TORSDOF 11
ENDMDL
MODEL 10
REMARK VINA RESULT:      -6.2      2.929      4.202
REMARK  11 active torsions:
REMARK  status: ('A' for Active; 'I' for Inactive)
REMARK    1  A    between atoms: C_4  and  C_5 
REMARK       I    between atoms: C_5  and  N_6 
REMARK    2  A    between atoms: N_6  and  C_7 
REMARK    3  A    between atoms: C_7  and  C_8 
REMARK    4  A    between atoms: C_8  and  C_9 
REMARK    5  A    between atoms: C_9  and  C_10 
REMARK    6  A    between atoms: C_10  and  C_11 
REMARK    7  A    between atoms: C_11  and  C_12 
REMARK       I    between atoms: C_12  and  N_13 
REMARK    8  A    between atoms: N_13  and  N_14 
REMARK    9  A    between atoms: C_15  and  C_16 
REMARK   10  A    between atoms: C_17  and  O_18 
REMARK   11  A    between atoms: C_20  and  O_21 
ROOT
HETATM    1  C   UNL     1     -43.544  57.051 -58.334  1.00  0.00     0.237 C 
HETATM    2  N   UNL     1     -42.425  56.479 -57.742  1.00  0.00    -0.247 N 
HETATM    3  O   UNL     1     -44.571  57.348 -57.731  1.00  0.00    -0.272 OA
HETATM    4  H   UNL     1     -41.603  56.249 -58.289  1.00  0.00     0.192 HD
ENDROOT
BRANCH   1   5
HETATM    5  C   UNL     1     -43.358  57.282 -59.823  1.00  0.00     0.105 C 
BRANCH   5   6
HETATM    6  C   UNL     1     -42.137  58.154 -60.108  1.00  0.00     0.009 C 
BRANCH   6   7
HETATM    7  C   UNL     1     -42.385  59.622 -59.766  1.00  0.00     0.002 C 
BRANCH   7   8
HETATM    8  C   UNL     1     -41.624  60.019 -58.499  1.00  0.00     0.020 C 
BRANCH   8   9
HETATM    9  C   UNL     1     -42.569  60.444 -57.379  1.00  0.00     0.123 C 
BRANCH   9  10
HETATM   10  N   UNL     1     -42.168  59.863 -56.113  1.00  0.00    -0.357 N 
HETATM   11  C   UNL     1     -43.100  59.480 -55.167  1.00  0.00     0.251 C 
HETATM   12  O   UNL     1     -44.305  59.655 -55.315  1.00  0.00    -0.268 OA
HETATM   13  H   UNL     1     -41.216  59.540 -56.036  1.00  0.00     0.162 HD
BRANCH  11  14
HETATM   14  C   UNL     1     -42.587  58.805 -53.935  1.00  0.00     0.032 A 
HETATM   15  C   UNL     1     -41.248  58.424 -53.774  1.00  0.00     0.017 A 
HETATM   16  C   UNL     1     -40.831  57.799 -52.595  1.00  0.00     0.001 A 
HETATM   17  C   UNL     1     -41.741  57.564 -51.566  1.00  0.00     0.000 A 
HETATM   18  C   UNL     1     -43.071  57.955 -51.710  1.00  0.00     0.001 A 
HETATM   19  C   UNL     1     -43.492  58.573 -52.889  1.00  0.00     0.017 A 
ENDBRANCH  11  14
ENDBRANCH   9  10
ENDBRANCH   8   9
ENDBRANCH   7   8
ENDBRANCH   6   7
ENDBRANCH   5   6
ENDBRANCH   1   5
BRANCH   2  20
HETATM   20  N   UNL     1     -42.454  56.217 -56.410  1.00  0.00    -0.184 NA
HETATM   21  C   UNL     1     -42.065  55.041 -56.038  1.00  0.00     0.153 C 
BRANCH  21  22
HETATM   22  C   UNL     1     -42.071  54.675 -54.606  1.00  0.00     0.016 A 
HETATM   23  C   UNL     1     -43.244  54.688 -53.839  1.00  0.00     0.080 A 
HETATM   24  C   UNL     1     -43.212  54.334 -52.493  1.00  0.00     0.074 A 
HETATM   25  C   UNL     1     -42.000  53.969 -51.915  1.00  0.00     0.068 A 
HETATM   26  C   UNL     1     -40.826  53.953 -52.663  1.00  0.00     0.037 A 
HETATM   27  C   UNL     1     -40.858  54.307 -54.014  1.00  0.00     0.018 A 
BRANCH  23  28
HETATM   28  O   UNL     1     -44.470  55.035 -54.341  1.00  0.00    -0.360 OA
HETATM   29  H   UNL     1     -44.608  56.000 -54.195  1.00  0.00     0.217 HD
ENDBRANCH  23  28
BRANCH  25  30
HETATM   30  O   UNL     1     -41.920  53.615 -50.600  1.00  0.00    -0.361 OA
HETATM   31  H   UNL     1     -40.982  53.530 -50.361  1.00  0.00     0.217 HD
ENDBRANCH  25  30
ENDBRANCH  21  22
ENDBRANCH   2  20
TORSDOF 11
ENDMDL
