MODEL 1
REMARK VINA RESULT:      -8.1      0.000      0.000
REMARK  5 active torsions:
REMARK  status: ('A' for Active; 'I' for Inactive)
REMARK    1  A    between atoms: O_2  and  C_3 
REMARK    2  A    between atoms: C_5  and  C_6 
REMARK    3  A    between atoms: C_12  and  C_13 
REMARK    4  A    between atoms: C_15  and  O_16 
REMARK    5  A    between atoms: C_18  and  O_19 
ROOT
HETATM    1  C   UNL     1     -41.514  55.222 -51.760  1.00  0.00     0.098 A 
HETATM    2  N   UNL     1     -40.965  55.866 -50.697  1.00  0.00    -0.173 NA
HETATM    3  N   UNL     1     -41.826  56.864 -50.389  1.00  0.00    -0.272 N 
HETATM    4  H   UNL     1     -41.622  57.471 -49.600  1.00  0.00     0.189 HD
HETATM    5  C   UNL     1     -42.874  56.880 -51.224  1.00  0.00     0.128 A 
HETATM    6  C   UNL     1     -42.707  55.873 -52.131  1.00  0.00     0.034 A 
HETATM    7  C   UNL     1     -43.852  55.857 -53.068  1.00  0.00     0.156 A 
HETATM    8  N   UNL     1     -44.643  56.976 -52.524  1.00  0.00    -0.343 N 
HETATM    9  C   UNL     1     -44.064  57.610 -51.431  1.00  0.00     0.271 A 
HETATM   10  O   UNL     1     -44.489  58.573 -50.822  1.00  0.00    -0.266 OA
HETATM   11  H   UNL     1     -45.504  57.312 -52.931  1.00  0.00     0.163 HD
ENDROOT
BRANCH   7  12
HETATM   12  C   UNL     1     -43.358  56.136 -54.467  1.00  0.00    -0.028 A 
HETATM   13  C   UNL     1     -42.994  57.432 -54.899  1.00  0.00     0.049 A 
HETATM   14  C   UNL     1     -42.579  57.663 -56.211  1.00  0.00     0.101 A 
HETATM   15  C   UNL     1     -42.530  56.585 -57.101  1.00  0.00     0.099 A 
HETATM   16  C   UNL     1     -42.881  55.302 -56.707  1.00  0.00     0.040 A 
HETATM   17  C   UNL     1     -43.298  55.080 -55.395  1.00  0.00     0.012 A 
BRANCH  14  18
HETATM   18  O   UNL     1     -42.212  58.871 -56.746  1.00  0.00    -0.353 OA
HETATM   19  C   UNL     1     -42.166  59.977 -55.851  1.00  0.00     0.210 C 
ENDBRANCH  14  18
BRANCH  15  20
HETATM   20  O   UNL     1     -42.136  56.778 -58.397  1.00  0.00    -0.358 OA
HETATM   21  H   UNL     1     -41.968  57.738 -58.467  1.00  0.00     0.218 HD
ENDBRANCH  15  20
ENDBRANCH   7  12
BRANCH   1  22
HETATM   22  C   UNL     1     -40.870  54.035 -52.332  1.00  0.00    -0.002 A 
HETATM   23  C   UNL     1     -40.501  52.965 -51.496  1.00  0.00     0.050 A 
HETATM   24  C   UNL     1     -39.904  51.815 -52.019  1.00  0.00     0.069 A 
HETATM   25  C   UNL     1     -39.657  51.737 -53.390  1.00  0.00     0.037 A 
HETATM   26  C   UNL     1     -40.022  52.784 -54.234  1.00  0.00     0.004 A 
HETATM   27  C   UNL     1     -40.634  53.923 -53.709  1.00  0.00     0.014 A 
BRANCH  24  28
HETATM   28  O   UNL     1     -39.517  50.713 -51.306  1.00  0.00    -0.356 OA
HETATM   29  C   UNL     1     -39.543  49.467 -51.993  1.00  0.00     0.210 C 
ENDBRANCH  24  28
ENDBRANCH   1  22
TORSDOF 5
ENDMDL
MODEL 2
REMARK VINA RESULT:      -7.8      1.171      2.020
REMARK  5 active torsions:
REMARK  status: ('A' for Active; 'I' for Inactive)
REMARK    1  A    between atoms: O_2  and  C_3 
REMARK    2  A    between atoms: C_5  and  C_6 
REMARK    3  A    between atoms: C_12  and  C_13 
REMARK    4  A    between atoms: C_15  and  O_16 
REMARK    5  A    between atoms: C_18  and  O_19 
ROOT
HETATM    1  C   UNL     1     -42.082  55.473 -52.215  1.00  0.00     0.098 A 
HETATM    2  N   UNL     1     -41.733  55.656 -50.916  1.00  0.00    -0.173 NA
HETATM    3  N   UNL     1     -42.667  56.490 -50.400  1.00  0.00    -0.272 N 
HETATM    4  H   UNL     1     -42.613  56.751 -49.420  1.00  0.00     0.189 HD
HETATM    5  C   UNL     1     -43.568  56.846 -51.326  1.00  0.00     0.128 A 
HETATM    6  C   UNL     1     -43.222  56.247 -52.504  1.00  0.00     0.034 A 
HETATM    7  C   UNL     1     -44.201  56.615 -53.552  1.00  0.00     0.156 A 
HETATM    8  N   UNL     1     -45.108  57.470 -52.764  1.00  0.00    -0.343 N 
HETATM    9  C   UNL     1     -44.735  57.633 -51.436  1.00  0.00     0.271 A 
HETATM   10  O   UNL     1     -45.285  58.308 -50.587  1.00  0.00    -0.266 OA
HETATM   11  H   UNL     1     -45.904  57.957 -53.149  1.00  0.00     0.163 HD
ENDROOT
BRANCH   7  12
HETATM   12  C   UNL     1     -43.500  57.383 -54.645  1.00  0.00    -0.028 A 
HETATM   13  C   UNL     1     -43.482  56.945 -55.989  1.00  0.00     0.049 A 
HETATM   14  C   UNL     1     -42.790  57.658 -56.969  1.00  0.00     0.101 A 
HETATM   15  C   UNL     1     -42.110  58.822 -56.599  1.00  0.00     0.099 A 
HETATM   16  C   UNL     1     -42.109  59.278 -55.289  1.00  0.00     0.040 A 
HETATM   17  C   UNL     1     -42.800  58.558 -54.314  1.00  0.00     0.012 A 
BRANCH  14  18
HETATM   18  O   UNL     1     -42.693  57.329 -58.296  1.00  0.00    -0.353 OA
HETATM   19  C   UNL     1     -43.234  56.070 -58.683  1.00  0.00     0.210 C 
ENDBRANCH  14  18
BRANCH  15  20
HETATM   20  O   UNL     1     -41.415  59.542 -57.533  1.00  0.00    -0.358 OA
HETATM   21  H   UNL     1     -40.794  60.090 -57.016  1.00  0.00     0.218 HD
ENDBRANCH  15  20
ENDBRANCH   7  12
BRANCH   1  22
HETATM   22  C   UNL     1     -41.312  54.569 -53.078  1.00  0.00    -0.002 A 
HETATM   23  C   UNL     1     -40.959  53.287 -52.614  1.00  0.00     0.050 A 
HETATM   24  C   UNL     1     -40.244  52.401 -53.423  1.00  0.00     0.069 A 
HETATM   25  C   UNL     1     -39.862  52.802 -54.704  1.00  0.00     0.037 A 
HETATM   26  C   UNL     1     -40.209  54.063 -55.183  1.00  0.00     0.004 A 
HETATM   27  C   UNL     1     -40.939  54.939 -54.377  1.00  0.00     0.014 A 
BRANCH  24  28
HETATM   28  O   UNL     1     -39.859  51.133 -53.083  1.00  0.00    -0.356 OA
HETATM   29  C   UNL     1     -39.837  50.170 -54.132  1.00  0.00     0.210 C 
ENDBRANCH  24  28
ENDBRANCH   1  22
TORSDOF 5
ENDMDL
MODEL 3
REMARK VINA RESULT:      -7.8      2.383      4.674
REMARK  5 active torsions:
REMARK  status: ('A' for Active; 'I' for Inactive)
REMARK    1  A    between atoms: O_2  and  C_3 
REMARK    2  A    between atoms: C_5  and  C_6 
REMARK    3  A    between atoms: C_12  and  C_13 
REMARK    4  A    between atoms: C_15  and  O_16 
REMARK    5  A    between atoms: C_18  and  O_19 
ROOT
HETATM    1  C   UNL     1     -42.034  54.015 -54.772  1.00  0.00     0.098 A 
HETATM    2  N   UNL     1     -43.048  53.333 -55.366  1.00  0.00    -0.173 NA
HETATM    3  N   UNL     1     -43.626  54.210 -56.221  1.00  0.00    -0.272 N 
HETATM    4  H   UNL     1     -44.406  53.903 -56.794  1.00  0.00     0.189 HD
HETATM    5  C   UNL     1     -43.030  55.408 -56.169  1.00  0.00     0.128 A 
HETATM    6  C   UNL     1     -42.029  55.342 -55.240  1.00  0.00     0.034 A 
HETATM    7  C   UNL     1     -41.343  56.651 -55.160  1.00  0.00     0.156 A 
HETATM    8  N   UNL     1     -42.105  57.402 -56.175  1.00  0.00    -0.343 N 
HETATM    9  C   UNL     1     -43.128  56.679 -56.776  1.00  0.00     0.271 A 
HETATM   10  O   UNL     1     -43.920  57.069 -57.612  1.00  0.00    -0.266 OA
HETATM   11  H   UNL     1     -41.956  58.377 -56.389  1.00  0.00     0.163 HD
ENDROOT
BRANCH   7  12
HETATM   12  C   UNL     1     -41.520  57.225 -53.775  1.00  0.00    -0.028 A 
HETATM   13  C   UNL     1     -42.689  57.014 -53.010  1.00  0.00     0.049 A 
HETATM   14  C   UNL     1     -42.837  57.592 -51.748  1.00  0.00     0.101 A 
HETATM   15  C   UNL     1     -41.804  58.392 -51.249  1.00  0.00     0.099 A 
HETATM   16  C   UNL     1     -40.645  58.618 -51.977  1.00  0.00     0.040 A 
HETATM   17  C   UNL     1     -40.505  58.039 -53.238  1.00  0.00     0.012 A 
BRANCH  14  18
HETATM   18  O   UNL     1     -43.923  57.468 -50.921  1.00  0.00    -0.353 OA
HETATM   19  C   UNL     1     -45.115  58.131 -51.328  1.00  0.00     0.210 C 
ENDBRANCH  14  18
BRANCH  15  20
HETATM   20  O   UNL     1     -41.921  58.980 -50.020  1.00  0.00    -0.358 OA
HETATM   21  H   UNL     1     -42.069  58.240 -49.400  1.00  0.00     0.218 HD
ENDBRANCH  15  20
ENDBRANCH   7  12
BRANCH   1  22
HETATM   22  C   UNL     1     -41.145  53.349 -53.813  1.00  0.00    -0.002 A 
HETATM   23  C   UNL     1     -41.005  53.865 -52.511  1.00  0.00     0.050 A 
HETATM   24  C   UNL     1     -40.179  53.239 -51.573  1.00  0.00     0.069 A 
HETATM   25  C   UNL     1     -39.473  52.094 -51.943  1.00  0.00     0.037 A 
HETATM   26  C   UNL     1     -39.605  51.565 -53.224  1.00  0.00     0.004 A 
HETATM   27  C   UNL     1     -40.444  52.184 -54.152  1.00  0.00     0.014 A 
BRANCH  24  28
HETATM   28  O   UNL     1     -39.978  53.643 -50.282  1.00  0.00    -0.356 OA
HETATM   29  C   UNL     1     -40.441  54.945 -49.941  1.00  0.00     0.210 C 
ENDBRANCH  24  28
ENDBRANCH   1  22
TORSDOF 5
ENDMDL
MODEL 4
REMARK VINA RESULT:      -7.7      2.342      4.555
REMARK  5 active torsions:
REMARK  status: ('A' for Active; 'I' for Inactive)
REMARK    1  A    between atoms: O_2  and  C_3 
REMARK    2  A    between atoms: C_5  and  C_6 
REMARK    3  A    between atoms: C_12  and  C_13 
REMARK    4  A    between atoms: C_15  and  O_16 
REMARK    5  A    between atoms: C_18  and  O_19 
ROOT
HETATM    1  C   UNL     1     -42.144  54.466 -54.833  1.00  0.00     0.098 A 
HETATM    2  N   UNL     1     -43.117  53.803 -55.510  1.00  0.00    -0.173 NA
HETATM    3  N   UNL     1     -43.610  54.691 -56.406  1.00  0.00    -0.272 N 
HETATM    4  H   UNL     1     -44.346  54.398 -57.041  1.00  0.00     0.189 HD
HETATM    5  C   UNL     1     -42.999  55.879 -56.302  1.00  0.00     0.128 A 
HETATM    6  C   UNL     1     -42.078  55.794 -55.297  1.00  0.00     0.034 A 
HETATM    7  C   UNL     1     -41.379  57.091 -55.157  1.00  0.00     0.156 A 
HETATM    8  N   UNL     1     -42.044  57.856 -56.228  1.00  0.00    -0.343 N 
HETATM    9  C   UNL     1     -43.027  57.152 -56.911  1.00  0.00     0.271 A 
HETATM   10  O   UNL     1     -43.742  57.557 -57.808  1.00  0.00    -0.266 OA
HETATM   11  H   UNL     1     -41.861  58.830 -56.426  1.00  0.00     0.163 HD
ENDROOT
BRANCH   7  12
HETATM   12  C   UNL     1     -41.657  57.666 -53.790  1.00  0.00    -0.028 A 
HETATM   13  C   UNL     1     -42.951  57.682 -53.222  1.00  0.00     0.049 A 
HETATM   14  C   UNL     1     -43.182  58.257 -51.972  1.00  0.00     0.101 A 
HETATM   15  C   UNL     1     -42.105  58.824 -51.283  1.00  0.00     0.099 A 
HETATM   16  C   UNL     1     -40.824  58.824 -51.814  1.00  0.00     0.040 A 
HETATM   17  C   UNL     1     -40.601  58.250 -53.065  1.00  0.00     0.012 A 
BRANCH  14  18
HETATM   18  O   UNL     1     -44.389  58.340 -51.326  1.00  0.00    -0.353 OA
HETATM   19  C   UNL     1     -45.324  59.283 -51.840  1.00  0.00     0.210 C 
ENDBRANCH  14  18
BRANCH  15  20
HETATM   20  O   UNL     1     -42.297  59.403 -50.059  1.00  0.00    -0.358 OA
HETATM   21  H   UNL     1     -43.082  58.953 -49.689  1.00  0.00     0.218 HD
ENDBRANCH  15  20
ENDBRANCH   7  12
BRANCH   1  22
HETATM   22  C   UNL     1     -41.346  53.785 -53.808  1.00  0.00    -0.002 A 
HETATM   23  C   UNL     1     -40.720  52.559 -54.106  1.00  0.00     0.050 A 
HETATM   24  C   UNL     1     -39.938  51.900 -53.154  1.00  0.00     0.069 A 
HETATM   25  C   UNL     1     -39.791  52.460 -51.885  1.00  0.00     0.037 A 
HETATM   26  C   UNL     1     -40.397  53.676 -51.574  1.00  0.00     0.004 A 
HETATM   27  C   UNL     1     -41.163  54.339 -52.535  1.00  0.00     0.014 A 
BRANCH  24  28
HETATM   28  O   UNL     1     -39.276  50.717 -53.336  1.00  0.00    -0.356 OA
HETATM   29  C   UNL     1     -39.746  49.878 -54.386  1.00  0.00     0.210 C 
ENDBRANCH  24  28
ENDBRANCH   1  22
TORSDOF 5
ENDMDL
MODEL 5
REMARK VINA RESULT:      -7.3      2.175      2.714
REMARK  5 active torsions:
REMARK  status: ('A' for Active; 'I' for Inactive)
REMARK    1  A    between atoms: O_2  and  C_3 
REMARK    2  A    between atoms: C_5  and  C_6 
REMARK    3  A    between atoms: C_12  and  C_13 
REMARK    4  A    between atoms: C_15  and  O_16 
REMARK    5  A    between atoms: C_18  and  O_19 
ROOT
HETATM    1  C   UNL     1     -41.407  57.128 -53.730  1.00  0.00     0.098 A 
HETATM    2  N   UNL     1     -40.702  57.983 -52.945  1.00  0.00    -0.173 NA
HETATM    3  N   UNL     1     -41.360  59.164 -53.008  1.00  0.00    -0.272 N 
HETATM    4  H   UNL     1     -41.014  59.954 -52.472  1.00  0.00     0.189 HD
HETATM    5  C   UNL     1     -42.430  59.085 -53.810  1.00  0.00     0.128 A 
HETATM    6  C   UNL     1     -42.486  57.817 -54.316  1.00  0.00     0.034 A 
HETATM    7  C   UNL     1     -43.663  57.692 -55.205  1.00  0.00     0.156 A 
HETATM    8  N   UNL     1     -44.219  59.053 -55.086  1.00  0.00    -0.343 N 
HETATM    9  C   UNL     1     -43.484  59.904 -54.270  1.00  0.00     0.271 A 
HETATM   10  O   UNL     1     -43.704  61.076 -54.031  1.00  0.00    -0.266 OA
HETATM   11  H   UNL     1     -45.028  59.381 -55.594  1.00  0.00     0.163 HD
ENDROOT
BRANCH   7  12
HETATM   12  C   UNL     1     -43.199  57.387 -56.609  1.00  0.00    -0.028 A 
HETATM   13  C   UNL     1     -42.680  58.381 -57.469  1.00  0.00     0.049 A 
HETATM   14  C   UNL     1     -42.297  58.073 -58.776  1.00  0.00     0.101 A 
HETATM   15  C   UNL     1     -42.437  56.757 -59.225  1.00  0.00     0.099 A 
HETATM   16  C   UNL     1     -42.944  55.760 -58.405  1.00  0.00     0.040 A 
HETATM   17  C   UNL     1     -43.327  56.075 -57.102  1.00  0.00     0.012 A 
BRANCH  14  18
HETATM   18  O   UNL     1     -41.791  58.949 -59.701  1.00  0.00    -0.353 OA
HETATM   19  C   UNL     1     -42.000  60.335 -59.450  1.00  0.00     0.210 C 
ENDBRANCH  14  18
BRANCH  15  20
HETATM   20  O   UNL     1     -42.079  56.422 -60.503  1.00  0.00    -0.358 OA
HETATM   21  H   UNL     1     -41.236  56.890 -60.657  1.00  0.00     0.218 HD
ENDBRANCH  15  20
ENDBRANCH   7  12
BRANCH   1  22
HETATM   22  C   UNL     1     -41.008  55.721 -53.854  1.00  0.00    -0.002 A 
HETATM   23  C   UNL     1     -41.019  54.886 -52.720  1.00  0.00     0.050 A 
HETATM   24  C   UNL     1     -40.663  53.538 -52.816  1.00  0.00     0.069 A 
HETATM   25  C   UNL     1     -40.276  53.020 -54.052  1.00  0.00     0.037 A 
HETATM   26  C   UNL     1     -40.267  53.830 -55.186  1.00  0.00     0.004 A 
HETATM   27  C   UNL     1     -40.640  55.171 -55.089  1.00  0.00     0.014 A 
BRANCH  24  28
HETATM   28  O   UNL     1     -40.649  52.635 -51.788  1.00  0.00    -0.356 OA
HETATM   29  C   UNL     1     -39.582  51.693 -51.781  1.00  0.00     0.210 C 
ENDBRANCH  24  28
ENDBRANCH   1  22
TORSDOF 5
ENDMDL
MODEL 6
REMARK VINA RESULT:      -7.3      2.703      6.457
REMARK  5 active torsions:
REMARK  status: ('A' for Active; 'I' for Inactive)
REMARK    1  A    between atoms: O_2  and  C_3 
REMARK    2  A    between atoms: C_5  and  C_6 
REMARK    3  A    between atoms: C_12  and  C_13 
REMARK    4  A    between atoms: C_15  and  O_16 
REMARK    5  A    between atoms: C_18  and  O_19 
ROOT
HETATM    1  C   UNL     1     -41.922  58.818 -54.208  1.00  0.00     0.098 A 
HETATM    2  N   UNL     1     -41.528  59.589 -55.254  1.00  0.00    -0.173 NA
HETATM    3  N   UNL     1     -42.072  59.019 -56.355  1.00  0.00    -0.272 N 
HETATM    4  H   UNL     1     -41.921  59.448 -57.263  1.00  0.00     0.189 HD
HETATM    5  C   UNL     1     -42.770  57.919 -56.040  1.00  0.00     0.128 A 
HETATM    6  C   UNL     1     -42.680  57.734 -54.690  1.00  0.00     0.034 A 
HETATM    7  C   UNL     1     -43.447  56.527 -54.305  1.00  0.00     0.156 A 
HETATM    8  N   UNL     1     -43.957  56.117 -55.626  1.00  0.00    -0.343 N 
HETATM    9  C   UNL     1     -43.548  56.928 -56.677  1.00  0.00     0.271 A 
HETATM   10  O   UNL     1     -43.798  56.793 -57.860  1.00  0.00    -0.266 OA
HETATM   11  H   UNL     1     -44.508  55.286 -55.788  1.00  0.00     0.163 HD
ENDROOT
BRANCH   7  12
HETATM   12  C   UNL     1     -42.507  55.504 -53.715  1.00  0.00    -0.028 A 
HETATM   13  C   UNL     1     -42.049  55.576 -52.380  1.00  0.00     0.049 A 
HETATM   14  C   UNL     1     -41.148  54.635 -51.877  1.00  0.00     0.101 A 
HETATM   15  C   UNL     1     -40.701  53.614 -52.721  1.00  0.00     0.099 A 
HETATM   16  C   UNL     1     -41.132  53.517 -54.035  1.00  0.00     0.040 A 
HETATM   17  C   UNL     1     -42.030  54.462 -54.532  1.00  0.00     0.012 A 
BRANCH  14  18
HETATM   18  O   UNL     1     -40.628  54.606 -50.608  1.00  0.00    -0.353 OA
HETATM   19  C   UNL     1     -41.563  54.612 -49.535  1.00  0.00     0.210 C 
ENDBRANCH  14  18
BRANCH  15  20
HETATM   20  O   UNL     1     -39.812  52.680 -52.262  1.00  0.00    -0.358 OA
HETATM   21  H   UNL     1     -39.663  52.082 -53.020  1.00  0.00     0.218 HD
ENDBRANCH  15  20
ENDBRANCH   7  12
BRANCH   1  22
HETATM   22  C   UNL     1     -41.557  59.176 -52.833  1.00  0.00    -0.002 A 
HETATM   23  C   UNL     1     -42.475  59.868 -52.020  1.00  0.00     0.050 A 
HETATM   24  C   UNL     1     -42.159  60.203 -50.701  1.00  0.00     0.069 A 
HETATM   25  C   UNL     1     -40.907  59.859 -50.190  1.00  0.00     0.037 A 
HETATM   26  C   UNL     1     -39.988  59.167 -50.977  1.00  0.00     0.004 A 
HETATM   27  C   UNL     1     -40.316  58.820 -52.289  1.00  0.00     0.014 A 
BRANCH  24  28
HETATM   28  O   UNL     1     -42.974  60.860 -49.821  1.00  0.00    -0.356 OA
HETATM   29  C   UNL     1     -44.372  60.804 -50.082  1.00  0.00     0.210 C 
ENDBRANCH  24  28
ENDBRANCH   1  22
TORSDOF 5
ENDMDL
MODEL 7
REMARK VINA RESULT:      -7.3      2.559      6.490
REMARK  5 active torsions:
REMARK  status: ('A' for Active; 'I' for Inactive)
REMARK    1  A    between atoms: O_2  and  C_3 
REMARK    2  A    between atoms: C_5  and  C_6 
REMARK    3  A    between atoms: C_12  and  C_13 
REMARK    4  A    between atoms: C_15  and  O_16 
REMARK    5  A    between atoms: C_18  and  O_19 
ROOT
HETATM    1  C   UNL     1     -42.417  58.217 -54.375  1.00  0.00     0.098 A 
HETATM    2  N   UNL     1     -42.007  58.950 -55.442  1.00  0.00    -0.173 NA
HETATM    3  N   UNL     1     -42.186  58.154 -56.523  1.00  0.00    -0.272 N 
HETATM    4  H   UNL     1     -41.959  58.512 -57.446  1.00  0.00     0.189 HD
HETATM    5  C   UNL     1     -42.668  56.955 -56.172  1.00  0.00     0.128 A 
HETATM    6  C   UNL     1     -42.806  56.936 -54.813  1.00  0.00     0.034 A 
HETATM    7  C   UNL     1     -43.344  55.624 -54.388  1.00  0.00     0.156 A 
HETATM    8  N   UNL     1     -43.482  54.968 -55.702  1.00  0.00    -0.343 N 
HETATM    9  C   UNL     1     -43.067  55.743 -56.777  1.00  0.00     0.271 A 
HETATM   10  O   UNL     1     -43.044  55.431 -57.952  1.00  0.00    -0.266 OA
HETATM   11  H   UNL     1     -43.791  54.015 -55.830  1.00  0.00     0.163 HD
ENDROOT
BRANCH   7  12
HETATM   12  C   UNL     1     -42.333  54.929 -53.508  1.00  0.00    -0.028 A 
HETATM   13  C   UNL     1     -41.514  53.878 -53.979  1.00  0.00     0.049 A 
HETATM   14  C   UNL     1     -40.617  53.229 -53.128  1.00  0.00     0.101 A 
HETATM   15  C   UNL     1     -40.542  53.637 -51.793  1.00  0.00     0.099 A 
HETATM   16  C   UNL     1     -41.333  54.665 -51.302  1.00  0.00     0.040 A 
HETATM   17  C   UNL     1     -42.229  55.306 -52.157  1.00  0.00     0.012 A 
BRANCH  14  18
HETATM   18  O   UNL     1     -39.781  52.196 -53.465  1.00  0.00    -0.353 OA
HETATM   19  C   UNL     1     -40.330  51.174 -54.291  1.00  0.00     0.210 C 
ENDBRANCH  14  18
BRANCH  15  20
HETATM   20  O   UNL     1     -39.680  53.017 -50.930  1.00  0.00    -0.358 OA
HETATM   21  H   UNL     1     -40.252  52.481 -50.347  1.00  0.00     0.218 HD
ENDBRANCH  15  20
ENDBRANCH   7  12
BRANCH   1  22
HETATM   22  C   UNL     1     -42.416  58.792 -53.025  1.00  0.00    -0.002 A 
HETATM   23  C   UNL     1     -41.196  59.031 -52.364  1.00  0.00     0.050 A 
HETATM   24  C   UNL     1     -41.168  59.596 -51.087  1.00  0.00     0.069 A 
HETATM   25  C   UNL     1     -42.370  59.914 -50.454  1.00  0.00     0.037 A 
HETATM   26  C   UNL     1     -43.587  59.693 -51.096  1.00  0.00     0.004 A 
HETATM   27  C   UNL     1     -43.609  59.143 -52.379  1.00  0.00     0.014 A 
BRANCH  24  28
HETATM   28  O   UNL     1     -40.046  59.882 -50.358  1.00  0.00    -0.356 OA
HETATM   29  C   UNL     1     -38.815  59.365 -50.853  1.00  0.00     0.210 C 
ENDBRANCH  24  28
ENDBRANCH   1  22
TORSDOF 5
ENDMDL
MODEL 8
REMARK VINA RESULT:      -7.2      2.423      6.718
REMARK  5 active torsions:
REMARK  status: ('A' for Active; 'I' for Inactive)
REMARK    1  A    between atoms: O_2  and  C_3 
REMARK    2  A    between atoms: C_5  and  C_6 
REMARK    3  A    between atoms: C_12  and  C_13 
REMARK    4  A    between atoms: C_15  and  O_16 
REMARK    5  A    between atoms: C_18  and  O_19 
ROOT
HETATM    1  C   UNL     1     -42.105  58.458 -54.121  1.00  0.00     0.098 A 
HETATM    2  N   UNL     1     -41.706  59.147 -55.221  1.00  0.00    -0.173 NA
HETATM    3  N   UNL     1     -42.019  58.361 -56.279  1.00  0.00    -0.272 N 
HETATM    4  H   UNL     1     -41.824  58.693 -57.218  1.00  0.00     0.189 HD
HETATM    5  C   UNL     1     -42.575  57.209 -55.882  1.00  0.00     0.128 A 
HETATM    6  C   UNL     1     -42.625  57.211 -54.517  1.00  0.00     0.034 A 
HETATM    7  C   UNL     1     -43.241  55.951 -54.043  1.00  0.00     0.156 A 
HETATM    8  N   UNL     1     -43.518  55.300 -55.338  1.00  0.00    -0.343 N 
HETATM    9  C   UNL     1     -43.110  56.031 -56.447  1.00  0.00     0.271 A 
HETATM   10  O   UNL     1     -43.190  55.709 -57.617  1.00  0.00    -0.266 OA
HETATM   11  H   UNL     1     -43.912  54.375 -55.434  1.00  0.00     0.163 HD
ENDROOT
BRANCH   7  12
HETATM   12  C   UNL     1     -42.237  55.180 -53.221  1.00  0.00    -0.028 A 
HETATM   13  C   UNL     1     -41.526  54.073 -53.736  1.00  0.00     0.049 A 
HETATM   14  C   UNL     1     -40.633  53.357 -52.936  1.00  0.00     0.101 A 
HETATM   15  C   UNL     1     -40.452  53.754 -51.608  1.00  0.00     0.099 A 
HETATM   16  C   UNL     1     -41.136  54.837 -51.075  1.00  0.00     0.040 A 
HETATM   17  C   UNL     1     -42.028  55.545 -51.879  1.00  0.00     0.012 A 
BRANCH  14  18
HETATM   18  O   UNL     1     -39.897  52.265 -53.319  1.00  0.00    -0.353 OA
HETATM   19  C   UNL     1     -40.454  51.445 -54.340  1.00  0.00     0.210 C 
ENDBRANCH  14  18
BRANCH  15  20
HETATM   20  O   UNL     1     -39.591  53.069 -50.795  1.00  0.00    -0.358 OA
HETATM   21  H   UNL     1     -39.109  53.761 -50.301  1.00  0.00     0.218 HD
ENDBRANCH  15  20
ENDBRANCH   7  12
BRANCH   1  22
HETATM   22  C   UNL     1     -41.970  59.040 -52.781  1.00  0.00    -0.002 A 
HETATM   23  C   UNL     1     -43.089  59.615 -52.150  1.00  0.00     0.050 A 
HETATM   24  C   UNL     1     -42.991  60.159 -50.866  1.00  0.00     0.069 A 
HETATM   25  C   UNL     1     -41.760  60.144 -50.210  1.00  0.00     0.037 A 
HETATM   26  C   UNL     1     -40.643  59.573 -50.816  1.00  0.00     0.004 A 
HETATM   27  C   UNL     1     -40.750  59.015 -52.092  1.00  0.00     0.014 A 
BRANCH  24  28
HETATM   28  O   UNL     1     -44.011  60.729 -50.154  1.00  0.00    -0.356 OA
HETATM   29  C   UNL     1     -45.278  60.085 -50.228  1.00  0.00     0.210 C 
ENDBRANCH  24  28
ENDBRANCH   1  22
TORSDOF 5
ENDMDL
MODEL 9
REMARK VINA RESULT:      -7.2     14.910     17.607
REMARK  5 active torsions:
REMARK  status: ('A' for Active; 'I' for Inactive)
REMARK    1  A    between atoms: O_2  and  C_3 
REMARK    2  A    between atoms: C_5  and  C_6 
REMARK    3  A    between atoms: C_12  and  C_13 
REMARK    4  A    between atoms: C_15  and  O_16 
REMARK    5  A    between atoms: C_18  and  O_19 
ROOT
HETATM    1  C   UNL     1     -37.521  41.097 -56.630  1.00  0.00     0.098 A 
HETATM    2  N   UNL     1     -38.598  40.991 -55.809  1.00  0.00    -0.173 NA
HETATM    3  N   UNL     1     -38.180  41.432 -54.599  1.00  0.00    -0.272 N 
HETATM    4  H   UNL     1     -38.839  41.459 -53.826  1.00  0.00     0.189 HD
HETATM    5  C   UNL     1     -36.890  41.789 -54.628  1.00  0.00     0.128 A 
HETATM    6  C   UNL     1     -36.419  41.568 -55.891  1.00  0.00     0.034 A 
HETATM    7  C   UNL     1     -34.992  41.958 -55.962  1.00  0.00     0.156 A 
HETATM    8  N   UNL     1     -34.786  42.423 -54.578  1.00  0.00    -0.343 N 
HETATM    9  C   UNL     1     -35.905  42.313 -53.762  1.00  0.00     0.271 A 
HETATM   10  O   UNL     1     -35.994  42.593 -52.582  1.00  0.00    -0.266 OA
HETATM   11  H   UNL     1     -33.900  42.741 -54.213  1.00  0.00     0.163 HD
ENDROOT
BRANCH   7  12
HETATM   12  C   UNL     1     -34.156  40.743 -56.284  1.00  0.00    -0.028 A 
HETATM   13  C   UNL     1     -34.593  39.737 -57.175  1.00  0.00     0.049 A 
HETATM   14  C   UNL     1     -33.812  38.606 -57.422  1.00  0.00     0.101 A 
HETATM   15  C   UNL     1     -32.583  38.482 -56.767  1.00  0.00     0.099 A 
HETATM   16  C   UNL     1     -32.128  39.452 -55.888  1.00  0.00     0.040 A 
HETATM   17  C   UNL     1     -32.914  40.578 -55.644  1.00  0.00     0.012 A 
BRANCH  14  18
HETATM   18  O   UNL     1     -34.132  37.564 -58.254  1.00  0.00    -0.353 OA
HETATM   19  C   UNL     1     -34.917  37.879 -59.399  1.00  0.00     0.210 C 
ENDBRANCH  14  18
BRANCH  15  20
HETATM   20  O   UNL     1     -31.797  37.382 -56.980  1.00  0.00    -0.358 OA
HETATM   21  H   UNL     1     -30.915  37.742 -57.196  1.00  0.00     0.218 HD
ENDBRANCH  15  20
ENDBRANCH   7  12
BRANCH   1  22
HETATM   22  C   UNL     1     -37.626  40.754 -58.052  1.00  0.00    -0.002 A 
HETATM   23  C   UNL     1     -38.167  39.512 -58.437  1.00  0.00     0.050 A 
HETATM   24  C   UNL     1     -38.296  39.170 -59.785  1.00  0.00     0.069 A 
HETATM   25  C   UNL     1     -37.867  40.069 -60.762  1.00  0.00     0.037 A 
HETATM   26  C   UNL     1     -37.336  41.305 -60.401  1.00  0.00     0.004 A 
HETATM   27  C   UNL     1     -37.225  41.650 -59.052  1.00  0.00     0.014 A 
BRANCH  24  28
HETATM   28  O   UNL     1     -38.817  38.003 -60.273  1.00  0.00    -0.356 OA
HETATM   29  C   UNL     1     -39.043  37.942 -61.677  1.00  0.00     0.210 C 
ENDBRANCH  24  28
ENDBRANCH   1  22
TORSDOF 5
ENDMDL
MODEL 10
REMARK VINA RESULT:      -7.1      2.241      5.025
REMARK  5 active torsions:
REMARK  status: ('A' for Active; 'I' for Inactive)
REMARK    1  A    between atoms: O_2  and  C_3 
REMARK    2  A    between atoms: C_5  and  C_6 
REMARK    3  A    between atoms: C_12  and  C_13 
REMARK    4  A    between atoms: C_15  and  O_16 
REMARK    5  A    between atoms: C_18  and  O_19 
ROOT
HETATM    1  C   UNL     1     -41.661  55.509 -51.829  1.00  0.00     0.098 A 
HETATM    2  N   UNL     1     -41.979  54.527 -50.946  1.00  0.00    -0.173 NA
HETATM    3  N   UNL     1     -41.571  53.372 -51.522  1.00  0.00    -0.272 N 
HETATM    4  H   UNL     1     -41.694  52.497 -51.020  1.00  0.00     0.189 HD
HETATM    5  C   UNL     1     -41.033  53.591 -52.728  1.00  0.00     0.128 A 
HETATM    6  C   UNL     1     -41.093  54.932 -52.981  1.00  0.00     0.034 A 
HETATM    7  C   UNL     1     -40.499  55.213 -54.308  1.00  0.00     0.156 A 
HETATM    8  N   UNL     1     -40.110  53.847 -54.706  1.00  0.00    -0.343 N 
HETATM    9  C   UNL     1     -40.437  52.864 -53.782  1.00  0.00     0.271 A 
HETATM   10  O   UNL     1     -40.259  51.665 -53.880  1.00  0.00    -0.266 OA
HETATM   11  H   UNL     1     -39.697  53.614 -55.598  1.00  0.00     0.163 HD
ENDROOT
BRANCH   7  12
HETATM   12  C   UNL     1     -41.556  55.792 -55.216  1.00  0.00    -0.028 A 
HETATM   13  C   UNL     1     -41.969  57.142 -55.136  1.00  0.00     0.049 A 
HETATM   14  C   UNL     1     -42.977  57.636 -55.965  1.00  0.00     0.101 A 
HETATM   15  C   UNL     1     -43.579  56.770 -56.882  1.00  0.00     0.099 A 
HETATM   16  C   UNL     1     -43.195  55.441 -56.985  1.00  0.00     0.040 A 
HETATM   17  C   UNL     1     -42.189  54.953 -56.152  1.00  0.00     0.012 A 
BRANCH  14  18
HETATM   18  O   UNL     1     -43.467  58.917 -55.972  1.00  0.00    -0.353 OA
HETATM   19  C   UNL     1     -42.854  59.840 -55.078  1.00  0.00     0.210 C 
ENDBRANCH  14  18
BRANCH  15  20
HETATM   20  O   UNL     1     -44.576  57.220 -57.704  1.00  0.00    -0.358 OA
HETATM   21  H   UNL     1     -44.886  58.049 -57.291  1.00  0.00     0.218 HD
ENDBRANCH  15  20
ENDBRANCH   7  12
BRANCH   1  22
HETATM   22  C   UNL     1     -41.912  56.918 -51.506  1.00  0.00    -0.002 A 
HETATM   23  C   UNL     1     -40.865  57.724 -51.019  1.00  0.00     0.050 A 
HETATM   24  C   UNL     1     -41.074  59.074 -50.722  1.00  0.00     0.069 A 
HETATM   25  C   UNL     1     -42.344  59.623 -50.899  1.00  0.00     0.037 A 
HETATM   26  C   UNL     1     -43.390  58.843 -51.387  1.00  0.00     0.004 A 
HETATM   27  C   UNL     1     -43.172  57.500 -51.698  1.00  0.00     0.014 A 
BRANCH  24  28
HETATM   28  O   UNL     1     -40.131  59.950 -50.258  1.00  0.00    -0.356 OA
HETATM   29  C   UNL     1     -38.770  59.603 -50.486  1.00  0.00     0.210 C 
ENDBRANCH  24  28
ENDBRANCH   1  22
TORSDOF 5
ENDMDL
