MODEL 1
REMARK VINA RESULT:      -9.7      0.000      0.000
REMARK  6 active torsions:
REMARK  status: ('A' for Active; 'I' for Inactive)
REMARK    1  A    between atoms: C_5  and  C_6 
REMARK    2  A    between atoms: C_6  and  N_7 
REMARK       I    between atoms: N_7  and  C_8 
REMARK    3  A    between atoms: C_8  and  C_9 
REMARK    4  A    between atoms: C_10  and  N_11 
REMARK    5  A    between atoms: N_12  and  C_13 
REMARK    6  A    between atoms: C_16  and  N_17 
REMARK       I    between atoms: N_17  and  C_18 
ROOT
HETATM    1  C   UNL     1     -41.726  56.942 -51.137  1.00  0.00     0.103 C 
HETATM    2  C   UNL     1     -41.673  58.302 -50.836  1.00  0.00     0.105 C 
HETATM    3  N   UNL     1     -42.619  58.900 -51.675  1.00  0.00    -0.284 N 
HETATM    4  C   UNL     1     -42.557  58.174 -52.859  1.00  0.00     0.166 A 
HETATM    5  C   UNL     1     -42.114  56.898 -52.502  1.00  0.00     0.123 A 
HETATM    6  N   UNL     1     -42.128  55.879 -53.398  1.00  0.00    -0.242 NA
HETATM    7  C   UNL     1     -42.499  56.221 -54.640  1.00  0.00     0.086 A 
HETATM    8  C   UNL     1     -42.896  57.539 -54.989  1.00  0.00     0.088 A 
HETATM    9  N   UNL     1     -42.964  58.540 -54.096  1.00  0.00    -0.226 NA
HETATM   10  C   UNL     1     -42.485  55.243 -55.626  1.00  0.00     0.034 A 
HETATM   11  C   UNL     1     -42.832  55.529 -56.947  1.00  0.00     0.002 A 
HETATM   12  C   UNL     1     -43.203  56.822 -57.291  1.00  0.00     0.002 A 
HETATM   13  C   UNL     1     -43.236  57.811 -56.308  1.00  0.00     0.034 A 
ENDROOT
BRANCH   1  14
HETATM   14  C   UNL     1     -41.452  55.845 -50.218  1.00  0.00     0.257 C 
HETATM   15  N   UNL     1     -41.411  54.618 -50.855  1.00  0.00    -0.352 N 
HETATM   16  H   UNL     1     -41.575  54.642 -51.854  1.00  0.00     0.163 HD
HETATM   17  O   UNL     1     -41.152  55.991 -49.040  1.00  0.00    -0.267 OA
BRANCH  15  18
HETATM   18  C   UNL     1     -40.578  53.544 -50.373  1.00  0.00     0.161 C 
BRANCH  18  19
HETATM   19  C   UNL     1     -40.268  52.570 -51.488  1.00  0.00    -0.041 A 
HETATM   20  C   UNL     1     -40.443  52.933 -52.834  1.00  0.00     0.009 A 
HETATM   21  C   UNL     1     -40.210  52.015 -53.861  1.00  0.00     0.007 A 
HETATM   22  C   UNL     1     -39.777  50.719 -53.564  1.00  0.00    -0.062 A 
HETATM   23  C   UNL     1     -39.521  49.739 -54.671  1.00  0.00     0.048 C 
HETATM   24  C   UNL     1     -39.546  50.371 -52.229  1.00  0.00     0.007 A 
HETATM   25  C   UNL     1     -39.794  51.285 -51.200  1.00  0.00     0.009 A 
ENDBRANCH  18  19
ENDBRANCH  15  18
ENDBRANCH   1  14
BRANCH   2  26
HETATM   26  N   UNL     1     -41.004  58.962 -49.846  1.00  0.00    -0.287 NA
HETATM   27  H   UNL     1     -40.564  58.397 -49.115  1.00  0.00     0.125 HD
HETATM   28  H   UNL     1     -40.365  59.711 -50.123  1.00  0.00     0.125 HD
ENDBRANCH   2  26
BRANCH   3  29
HETATM   29  C   UNL     1     -43.634  59.838 -51.276  1.00  0.00     0.042 A 
HETATM   30  C   UNL     1     -43.311  61.194 -51.108  1.00  0.00     0.032 A 
HETATM   31  C   UNL     1     -44.177  62.070 -50.446  1.00  0.00     0.032 A 
HETATM   32  C   UNL     1     -45.379  61.613 -49.920  1.00  0.00     0.034 A 
HETATM   33  C   UNL     1     -45.749  60.285 -50.161  1.00  0.00     0.032 A 
HETATM   34  C   UNL     1     -44.888  59.404 -50.833  1.00  0.00     0.032 A 
BRANCH  32  35
HETATM   35  N   UNL     1     -46.207  62.388 -49.083  1.00  0.00    -0.328 N 
HETATM   36  C   UNL     1     -46.104  62.528 -47.709  1.00  0.00     0.218 C 
HETATM   37  C   UNL     1     -47.309  63.210 -47.113  1.00  0.00     0.117 C 
HETATM   38  O   UNL     1     -45.174  62.166 -46.994  1.00  0.00    -0.274 OA
HETATM   39  H   UNL     1     -47.014  62.810 -49.526  1.00  0.00     0.169 HD
ENDBRANCH  32  35
ENDBRANCH   3  29
TORSDOF 6
ENDMDL
MODEL 2
REMARK VINA RESULT:      -9.4      1.635      1.966
REMARK  6 active torsions:
REMARK  status: ('A' for Active; 'I' for Inactive)
REMARK    1  A    between atoms: C_5  and  C_6 
REMARK    2  A    between atoms: C_6  and  N_7 
REMARK       I    between atoms: N_7  and  C_8 
REMARK    3  A    between atoms: C_8  and  C_9 
REMARK    4  A    between atoms: C_10  and  N_11 
REMARK    5  A    between atoms: N_12  and  C_13 
REMARK    6  A    between atoms: C_16  and  N_17 
REMARK       I    between atoms: N_17  and  C_18 
ROOT
HETATM    1  C   UNL     1     -41.745  56.949 -51.168  1.00  0.00     0.103 C 
HETATM    2  C   UNL     1     -41.744  58.310 -50.868  1.00  0.00     0.105 C 
HETATM    3  N   UNL     1     -42.706  58.872 -51.714  1.00  0.00    -0.284 N 
HETATM    4  C   UNL     1     -42.608  58.148 -52.897  1.00  0.00     0.166 A 
HETATM    5  C   UNL     1     -42.121  56.889 -52.535  1.00  0.00     0.123 A 
HETATM    6  N   UNL     1     -42.091  55.869 -53.430  1.00  0.00    -0.242 NA
HETATM    7  C   UNL     1     -42.466  56.196 -54.675  1.00  0.00     0.086 A 
HETATM    8  C   UNL     1     -42.909  57.498 -55.028  1.00  0.00     0.088 A 
HETATM    9  N   UNL     1     -43.019  58.497 -54.137  1.00  0.00    -0.226 NA
HETATM   10  C   UNL     1     -42.409  55.218 -55.659  1.00  0.00     0.034 A 
HETATM   11  C   UNL     1     -42.757  55.490 -56.984  1.00  0.00     0.002 A 
HETATM   12  C   UNL     1     -43.173  56.768 -57.332  1.00  0.00     0.002 A 
HETATM   13  C   UNL     1     -43.248  57.756 -56.351  1.00  0.00     0.034 A 
ENDROOT
BRANCH   1  14
HETATM   14  C   UNL     1     -41.437  55.863 -50.245  1.00  0.00     0.257 C 
HETATM   15  N   UNL     1     -41.419  54.629 -50.868  1.00  0.00    -0.352 N 
HETATM   16  H   UNL     1     -41.619  54.640 -51.860  1.00  0.00     0.163 HD
HETATM   17  O   UNL     1     -41.095  56.024 -49.081  1.00  0.00    -0.267 OA
BRANCH  15  18
HETATM   18  C   UNL     1     -40.569  53.560 -50.402  1.00  0.00     0.161 C 
BRANCH  18  19
HETATM   19  C   UNL     1     -40.270  52.592 -51.525  1.00  0.00    -0.041 A 
HETATM   20  C   UNL     1     -40.454  52.962 -52.868  1.00  0.00     0.009 A 
HETATM   21  C   UNL     1     -40.232  52.048 -53.901  1.00  0.00     0.007 A 
HETATM   22  C   UNL     1     -39.801  50.750 -53.613  1.00  0.00    -0.062 A 
HETATM   23  C   UNL     1     -39.556  49.775 -54.727  1.00  0.00     0.048 C 
HETATM   24  C   UNL     1     -39.561  50.394 -52.282  1.00  0.00     0.007 A 
HETATM   25  C   UNL     1     -39.799  51.304 -51.246  1.00  0.00     0.009 A 
ENDBRANCH  18  19
ENDBRANCH  15  18
ENDBRANCH   1  14
BRANCH   2  26
HETATM   26  N   UNL     1     -41.107  58.995 -49.875  1.00  0.00    -0.287 NA
HETATM   27  H   UNL     1     -41.184  60.016 -49.880  1.00  0.00     0.125 HD
HETATM   28  H   UNL     1     -41.218  58.655 -48.917  1.00  0.00     0.125 HD
ENDBRANCH   2  26
BRANCH   3  29
HETATM   29  C   UNL     1     -43.757  59.773 -51.324  1.00  0.00     0.042 A 
HETATM   30  C   UNL     1     -45.044  59.280 -51.060  1.00  0.00     0.032 A 
HETATM   31  C   UNL     1     -46.146  60.136 -50.971  1.00  0.00     0.032 A 
HETATM   32  C   UNL     1     -45.995  61.504 -51.162  1.00  0.00     0.034 A 
HETATM   33  C   UNL     1     -44.704  62.013 -51.337  1.00  0.00     0.032 A 
HETATM   34  C   UNL     1     -43.594  61.160 -51.417  1.00  0.00     0.032 A 
BRANCH  32  35
HETATM   35  N   UNL     1     -47.079  62.398 -51.275  1.00  0.00    -0.328 N 
HETATM   36  C   UNL     1     -47.758  62.741 -52.432  1.00  0.00     0.218 C 
HETATM   37  C   UNL     1     -48.676  63.918 -52.228  1.00  0.00     0.117 C 
HETATM   38  O   UNL     1     -47.676  62.197 -53.529  1.00  0.00    -0.274 OA
HETATM   39  H   UNL     1     -47.322  62.909 -50.435  1.00  0.00     0.169 HD
ENDBRANCH  32  35
ENDBRANCH   3  29
TORSDOF 6
ENDMDL
MODEL 3
REMARK VINA RESULT:      -9.1      2.536      6.552
REMARK  6 active torsions:
REMARK  status: ('A' for Active; 'I' for Inactive)
REMARK    1  A    between atoms: C_5  and  C_6 
REMARK    2  A    between atoms: C_6  and  N_7 
REMARK       I    between atoms: N_7  and  C_8 
REMARK    3  A    between atoms: C_8  and  C_9 
REMARK    4  A    between atoms: C_10  and  N_11 
REMARK    5  A    between atoms: N_12  and  C_13 
REMARK    6  A    between atoms: C_16  and  N_17 
REMARK       I    between atoms: N_17  and  C_18 
ROOT
HETATM    1  C   UNL     1     -42.414  56.584 -51.615  1.00  0.00     0.103 C 
HETATM    2  C   UNL     1     -43.212  55.969 -52.577  1.00  0.00     0.105 C 
HETATM    3  N   UNL     1     -43.338  56.910 -53.604  1.00  0.00    -0.284 N 
HETATM    4  C   UNL     1     -43.387  58.140 -52.957  1.00  0.00     0.166 A 
HETATM    5  C   UNL     1     -42.693  57.968 -51.757  1.00  0.00     0.123 A 
HETATM    6  N   UNL     1     -42.385  59.031 -50.971  1.00  0.00    -0.242 NA
HETATM    7  C   UNL     1     -42.876  60.206 -51.388  1.00  0.00     0.086 A 
HETATM    8  C   UNL     1     -43.624  60.345 -52.588  1.00  0.00     0.088 A 
HETATM    9  N   UNL     1     -43.869  59.317 -53.416  1.00  0.00    -0.226 NA
HETATM   10  C   UNL     1     -42.650  61.332 -50.607  1.00  0.00     0.034 A 
HETATM   11  C   UNL     1     -43.153  62.584 -50.962  1.00  0.00     0.002 A 
HETATM   12  C   UNL     1     -43.898  62.716 -52.126  1.00  0.00     0.002 A 
HETATM   13  C   UNL     1     -44.122  61.597 -52.928  1.00  0.00     0.034 A 
ENDROOT
BRANCH   1  14
HETATM   14  C   UNL     1     -41.500  55.915 -50.698  1.00  0.00     0.257 C 
HETATM   15  N   UNL     1     -41.572  54.537 -50.789  1.00  0.00    -0.352 N 
HETATM   16  H   UNL     1     -42.236  54.181 -51.466  1.00  0.00     0.163 HD
HETATM   17  O   UNL     1     -40.660  56.492 -50.018  1.00  0.00    -0.267 OA
BRANCH  15  18
HETATM   18  C   UNL     1     -40.427  53.701 -50.522  1.00  0.00     0.161 C 
BRANCH  18  19
HETATM   19  C   UNL     1     -40.216  52.713 -51.647  1.00  0.00    -0.041 A 
HETATM   20  C   UNL     1     -40.500  53.062 -52.978  1.00  0.00     0.009 A 
HETATM   21  C   UNL     1     -40.359  52.130 -54.010  1.00  0.00     0.007 A 
HETATM   22  C   UNL     1     -39.910  50.835 -53.734  1.00  0.00    -0.062 A 
HETATM   23  C   UNL     1     -39.752  49.840 -54.846  1.00  0.00     0.048 C 
HETATM   24  C   UNL     1     -39.570  50.501 -52.419  1.00  0.00     0.007 A 
HETATM   25  C   UNL     1     -39.727  51.429 -51.384  1.00  0.00     0.009 A 
ENDBRANCH  18  19
ENDBRANCH  15  18
ENDBRANCH   1  14
BRANCH   2  26
HETATM   26  N   UNL     1     -43.666  54.685 -52.659  1.00  0.00    -0.287 NA
HETATM   27  H   UNL     1     -44.199  54.424 -53.494  1.00  0.00     0.125 HD
HETATM   28  H   UNL     1     -43.011  53.933 -52.430  1.00  0.00     0.125 HD
ENDBRANCH   2  26
BRANCH   3  29
HETATM   29  C   UNL     1     -43.139  56.668 -55.007  1.00  0.00     0.042 A 
HETATM   30  C   UNL     1     -43.475  57.655 -55.947  1.00  0.00     0.032 A 
HETATM   31  C   UNL     1     -43.576  57.358 -57.310  1.00  0.00     0.032 A 
HETATM   32  C   UNL     1     -43.363  56.063 -57.768  1.00  0.00     0.034 A 
HETATM   33  C   UNL     1     -42.940  55.094 -56.851  1.00  0.00     0.032 A 
HETATM   34  C   UNL     1     -42.827  55.390 -55.485  1.00  0.00     0.032 A 
BRANCH  32  35
HETATM   35  N   UNL     1     -43.631  55.651 -59.089  1.00  0.00    -0.328 N 
HETATM   36  C   UNL     1     -44.833  55.763 -59.768  1.00  0.00     0.218 C 
HETATM   37  C   UNL     1     -44.835  54.981 -61.056  1.00  0.00     0.117 C 
HETATM   38  O   UNL     1     -45.821  56.405 -59.425  1.00  0.00    -0.274 OA
HETATM   39  H   UNL     1     -42.891  55.139 -59.552  1.00  0.00     0.169 HD
ENDBRANCH  32  35
ENDBRANCH   3  29
TORSDOF 6
ENDMDL
MODEL 4
REMARK VINA RESULT:      -9.0      3.034      6.641
REMARK  6 active torsions:
REMARK  status: ('A' for Active; 'I' for Inactive)
REMARK    1  A    between atoms: C_5  and  C_6 
REMARK    2  A    between atoms: C_6  and  N_7 
REMARK       I    between atoms: N_7  and  C_8 
REMARK    3  A    between atoms: C_8  and  C_9 
REMARK    4  A    between atoms: C_10  and  N_11 
REMARK    5  A    between atoms: N_12  and  C_13 
REMARK    6  A    between atoms: C_16  and  N_17 
REMARK       I    between atoms: N_17  and  C_18 
ROOT
HETATM    1  C   UNL     1     -43.945  56.906 -52.478  1.00  0.00     0.103 C 
HETATM    2  C   UNL     1     -44.339  56.596 -53.778  1.00  0.00     0.105 C 
HETATM    3  N   UNL     1     -44.455  57.828 -54.430  1.00  0.00    -0.284 N 
HETATM    4  C   UNL     1     -44.937  58.701 -53.461  1.00  0.00     0.166 A 
HETATM    5  C   UNL     1     -44.507  58.187 -52.235  1.00  0.00     0.123 A 
HETATM    6  N   UNL     1     -44.642  58.904 -51.091  1.00  0.00    -0.242 NA
HETATM    7  C   UNL     1     -45.294  60.068 -51.226  1.00  0.00     0.086 A 
HETATM    8  C   UNL     1     -45.768  60.544 -52.477  1.00  0.00     0.088 A 
HETATM    9  N   UNL     1     -45.571  59.883 -53.629  1.00  0.00    -0.226 NA
HETATM   10  C   UNL     1     -45.520  60.833 -50.089  1.00  0.00     0.034 A 
HETATM   11  C   UNL     1     -46.216  62.042 -50.146  1.00  0.00     0.002 A 
HETATM   12  C   UNL     1     -46.693  62.499 -51.367  1.00  0.00     0.002 A 
HETATM   13  C   UNL     1     -46.461  61.748 -52.519  1.00  0.00     0.034 A 
ENDROOT
BRANCH   1  14
HETATM   14  C   UNL     1     -43.124  56.076 -51.605  1.00  0.00     0.257 C 
HETATM   15  N   UNL     1     -42.317  55.203 -52.310  1.00  0.00    -0.352 N 
HETATM   16  H   UNL     1     -42.400  55.252 -53.318  1.00  0.00     0.163 HD
HETATM   17  O   UNL     1     -43.046  56.219 -50.392  1.00  0.00    -0.267 OA
BRANCH  15  18
HETATM   18  C   UNL     1     -41.038  54.775 -51.798  1.00  0.00     0.161 C 
BRANCH  18  19
HETATM   19  C   UNL     1     -40.594  53.498 -52.475  1.00  0.00    -0.041 A 
HETATM   20  C   UNL     1     -40.909  53.246 -53.822  1.00  0.00     0.009 A 
HETATM   21  C   UNL     1     -40.548  52.041 -54.429  1.00  0.00     0.007 A 
HETATM   22  C   UNL     1     -39.845  51.071 -53.709  1.00  0.00    -0.062 A 
HETATM   23  C   UNL     1     -39.452  49.781 -54.369  1.00  0.00     0.048 C 
HETATM   24  C   UNL     1     -39.479  51.340 -52.387  1.00  0.00     0.007 A 
HETATM   25  C   UNL     1     -39.855  52.540 -51.773  1.00  0.00     0.009 A 
ENDBRANCH  18  19
ENDBRANCH  15  18
ENDBRANCH   1  14
BRANCH   2  26
HETATM   26  N   UNL     1     -44.446  55.388 -54.405  1.00  0.00    -0.287 NA
HETATM   27  H   UNL     1     -44.180  55.343 -55.393  1.00  0.00     0.125 HD
HETATM   28  H   UNL     1     -44.076  54.567 -53.920  1.00  0.00     0.125 HD
ENDBRANCH   2  26
BRANCH   3  29
HETATM   29  C   UNL     1     -43.897  58.167 -55.711  1.00  0.00     0.042 A 
HETATM   30  C   UNL     1     -42.652  58.810 -55.789  1.00  0.00     0.032 A 
HETATM   31  C   UNL     1     -42.219  59.413 -56.974  1.00  0.00     0.032 A 
HETATM   32  C   UNL     1     -43.025  59.406 -58.106  1.00  0.00     0.034 A 
HETATM   33  C   UNL     1     -44.227  58.691 -58.064  1.00  0.00     0.032 A 
HETATM   34  C   UNL     1     -44.661  58.076 -56.880  1.00  0.00     0.032 A 
BRANCH  32  35
HETATM   35  N   UNL     1     -42.740  60.152 -59.269  1.00  0.00    -0.328 N 
HETATM   36  C   UNL     1     -42.076  59.708 -60.400  1.00  0.00     0.218 C 
HETATM   37  C   UNL     1     -41.714  60.839 -61.329  1.00  0.00     0.117 C 
HETATM   38  O   UNL     1     -41.785  58.550 -60.683  1.00  0.00    -0.274 OA
HETATM   39  H   UNL     1     -42.966  61.138 -59.229  1.00  0.00     0.169 HD
ENDBRANCH  32  35
ENDBRANCH   3  29
TORSDOF 6
ENDMDL
MODEL 5
REMARK VINA RESULT:      -9.0      1.618      2.015
REMARK  6 active torsions:
REMARK  status: ('A' for Active; 'I' for Inactive)
REMARK    1  A    between atoms: C_5  and  C_6 
REMARK    2  A    between atoms: C_6  and  N_7 
REMARK       I    between atoms: N_7  and  C_8 
REMARK    3  A    between atoms: C_8  and  C_9 
REMARK    4  A    between atoms: C_10  and  N_11 
REMARK    5  A    between atoms: N_12  and  C_13 
REMARK    6  A    between atoms: C_16  and  N_17 
REMARK       I    between atoms: N_17  and  C_18 
ROOT
HETATM    1  C   UNL     1     -42.133  57.535 -52.586  1.00  0.00     0.103 C 
HETATM    2  C   UNL     1     -41.954  58.482 -51.580  1.00  0.00     0.105 C 
HETATM    3  N   UNL     1     -42.609  59.630 -52.038  1.00  0.00    -0.284 N 
HETATM    4  C   UNL     1     -42.402  59.636 -53.412  1.00  0.00     0.166 A 
HETATM    5  C   UNL     1     -42.227  58.299 -53.779  1.00  0.00     0.123 A 
HETATM    6  N   UNL     1     -42.195  57.932 -55.085  1.00  0.00    -0.242 NA
HETATM    7  C   UNL     1     -42.246  58.946 -55.960  1.00  0.00     0.086 A 
HETATM    8  C   UNL     1     -42.371  60.303 -55.560  1.00  0.00     0.088 A 
HETATM    9  N   UNL     1     -42.484  60.675 -54.274  1.00  0.00    -0.226 NA
HETATM   10  C   UNL     1     -42.162  58.654 -57.315  1.00  0.00     0.034 A 
HETATM   11  C   UNL     1     -42.179  59.658 -58.285  1.00  0.00     0.002 A 
HETATM   12  C   UNL     1     -42.285  60.985 -57.891  1.00  0.00     0.002 A 
HETATM   13  C   UNL     1     -42.384  61.293 -56.535  1.00  0.00     0.034 A 
ENDROOT
BRANCH   1  14
HETATM   14  C   UNL     1     -42.215  56.091 -52.406  1.00  0.00     0.257 C 
HETATM   15  N   UNL     1     -40.984  55.521 -52.137  1.00  0.00    -0.352 N 
HETATM   16  H   UNL     1     -40.205  56.166 -52.102  1.00  0.00     0.163 HD
HETATM   17  O   UNL     1     -43.263  55.460 -52.357  1.00  0.00    -0.267 OA
BRANCH  15  18
HETATM   18  C   UNL     1     -40.863  54.333 -51.327  1.00  0.00     0.161 C 
BRANCH  18  19
HETATM   19  C   UNL     1     -40.472  53.146 -52.179  1.00  0.00    -0.041 A 
HETATM   20  C   UNL     1     -40.754  53.120 -53.555  1.00  0.00     0.009 A 
HETATM   21  C   UNL     1     -40.443  51.999 -54.329  1.00  0.00     0.007 A 
HETATM   22  C   UNL     1     -39.824  50.889 -53.748  1.00  0.00    -0.062 A 
HETATM   23  C   UNL     1     -39.484  49.692 -54.586  1.00  0.00     0.048 C 
HETATM   24  C   UNL     1     -39.488  50.934 -52.390  1.00  0.00     0.007 A 
HETATM   25  C   UNL     1     -39.814  52.049 -51.611  1.00  0.00     0.009 A 
ENDBRANCH  18  19
ENDBRANCH  15  18
ENDBRANCH   1  14
BRANCH   2  26
HETATM   26  N   UNL     1     -41.423  58.354 -50.330  1.00  0.00    -0.287 NA
HETATM   27  H   UNL     1     -42.074  58.313 -49.541  1.00  0.00     0.125 HD
HETATM   28  H   UNL     1     -40.689  57.654 -50.196  1.00  0.00     0.125 HD
ENDBRANCH   2  26
BRANCH   3  29
HETATM   29  C   UNL     1     -43.543  60.429 -51.291  1.00  0.00     0.042 A 
HETATM   30  C   UNL     1     -43.102  61.576 -50.611  1.00  0.00     0.032 A 
HETATM   31  C   UNL     1     -43.900  62.202 -49.648  1.00  0.00     0.032 A 
HETATM   32  C   UNL     1     -45.150  61.689 -49.325  1.00  0.00     0.034 A 
HETATM   33  C   UNL     1     -45.634  60.601 -50.059  1.00  0.00     0.032 A 
HETATM   34  C   UNL     1     -44.842  59.976 -51.034  1.00  0.00     0.032 A 
BRANCH  32  35
HETATM   35  N   UNL     1     -45.923  62.150 -48.240  1.00  0.00    -0.328 N 
HETATM   36  C   UNL     1     -45.833  61.740 -46.920  1.00  0.00     0.218 C 
HETATM   37  C   UNL     1     -46.985  62.241 -46.087  1.00  0.00     0.117 C 
HETATM   38  O   UNL     1     -44.951  61.053 -46.416  1.00  0.00    -0.274 OA
HETATM   39  H   UNL     1     -46.682  62.778 -48.472  1.00  0.00     0.169 HD
ENDBRANCH  32  35
ENDBRANCH   3  29
TORSDOF 6
ENDMDL
MODEL 6
REMARK VINA RESULT:      -8.9      3.113      7.094
REMARK  6 active torsions:
REMARK  status: ('A' for Active; 'I' for Inactive)
REMARK    1  A    between atoms: C_5  and  C_6 
REMARK    2  A    between atoms: C_6  and  N_7 
REMARK       I    between atoms: N_7  and  C_8 
REMARK    3  A    between atoms: C_8  and  C_9 
REMARK    4  A    between atoms: C_10  and  N_11 
REMARK    5  A    between atoms: N_12  and  C_13 
REMARK    6  A    between atoms: C_16  and  N_17 
REMARK       I    between atoms: N_17  and  C_18 
ROOT
HETATM    1  C   UNL     1     -43.209  55.666 -55.265  1.00  0.00     0.103 C 
HETATM    2  C   UNL     1     -44.001  56.284 -54.299  1.00  0.00     0.105 C 
HETATM    3  N   UNL     1     -43.196  56.355 -53.157  1.00  0.00    -0.284 N 
HETATM    4  C   UNL     1     -42.442  55.187 -53.179  1.00  0.00     0.166 A 
HETATM    5  C   UNL     1     -42.343  54.821 -54.524  1.00  0.00     0.123 A 
HETATM    6  N   UNL     1     -41.506  53.827 -54.917  1.00  0.00    -0.242 NA
HETATM    7  C   UNL     1     -40.880  53.186 -53.919  1.00  0.00     0.086 A 
HETATM    8  C   UNL     1     -41.038  53.546 -52.555  1.00  0.00     0.088 A 
HETATM    9  N   UNL     1     -41.800  54.577 -52.156  1.00  0.00    -0.226 NA
HETATM   10  C   UNL     1     -40.049  52.120 -54.239  1.00  0.00     0.034 A 
HETATM   11  C   UNL     1     -39.385  51.387 -53.254  1.00  0.00     0.002 A 
HETATM   12  C   UNL     1     -39.553  51.729 -51.919  1.00  0.00     0.002 A 
HETATM   13  C   UNL     1     -40.374  52.806 -51.584  1.00  0.00     0.034 A 
ENDROOT
BRANCH   1  14
HETATM   14  C   UNL     1     -43.281  55.881 -56.705  1.00  0.00     0.257 C 
HETATM   15  N   UNL     1     -44.247  56.806 -57.055  1.00  0.00    -0.352 N 
HETATM   16  H   UNL     1     -44.767  57.204 -56.282  1.00  0.00     0.163 HD
HETATM   17  O   UNL     1     -42.491  55.409 -57.513  1.00  0.00    -0.267 OA
BRANCH  15  18
HETATM   18  C   UNL     1     -44.106  57.641 -58.223  1.00  0.00     0.161 C 
BRANCH  18  19
HETATM   19  C   UNL     1     -45.238  57.391 -59.194  1.00  0.00    -0.041 A 
HETATM   20  C   UNL     1     -45.387  56.144 -59.825  1.00  0.00     0.009 A 
HETATM   21  C   UNL     1     -46.399  55.932 -60.765  1.00  0.00     0.007 A 
HETATM   22  C   UNL     1     -47.297  56.957 -61.078  1.00  0.00    -0.062 A 
HETATM   23  C   UNL     1     -48.387  56.722 -62.082  1.00  0.00     0.048 C 
HETATM   24  C   UNL     1     -47.188  58.181 -60.410  1.00  0.00     0.007 A 
HETATM   25  C   UNL     1     -46.165  58.399 -59.482  1.00  0.00     0.009 A 
ENDBRANCH  18  19
ENDBRANCH  15  18
ENDBRANCH   1  14
BRANCH   2  26
HETATM   26  N   UNL     1     -45.228  56.872 -54.406  1.00  0.00    -0.287 NA
HETATM   27  H   UNL     1     -46.043  56.321 -54.121  1.00  0.00     0.125 HD
HETATM   28  H   UNL     1     -45.329  57.827 -54.055  1.00  0.00     0.125 HD
ENDBRANCH   2  26
BRANCH   3  29
HETATM   29  C   UNL     1     -42.983  57.518 -52.339  1.00  0.00     0.042 A 
HETATM   30  C   UNL     1     -43.999  57.972 -51.483  1.00  0.00     0.032 A 
HETATM   31  C   UNL     1     -43.947  59.244 -50.904  1.00  0.00     0.032 A 
HETATM   32  C   UNL     1     -42.890  60.103 -51.180  1.00  0.00     0.034 A 
HETATM   33  C   UNL     1     -41.831  59.627 -51.960  1.00  0.00     0.032 A 
HETATM   34  C   UNL     1     -41.873  58.348 -52.534  1.00  0.00     0.032 A 
BRANCH  32  35
HETATM   35  N   UNL     1     -42.866  61.457 -50.789  1.00  0.00    -0.328 N 
HETATM   36  C   UNL     1     -43.493  62.518 -51.421  1.00  0.00     0.218 C 
HETATM   37  C   UNL     1     -43.035  63.851 -50.889  1.00  0.00     0.117 C 
HETATM   38  O   UNL     1     -44.333  62.457 -52.315  1.00  0.00    -0.274 OA
HETATM   39  H   UNL     1     -42.251  61.685 -50.018  1.00  0.00     0.169 HD
ENDBRANCH  32  35
ENDBRANCH   3  29
TORSDOF 6
ENDMDL
MODEL 7
REMARK VINA RESULT:      -8.8     17.040     20.645
REMARK  6 active torsions:
REMARK  status: ('A' for Active; 'I' for Inactive)
REMARK    1  A    between atoms: C_5  and  C_6 
REMARK    2  A    between atoms: C_6  and  N_7 
REMARK       I    between atoms: N_7  and  C_8 
REMARK    3  A    between atoms: C_8  and  C_9 
REMARK    4  A    between atoms: C_10  and  N_11 
REMARK    5  A    between atoms: N_12  and  C_13 
REMARK    6  A    between atoms: C_16  and  N_17 
REMARK       I    between atoms: N_17  and  C_18 
ROOT
HETATM    1  C   UNL     1     -34.974  40.518 -53.445  1.00  0.00     0.103 C 
HETATM    2  C   UNL     1     -35.269  39.664 -52.385  1.00  0.00     0.105 C 
HETATM    3  N   UNL     1     -34.027  39.228 -51.910  1.00  0.00    -0.284 N 
HETATM    4  C   UNL     1     -33.231  39.114 -53.044  1.00  0.00     0.166 A 
HETATM    5  C   UNL     1     -33.752  40.022 -53.970  1.00  0.00     0.123 A 
HETATM    6  N   UNL     1     -33.089  40.304 -55.119  1.00  0.00    -0.242 NA
HETATM    7  C   UNL     1     -31.977  39.583 -55.324  1.00  0.00     0.086 A 
HETATM    8  C   UNL     1     -31.496  38.628 -54.389  1.00  0.00     0.088 A 
HETATM    9  N   UNL     1     -32.098  38.395 -53.212  1.00  0.00    -0.226 NA
HETATM   10  C   UNL     1     -31.273  39.776 -56.506  1.00  0.00     0.034 A 
HETATM   11  C   UNL     1     -30.122  39.044 -56.802  1.00  0.00     0.002 A 
HETATM   12  C   UNL     1     -29.663  38.098 -55.895  1.00  0.00     0.002 A 
HETATM   13  C   UNL     1     -30.352  37.904 -54.698  1.00  0.00     0.034 A 
ENDROOT
BRANCH   1  14
HETATM   14  C   UNL     1     -35.766  41.664 -53.875  1.00  0.00     0.257 C 
HETATM   15  N   UNL     1     -35.818  41.786 -55.251  1.00  0.00    -0.352 N 
HETATM   16  H   UNL     1     -35.309  41.081 -55.769  1.00  0.00     0.163 HD
HETATM   17  O   UNL     1     -36.430  42.365 -53.121  1.00  0.00    -0.267 OA
BRANCH  15  18
HETATM   18  C   UNL     1     -36.961  42.363 -55.916  1.00  0.00     0.161 C 
BRANCH  18  19
HETATM   19  C   UNL     1     -37.263  41.615 -57.195  1.00  0.00    -0.041 A 
HETATM   20  C   UNL     1     -37.868  40.347 -57.167  1.00  0.00     0.009 A 
HETATM   21  C   UNL     1     -38.095  39.633 -58.346  1.00  0.00     0.007 A 
HETATM   22  C   UNL     1     -37.741  40.182 -59.582  1.00  0.00    -0.062 A 
HETATM   23  C   UNL     1     -37.994  39.415 -60.846  1.00  0.00     0.048 C 
HETATM   24  C   UNL     1     -37.193  41.469 -59.620  1.00  0.00     0.007 A 
HETATM   25  C   UNL     1     -36.950  42.177 -58.439  1.00  0.00     0.009 A 
ENDBRANCH  18  19
ENDBRANCH  15  18
ENDBRANCH   1  14
BRANCH   2  26
HETATM   26  N   UNL     1     -36.458  39.392 -51.773  1.00  0.00    -0.287 NA
HETATM   27  H   UNL     1     -36.679  38.411 -51.583  1.00  0.00     0.125 HD
HETATM   28  H   UNL     1     -36.714  39.958 -50.960  1.00  0.00     0.125 HD
ENDBRANCH   2  26
BRANCH   3  29
HETATM   29  C   UNL     1     -33.600  39.215 -50.537  1.00  0.00     0.042 A 
HETATM   30  C   UNL     1     -32.763  40.232 -50.051  1.00  0.00     0.032 A 
HETATM   31  C   UNL     1     -32.095  40.102 -48.829  1.00  0.00     0.032 A 
HETATM   32  C   UNL     1     -32.230  38.946 -48.070  1.00  0.00     0.034 A 
HETATM   33  C   UNL     1     -33.131  37.966 -48.503  1.00  0.00     0.032 A 
HETATM   34  C   UNL     1     -33.811  38.097 -49.723  1.00  0.00     0.032 A 
BRANCH  32  35
HETATM   35  N   UNL     1     -31.446  38.666 -46.932  1.00  0.00    -0.328 N 
HETATM   36  C   UNL     1     -30.089  38.895 -46.780  1.00  0.00     0.218 C 
HETATM   37  C   UNL     1     -29.534  38.231 -45.546  1.00  0.00     0.117 C 
HETATM   38  O   UNL     1     -29.360  39.550 -47.518  1.00  0.00    -0.274 OA
HETATM   39  H   UNL     1     -31.911  38.162 -46.187  1.00  0.00     0.169 HD
ENDBRANCH  32  35
ENDBRANCH   3  29
TORSDOF 6
ENDMDL
MODEL 8
REMARK VINA RESULT:      -8.7      2.735      6.379
REMARK  6 active torsions:
REMARK  status: ('A' for Active; 'I' for Inactive)
REMARK    1  A    between atoms: C_5  and  C_6 
REMARK    2  A    between atoms: C_6  and  N_7 
REMARK       I    between atoms: N_7  and  C_8 
REMARK    3  A    between atoms: C_8  and  C_9 
REMARK    4  A    between atoms: C_10  and  N_11 
REMARK    5  A    between atoms: N_12  and  C_13 
REMARK    6  A    between atoms: C_16  and  N_17 
REMARK       I    between atoms: N_17  and  C_18 
ROOT
HETATM    1  C   UNL     1     -43.111  57.666 -55.594  1.00  0.00     0.103 C 
HETATM    2  C   UNL     1     -44.235  57.933 -54.816  1.00  0.00     0.105 C 
HETATM    3  N   UNL     1     -43.887  57.534 -53.521  1.00  0.00    -0.284 N 
HETATM    4  C   UNL     1     -43.083  56.414 -53.696  1.00  0.00     0.166 A 
HETATM    5  C   UNL     1     -42.493  56.560 -54.954  1.00  0.00     0.123 A 
HETATM    6  N   UNL     1     -41.496  55.732 -55.358  1.00  0.00    -0.242 NA
HETATM    7  C   UNL     1     -41.207  54.736 -54.508  1.00  0.00     0.086 A 
HETATM    8  C   UNL     1     -41.859  54.579 -53.256  1.00  0.00     0.088 A 
HETATM    9  N   UNL     1     -42.792  55.436 -52.808  1.00  0.00    -0.226 NA
HETATM   10  C   UNL     1     -40.236  53.815 -54.877  1.00  0.00     0.034 A 
HETATM   11  C   UNL     1     -39.901  52.735 -54.058  1.00  0.00     0.002 A 
HETATM   12  C   UNL     1     -40.550  52.573 -52.842  1.00  0.00     0.002 A 
HETATM   13  C   UNL     1     -41.519  53.498 -52.452  1.00  0.00     0.034 A 
ENDROOT
BRANCH   1  14
HETATM   14  C   UNL     1     -42.693  58.397 -56.784  1.00  0.00     0.257 C 
HETATM   15  N   UNL     1     -42.126  57.574 -57.739  1.00  0.00    -0.352 N 
HETATM   16  H   UNL     1     -42.075  56.593 -57.492  1.00  0.00     0.163 HD
HETATM   17  O   UNL     1     -42.936  59.580 -56.987  1.00  0.00    -0.267 OA
BRANCH  15  18
HETATM   18  C   UNL     1     -42.225  57.871 -59.147  1.00  0.00     0.161 C 
BRANCH  18  19
HETATM   19  C   UNL     1     -43.590  57.490 -59.676  1.00  0.00    -0.041 A 
HETATM   20  C   UNL     1     -44.591  58.458 -59.858  1.00  0.00     0.009 A 
HETATM   21  C   UNL     1     -45.869  58.096 -60.292  1.00  0.00     0.007 A 
HETATM   22  C   UNL     1     -46.166  56.760 -60.574  1.00  0.00    -0.062 A 
HETATM   23  C   UNL     1     -47.537  56.378 -61.048  1.00  0.00     0.048 C 
HETATM   24  C   UNL     1     -45.156  55.800 -60.451  1.00  0.00     0.007 A 
HETATM   25  C   UNL     1     -43.881  56.160 -60.000  1.00  0.00     0.009 A 
ENDBRANCH  18  19
ENDBRANCH  15  18
ENDBRANCH   1  14
BRANCH   2  26
HETATM   26  N   UNL     1     -45.390  58.589 -55.128  1.00  0.00    -0.287 NA
HETATM   27  H   UNL     1     -45.404  59.138 -55.992  1.00  0.00     0.125 HD
HETATM   28  H   UNL     1     -46.268  58.070 -55.045  1.00  0.00     0.125 HD
ENDBRANCH   2  26
BRANCH   3  29
HETATM   29  C   UNL     1     -44.065  58.303 -52.319  1.00  0.00     0.042 A 
HETATM   30  C   UNL     1     -45.244  58.173 -51.568  1.00  0.00     0.032 A 
HETATM   31  C   UNL     1     -45.582  59.101 -50.578  1.00  0.00     0.032 A 
HETATM   32  C   UNL     1     -44.760  60.193 -50.323  1.00  0.00     0.034 A 
HETATM   33  C   UNL     1     -43.541  60.281 -51.003  1.00  0.00     0.032 A 
HETATM   34  C   UNL     1     -43.193  59.347 -51.991  1.00  0.00     0.032 A 
BRANCH  32  35
HETATM   35  N   UNL     1     -45.126  61.262 -49.480  1.00  0.00    -0.328 N 
HETATM   36  C   UNL     1     -45.757  61.174 -48.251  1.00  0.00     0.218 C 
HETATM   37  C   UNL     1     -46.234  62.517 -47.758  1.00  0.00     0.117 C 
HETATM   38  O   UNL     1     -45.943  60.162 -47.583  1.00  0.00    -0.274 OA
HETATM   39  H   UNL     1     -44.992  62.191 -49.860  1.00  0.00     0.169 HD
ENDBRANCH  32  35
ENDBRANCH   3  29
TORSDOF 6
ENDMDL
MODEL 9
REMARK VINA RESULT:      -8.7      3.241      8.162
REMARK  6 active torsions:
REMARK  status: ('A' for Active; 'I' for Inactive)
REMARK    1  A    between atoms: C_5  and  C_6 
REMARK    2  A    between atoms: C_6  and  N_7 
REMARK       I    between atoms: N_7  and  C_8 
REMARK    3  A    between atoms: C_8  and  C_9 
REMARK    4  A    between atoms: C_10  and  N_11 
REMARK    5  A    between atoms: N_12  and  C_13 
REMARK    6  A    between atoms: C_16  and  N_17 
REMARK       I    between atoms: N_17  and  C_18 
ROOT
HETATM    1  C   UNL     1     -44.113  58.392 -55.197  1.00  0.00     0.103 C 
HETATM    2  C   UNL     1     -44.302  57.017 -55.080  1.00  0.00     0.105 C 
HETATM    3  N   UNL     1     -43.303  56.441 -55.872  1.00  0.00    -0.284 N 
HETATM    4  C   UNL     1     -43.162  57.304 -56.953  1.00  0.00     0.166 A 
HETATM    5  C   UNL     1     -43.554  58.563 -56.491  1.00  0.00     0.123 A 
HETATM    6  N   UNL     1     -43.353  59.675 -57.242  1.00  0.00    -0.242 NA
HETATM    7  C   UNL     1     -42.853  59.450 -58.465  1.00  0.00     0.086 A 
HETATM    8  C   UNL     1     -42.511  58.153 -58.931  1.00  0.00     0.088 A 
HETATM    9  N   UNL     1     -42.630  57.052 -58.171  1.00  0.00    -0.226 NA
HETATM   10  C   UNL     1     -42.671  60.535 -59.314  1.00  0.00     0.034 A 
HETATM   11  C   UNL     1     -42.182  60.377 -60.611  1.00  0.00     0.002 A 
HETATM   12  C   UNL     1     -41.865  59.106 -61.071  1.00  0.00     0.002 A 
HETATM   13  C   UNL     1     -42.028  58.009 -60.225  1.00  0.00     0.034 A 
ENDROOT
BRANCH   1  14
HETATM   14  C   UNL     1     -44.421  59.394 -54.184  1.00  0.00     0.257 C 
HETATM   15  N   UNL     1     -44.194  58.936 -52.900  1.00  0.00    -0.352 N 
HETATM   16  H   UNL     1     -43.852  57.985 -52.832  1.00  0.00     0.163 HD
HETATM   17  O   UNL     1     -44.715  60.557 -54.432  1.00  0.00    -0.267 OA
BRANCH  15  18
HETATM   18  C   UNL     1     -43.803  59.829 -51.837  1.00  0.00     0.161 C 
BRANCH  18  19
HETATM   19  C   UNL     1     -42.343  59.640 -51.494  1.00  0.00    -0.041 A 
HETATM   20  C   UNL     1     -41.830  60.061 -50.255  1.00  0.00     0.009 A 
HETATM   21  C   UNL     1     -40.470  59.937 -49.962  1.00  0.00     0.007 A 
HETATM   22  C   UNL     1     -39.596  59.372 -50.895  1.00  0.00    -0.062 A 
HETATM   23  C   UNL     1     -38.137  59.234 -50.573  1.00  0.00     0.048 C 
HETATM   24  C   UNL     1     -40.111  58.899 -52.107  1.00  0.00     0.007 A 
HETATM   25  C   UNL     1     -41.470  59.037 -52.407  1.00  0.00     0.009 A 
ENDBRANCH  18  19
ENDBRANCH  15  18
ENDBRANCH   1  14
BRANCH   2  26
HETATM   26  N   UNL     1     -45.136  56.306 -54.267  1.00  0.00    -0.287 NA
HETATM   27  H   UNL     1     -44.784  55.425 -53.882  1.00  0.00     0.125 HD
HETATM   28  H   UNL     1     -45.635  56.817 -53.535  1.00  0.00     0.125 HD
ENDBRANCH   2  26
BRANCH   3  29
HETATM   29  C   UNL     1     -42.418  55.377 -55.481  1.00  0.00     0.042 A 
HETATM   30  C   UNL     1     -42.910  54.071 -55.332  1.00  0.00     0.032 A 
HETATM   31  C   UNL     1     -42.166  53.084 -54.677  1.00  0.00     0.032 A 
HETATM   32  C   UNL     1     -40.919  53.380 -54.139  1.00  0.00     0.034 A 
HETATM   33  C   UNL     1     -40.383  54.653 -54.361  1.00  0.00     0.032 A 
HETATM   34  C   UNL     1     -41.122  55.644 -55.026  1.00  0.00     0.032 A 
BRANCH  32  35
HETATM   35  N   UNL     1     -40.201  52.497 -53.308  1.00  0.00    -0.328 N 
HETATM   36  C   UNL     1     -39.947  51.156 -53.541  1.00  0.00     0.218 C 
HETATM   37  C   UNL     1     -39.389  50.461 -52.326  1.00  0.00     0.117 C 
HETATM   38  O   UNL     1     -40.127  50.538 -54.586  1.00  0.00    -0.274 OA
HETATM   39  H   UNL     1     -39.924  52.864 -52.406  1.00  0.00     0.169 HD
ENDBRANCH  32  35
ENDBRANCH   3  29
TORSDOF 6
ENDMDL
MODEL 10
REMARK VINA RESULT:      -8.7      2.856      6.615
REMARK  6 active torsions:
REMARK  status: ('A' for Active; 'I' for Inactive)
REMARK    1  A    between atoms: C_5  and  C_6 
REMARK    2  A    between atoms: C_6  and  N_7 
REMARK       I    between atoms: N_7  and  C_8 
REMARK    3  A    between atoms: C_8  and  C_9 
REMARK    4  A    between atoms: C_10  and  N_11 
REMARK    5  A    between atoms: N_12  and  C_13 
REMARK    6  A    between atoms: C_16  and  N_17 
REMARK       I    between atoms: N_17  and  C_18 
ROOT
HETATM    1  C   UNL     1     -43.153  55.640 -54.396  1.00  0.00     0.103 C 
HETATM    2  C   UNL     1     -44.176  56.494 -53.986  1.00  0.00     0.105 C 
HETATM    3  N   UNL     1     -43.737  57.036 -52.774  1.00  0.00    -0.284 N 
HETATM    4  C   UNL     1     -43.037  56.006 -52.154  1.00  0.00     0.166 A 
HETATM    5  C   UNL     1     -42.560  55.193 -53.186  1.00  0.00     0.123 A 
HETATM    6  N   UNL     1     -41.670  54.200 -52.936  1.00  0.00    -0.242 NA
HETATM    7  C   UNL     1     -41.376  54.014 -51.641  1.00  0.00     0.086 A 
HETATM    8  C   UNL     1     -41.916  54.822 -50.606  1.00  0.00     0.088 A 
HETATM    9  N   UNL     1     -42.736  55.859 -50.844  1.00  0.00    -0.226 NA
HETATM   10  C   UNL     1     -40.514  52.979 -51.302  1.00  0.00     0.034 A 
HETATM   11  C   UNL     1     -40.184  52.706 -49.974  1.00  0.00     0.002 A 
HETATM   12  C   UNL     1     -40.725  53.486 -48.961  1.00  0.00     0.002 A 
HETATM   13  C   UNL     1     -41.581  54.538 -49.288  1.00  0.00     0.034 A 
ENDROOT
BRANCH   1  14
HETATM   14  C   UNL     1     -42.797  55.320 -55.772  1.00  0.00     0.257 C 
HETATM   15  N   UNL     1     -43.665  55.885 -56.688  1.00  0.00    -0.352 N 
HETATM   16  H   UNL     1     -44.417  56.434 -56.292  1.00  0.00     0.163 HD
HETATM   17  O   UNL     1     -41.773  54.735 -56.102  1.00  0.00    -0.267 OA
BRANCH  15  18
HETATM   18  C   UNL     1     -43.226  56.266 -58.009  1.00  0.00     0.161 C 
BRANCH  18  19
HETATM   19  C   UNL     1     -44.405  56.370 -58.951  1.00  0.00    -0.041 A 
HETATM   20  C   UNL     1     -45.397  57.347 -58.763  1.00  0.00     0.009 A 
HETATM   21  C   UNL     1     -46.514  57.405 -59.600  1.00  0.00     0.007 A 
HETATM   22  C   UNL     1     -46.652  56.501 -60.657  1.00  0.00    -0.062 A 
HETATM   23  C   UNL     1     -47.849  56.573 -61.558  1.00  0.00     0.048 C 
HETATM   24  C   UNL     1     -45.638  55.564 -60.883  1.00  0.00     0.007 A 
HETATM   25  C   UNL     1     -44.528  55.494 -60.035  1.00  0.00     0.009 A 
ENDBRANCH  18  19
ENDBRANCH  15  18
ENDBRANCH   1  14
BRANCH   2  26
HETATM   26  N   UNL     1     -45.304  56.898 -54.639  1.00  0.00    -0.287 NA
HETATM   27  H   UNL     1     -45.983  57.452 -54.110  1.00  0.00     0.125 HD
HETATM   28  H   UNL     1     -45.194  57.302 -55.572  1.00  0.00     0.125 HD
ENDBRANCH   2  26
BRANCH   3  29
HETATM   29  C   UNL     1     -43.743  58.428 -52.415  1.00  0.00     0.042 A 
HETATM   30  C   UNL     1     -42.575  59.196 -52.553  1.00  0.00     0.032 A 
HETATM   31  C   UNL     1     -42.455  60.451 -51.948  1.00  0.00     0.032 A 
HETATM   32  C   UNL     1     -43.490  60.965 -51.176  1.00  0.00     0.034 A 
HETATM   33  C   UNL     1     -44.689  60.248 -51.107  1.00  0.00     0.032 A 
HETATM   34  C   UNL     1     -44.818  58.993 -51.720  1.00  0.00     0.032 A 
BRANCH  32  35
HETATM   35  N   UNL     1     -43.368  62.127 -50.387  1.00  0.00    -0.328 N 
HETATM   36  C   UNL     1     -43.189  63.424 -50.838  1.00  0.00     0.218 C 
HETATM   37  C   UNL     1     -42.832  64.372 -49.721  1.00  0.00     0.117 C 
HETATM   38  O   UNL     1     -43.292  63.829 -51.991  1.00  0.00    -0.274 OA
HETATM   39  H   UNL     1     -43.317  61.980 -49.387  1.00  0.00     0.169 HD
ENDBRANCH  32  35
ENDBRANCH   3  29
TORSDOF 6
ENDMDL
