MODEL 1
REMARK VINA RESULT:      -7.7      0.000      0.000
REMARK  6 active torsions:
REMARK  status: ('A' for Active; 'I' for Inactive)
REMARK    1  A    between atoms: N_2  and  C_4 
REMARK    2  A    between atoms: N_2  and  C_14 
REMARK    3  A    between atoms: C_5  and  O_6 
REMARK    4  A    between atoms: C_14  and  C_15 
REMARK    5  A    between atoms: C_15  and  O_16 
REMARK    6  A    between atoms: C_15  and  C_17 
ROOT
HETATM    1  C   UNL     1     -42.100  57.416 -54.269  1.00  0.00     0.270 C 
HETATM    2  N   UNL     1     -42.098  56.181 -55.130  1.00  0.00    -0.065 N 
HETATM    3  H   UNL     1     -41.219  56.154 -55.674  1.00  0.00     0.280 HD
ENDROOT
BRANCH   2   4
HETATM    4  C   UNL     1     -42.072  54.857 -54.347  1.00  0.00     0.225 C 
HETATM    5  C   UNL     1     -41.006  53.892 -54.967  1.00  0.00     0.183 C 
HETATM    6  C   UNL     1     -40.555  53.110 -53.778  1.00  0.00    -0.021 A 
HETATM    7  C   UNL     1     -40.912  53.760 -52.592  1.00  0.00    -0.047 A 
HETATM    8  C   UNL     1     -39.854  51.915 -53.754  1.00  0.00     0.010 A 
HETATM    9  C   UNL     1     -41.614  55.051 -52.877  1.00  0.00     0.075 C 
HETATM   10  C   UNL     1     -40.568  53.237 -51.359  1.00  0.00     0.008 A 
HETATM   11  C   UNL     1     -39.868  52.030 -51.325  1.00  0.00     0.001 A 
HETATM   12  C   UNL     1     -39.514  51.373 -52.514  1.00  0.00     0.001 A 
BRANCH   5  13
HETATM   13  O   UNL     1     -39.936  54.673 -55.512  1.00  0.00    -0.389 OA
HETATM   14  H   UNL     1     -39.102  54.216 -55.279  1.00  0.00     0.210 HD
ENDBRANCH   5  13
ENDBRANCH   2   4
BRANCH   2  15
HETATM   15  C   UNL     1     -43.238  56.205 -56.166  1.00  0.00     0.271 C 
BRANCH  15  16
HETATM   16  C   UNL     1     -42.719  56.163 -57.626  1.00  0.00     0.177 C 
BRANCH  16  17
HETATM   17  O   UNL     1     -41.934  57.322 -57.906  1.00  0.00    -0.389 OA
HETATM   18  H   UNL     1     -41.004  57.105 -57.697  1.00  0.00     0.210 HD
ENDBRANCH  16  17
BRANCH  16  19
HETATM   19  C   UNL     1     -43.864  56.079 -58.612  1.00  0.00    -0.028 A 
HETATM   20  C   UNL     1     -44.781  57.139 -58.719  1.00  0.00     0.013 A 
HETATM   21  C   UNL     1     -45.832  57.074 -59.636  1.00  0.00     0.043 A 
HETATM   22  C   UNL     1     -45.970  55.956 -60.447  1.00  0.00     0.116 A 
HETATM   23  F   UNL     1     -46.978  55.897 -61.325  1.00  0.00    -0.206 F 
HETATM   24  C   UNL     1     -45.076  54.896 -60.359  1.00  0.00     0.043 A 
HETATM   25  C   UNL     1     -44.023  54.956 -59.444  1.00  0.00     0.013 A 
ENDBRANCH  16  19
ENDBRANCH  15  16
ENDBRANCH   2  15
TORSDOF 6
ENDMDL
MODEL 2
REMARK VINA RESULT:      -7.7      4.768      7.326
REMARK  6 active torsions:
REMARK  status: ('A' for Active; 'I' for Inactive)
REMARK    1  A    between atoms: N_2  and  C_4 
REMARK    2  A    between atoms: N_2  and  C_14 
REMARK    3  A    between atoms: C_5  and  O_6 
REMARK    4  A    between atoms: C_14  and  C_15 
REMARK    5  A    between atoms: C_15  and  O_16 
REMARK    6  A    between atoms: C_15  and  C_17 
ROOT
HETATM    1  C   UNL     1     -43.110  54.016 -51.769  1.00  0.00     0.270 C 
HETATM    2  N   UNL     1     -43.003  54.828 -53.032  1.00  0.00    -0.065 N 
HETATM    3  H   UNL     1     -43.952  55.116 -53.327  1.00  0.00     0.280 HD
ENDROOT
BRANCH   2   4
HETATM    4  C   UNL     1     -42.261  56.166 -52.869  1.00  0.00     0.225 C 
HETATM    5  C   UNL     1     -43.281  57.353 -52.937  1.00  0.00     0.183 C 
HETATM    6  C   UNL     1     -42.644  58.370 -52.048  1.00  0.00    -0.021 A 
HETATM    7  C   UNL     1     -41.677  57.778 -51.230  1.00  0.00    -0.047 A 
HETATM    8  C   UNL     1     -42.924  59.725 -51.960  1.00  0.00     0.010 A 
HETATM    9  C   UNL     1     -41.594  56.304 -51.475  1.00  0.00     0.075 C 
HETATM   10  C   UNL     1     -40.977  58.523 -50.297  1.00  0.00     0.008 A 
HETATM   11  C   UNL     1     -41.248  59.889 -50.206  1.00  0.00     0.001 A 
HETATM   12  C   UNL     1     -42.213  60.486 -51.031  1.00  0.00     0.001 A 
BRANCH   5  13
HETATM   13  O   UNL     1     -44.537  56.913 -52.406  1.00  0.00    -0.389 OA
HETATM   14  H   UNL     1     -44.561  55.939 -52.501  1.00  0.00     0.210 HD
ENDBRANCH   5  13
ENDBRANCH   2   4
BRANCH   2  15
HETATM   15  C   UNL     1     -42.429  53.999 -54.197  1.00  0.00     0.271 C 
BRANCH  15  16
HETATM   16  C   UNL     1     -40.882  53.912 -54.163  1.00  0.00     0.177 C 
BRANCH  16  17
HETATM   17  O   UNL     1     -40.341  54.188 -55.455  1.00  0.00    -0.389 OA
HETATM   18  H   UNL     1     -39.380  54.330 -55.347  1.00  0.00     0.210 HD
ENDBRANCH  16  17
BRANCH  16  19
HETATM   19  C   UNL     1     -40.421  52.546 -53.705  1.00  0.00    -0.028 A 
HETATM   20  C   UNL     1     -39.940  52.366 -52.396  1.00  0.00     0.013 A 
HETATM   21  C   UNL     1     -39.525  51.105 -51.963  1.00  0.00     0.043 A 
HETATM   22  C   UNL     1     -39.590  50.023 -52.830  1.00  0.00     0.116 A 
HETATM   23  F   UNL     1     -39.192  48.816 -52.411  1.00  0.00    -0.206 F 
HETATM   24  C   UNL     1     -40.061  50.176 -54.128  1.00  0.00     0.043 A 
HETATM   25  C   UNL     1     -40.478  51.435 -54.567  1.00  0.00     0.013 A 
ENDBRANCH  16  19
ENDBRANCH  15  16
ENDBRANCH   2  15
TORSDOF 6
ENDMDL
MODEL 3
REMARK VINA RESULT:      -7.6      4.590      7.756
REMARK  6 active torsions:
REMARK  status: ('A' for Active; 'I' for Inactive)
REMARK    1  A    between atoms: N_2  and  C_4 
REMARK    2  A    between atoms: N_2  and  C_14 
REMARK    3  A    between atoms: C_5  and  O_6 
REMARK    4  A    between atoms: C_14  and  C_15 
REMARK    5  A    between atoms: C_15  and  O_16 
REMARK    6  A    between atoms: C_15  and  C_17 
ROOT
HETATM    1  C   UNL     1     -43.500  54.009 -51.553  1.00  0.00     0.270 C 
HETATM    2  N   UNL     1     -43.582  54.794 -52.835  1.00  0.00    -0.065 N 
HETATM    3  H   UNL     1     -44.515  54.650 -53.258  1.00  0.00     0.280 HD
ENDROOT
BRANCH   2   4
HETATM    4  C   UNL     1     -43.506  56.320 -52.655  1.00  0.00     0.225 C 
HETATM    5  C   UNL     1     -44.201  57.035 -53.863  1.00  0.00     0.183 C 
HETATM    6  C   UNL     1     -44.727  58.283 -53.234  1.00  0.00    -0.021 A 
HETATM    7  C   UNL     1     -44.766  58.158 -51.842  1.00  0.00    -0.047 A 
HETATM    8  C   UNL     1     -45.163  59.440 -53.861  1.00  0.00     0.010 A 
HETATM    9  C   UNL     1     -44.293  56.806 -51.409  1.00  0.00     0.075 C 
HETATM   10  C   UNL     1     -45.250  59.181 -51.046  1.00  0.00     0.008 A 
HETATM   11  C   UNL     1     -45.685  60.353 -51.669  1.00  0.00     0.001 A 
HETATM   12  C   UNL     1     -45.641  60.481 -53.065  1.00  0.00     0.001 A 
BRANCH   5  13
HETATM   13  O   UNL     1     -45.267  56.204 -54.340  1.00  0.00    -0.389 OA
HETATM   14  H   UNL     1     -46.003  56.290 -53.700  1.00  0.00     0.210 HD
ENDBRANCH   5  13
ENDBRANCH   2   4
BRANCH   2  15
HETATM   15  C   UNL     1     -42.562  54.294 -53.877  1.00  0.00     0.271 C 
BRANCH  15  16
HETATM   16  C   UNL     1     -41.111  54.282 -53.334  1.00  0.00     0.177 C 
BRANCH  16  17
HETATM   17  O   UNL     1     -40.254  55.033 -54.194  1.00  0.00    -0.389 OA
HETATM   18  H   UNL     1     -39.927  55.801 -53.685  1.00  0.00     0.210 HD
ENDBRANCH  16  17
BRANCH  16  19
HETATM   19  C   UNL     1     -40.586  52.868 -53.207  1.00  0.00    -0.028 A 
HETATM   20  C   UNL     1     -40.656  51.990 -54.302  1.00  0.00     0.013 A 
HETATM   21  C   UNL     1     -40.162  50.688 -54.196  1.00  0.00     0.043 A 
HETATM   22  C   UNL     1     -39.595  50.262 -53.003  1.00  0.00     0.116 A 
HETATM   23  F   UNL     1     -39.121  49.014 -52.906  1.00  0.00    -0.206 F 
HETATM   24  C   UNL     1     -39.514  51.112 -51.907  1.00  0.00     0.043 A 
HETATM   25  C   UNL     1     -40.007  52.415 -52.007  1.00  0.00     0.013 A 
ENDBRANCH  16  19
ENDBRANCH  15  16
ENDBRANCH   2  15
TORSDOF 6
ENDMDL
MODEL 4
REMARK VINA RESULT:      -7.6      4.026      5.126
REMARK  6 active torsions:
REMARK  status: ('A' for Active; 'I' for Inactive)
REMARK    1  A    between atoms: N_2  and  C_4 
REMARK    2  A    between atoms: N_2  and  C_14 
REMARK    3  A    between atoms: C_5  and  O_6 
REMARK    4  A    between atoms: C_14  and  C_15 
REMARK    5  A    between atoms: C_15  and  O_16 
REMARK    6  A    between atoms: C_15  and  C_17 
ROOT
HETATM    1  C   UNL     1     -40.890  57.268 -53.133  1.00  0.00     0.270 C 
HETATM    2  N   UNL     1     -41.530  56.345 -54.135  1.00  0.00    -0.065 N 
HETATM    3  H   UNL     1     -40.921  56.281 -54.969  1.00  0.00     0.280 HD
ENDROOT
BRANCH   2   4
HETATM    4  C   UNL     1     -41.651  54.883 -53.671  1.00  0.00     0.225 C 
HETATM    5  C   UNL     1     -41.014  53.930 -54.738  1.00  0.00     0.183 C 
HETATM    6  C   UNL     1     -40.512  52.802 -53.898  1.00  0.00    -0.021 A 
HETATM    7  C   UNL     1     -40.429  53.183 -52.555  1.00  0.00    -0.047 A 
HETATM    8  C   UNL     1     -40.133  51.533 -54.306  1.00  0.00     0.010 A 
HETATM    9  C   UNL     1     -40.844  54.609 -52.373  1.00  0.00     0.075 C 
HETATM   10  C   UNL     1     -39.956  52.309 -51.592  1.00  0.00     0.008 A 
HETATM   11  C   UNL     1     -39.578  51.027 -51.994  1.00  0.00     0.001 A 
HETATM   12  C   UNL     1     -39.667  50.641 -53.340  1.00  0.00     0.001 A 
BRANCH   5  13
HETATM   13  O   UNL     1     -39.936  54.616 -55.385  1.00  0.00    -0.389 OA
HETATM   14  H   UNL     1     -40.069  55.573 -55.223  1.00  0.00     0.210 HD
ENDBRANCH   5  13
ENDBRANCH   2   4
BRANCH   2  15
HETATM   15  C   UNL     1     -42.880  56.894 -54.637  1.00  0.00     0.271 C 
BRANCH  15  16
HETATM   16  C   UNL     1     -44.067  56.480 -53.731  1.00  0.00     0.177 C 
BRANCH  16  17
HETATM   17  O   UNL     1     -45.099  55.877 -54.511  1.00  0.00    -0.389 OA
HETATM   18  H   UNL     1     -45.880  55.771 -53.933  1.00  0.00     0.210 HD
ENDBRANCH  16  17
BRANCH  16  19
HETATM   19  C   UNL     1     -44.629  57.672 -52.987  1.00  0.00    -0.028 A 
HETATM   20  C   UNL     1     -44.810  57.612 -51.594  1.00  0.00     0.013 A 
HETATM   21  C   UNL     1     -45.316  58.713 -50.900  1.00  0.00     0.043 A 
HETATM   22  C   UNL     1     -45.639  59.874 -51.590  1.00  0.00     0.116 A 
HETATM   23  F   UNL     1     -46.122  60.927 -50.921  1.00  0.00    -0.206 F 
HETATM   24  C   UNL     1     -45.468  59.956 -52.966  1.00  0.00     0.043 A 
HETATM   25  C   UNL     1     -44.963  58.859 -53.666  1.00  0.00     0.013 A 
ENDBRANCH  16  19
ENDBRANCH  15  16
ENDBRANCH   2  15
TORSDOF 6
ENDMDL
MODEL 5
REMARK VINA RESULT:      -7.5      3.105      7.511
REMARK  6 active torsions:
REMARK  status: ('A' for Active; 'I' for Inactive)
REMARK    1  A    between atoms: N_2  and  C_4 
REMARK    2  A    between atoms: N_2  and  C_14 
REMARK    3  A    between atoms: C_5  and  O_6 
REMARK    4  A    between atoms: C_14  and  C_15 
REMARK    5  A    between atoms: C_15  and  O_16 
REMARK    6  A    between atoms: C_15  and  C_17 
ROOT
HETATM    1  C   UNL     1     -43.591  56.980 -53.388  1.00  0.00     0.270 C 
HETATM    2  N   UNL     1     -42.738  56.083 -54.245  1.00  0.00    -0.065 N 
HETATM    3  H   UNL     1     -43.224  55.178 -54.370  1.00  0.00     0.280 HD
ENDROOT
BRANCH   2   4
HETATM    4  C   UNL     1     -42.538  56.579 -55.687  1.00  0.00     0.225 C 
HETATM    5  C   UNL     1     -42.686  55.384 -56.689  1.00  0.00     0.183 C 
HETATM    6  C   UNL     1     -43.234  56.055 -57.905  1.00  0.00    -0.021 A 
HETATM    7  C   UNL     1     -43.759  57.310 -57.586  1.00  0.00    -0.047 A 
HETATM    8  C   UNL     1     -43.283  55.568 -59.202  1.00  0.00     0.010 A 
HETATM    9  C   UNL     1     -43.635  57.588 -56.120  1.00  0.00     0.075 C 
HETATM   10  C   UNL     1     -44.354  58.103 -58.551  1.00  0.00     0.008 A 
HETATM   11  C   UNL     1     -44.402  57.624 -59.861  1.00  0.00     0.001 A 
HETATM   12  C   UNL     1     -43.869  56.367 -60.185  1.00  0.00     0.001 A 
BRANCH   5  13
HETATM   13  O   UNL     1     -43.621  54.442 -56.149  1.00  0.00    -0.389 OA
HETATM   14  H   UNL     1     -43.860  54.760 -55.254  1.00  0.00     0.210 HD
ENDBRANCH   5  13
ENDBRANCH   2   4
BRANCH   2  15
HETATM   15  C   UNL     1     -41.394  55.754 -53.567  1.00  0.00     0.271 C 
BRANCH  15  16
HETATM   16  C   UNL     1     -41.543  54.729 -52.414  1.00  0.00     0.177 C 
BRANCH  16  17
HETATM   17  O   UNL     1     -40.958  55.242 -51.217  1.00  0.00    -0.389 OA
HETATM   18  H   UNL     1     -41.558  55.019 -50.478  1.00  0.00     0.210 HD
ENDBRANCH  16  17
BRANCH  16  19
HETATM   19  C   UNL     1     -40.892  53.409 -52.768  1.00  0.00    -0.028 A 
HETATM   20  C   UNL     1     -41.068  52.857 -54.048  1.00  0.00     0.013 A 
HETATM   21  C   UNL     1     -40.460  51.646 -54.385  1.00  0.00     0.043 A 
HETATM   22  C   UNL     1     -39.675  50.986 -53.449  1.00  0.00     0.116 A 
HETATM   23  F   UNL     1     -39.093  49.826 -53.775  1.00  0.00    -0.206 F 
HETATM   24  C   UNL     1     -39.486  51.512 -52.177  1.00  0.00     0.043 A 
HETATM   25  C   UNL     1     -40.092  52.723 -51.835  1.00  0.00     0.013 A 
ENDBRANCH  16  19
ENDBRANCH  15  16
ENDBRANCH   2  15
TORSDOF 6
ENDMDL
MODEL 6
REMARK VINA RESULT:      -7.4      4.144      6.573
REMARK  6 active torsions:
REMARK  status: ('A' for Active; 'I' for Inactive)
REMARK    1  A    between atoms: N_2  and  C_4 
REMARK    2  A    between atoms: N_2  and  C_14 
REMARK    3  A    between atoms: C_5  and  O_6 
REMARK    4  A    between atoms: C_14  and  C_15 
REMARK    5  A    between atoms: C_15  and  O_16 
REMARK    6  A    between atoms: C_15  and  C_17 
ROOT
HETATM    1  C   UNL     1     -42.726  55.960 -56.180  1.00  0.00     0.270 C 
HETATM    2  N   UNL     1     -42.249  56.296 -54.792  1.00  0.00    -0.065 N 
HETATM    3  H   UNL     1     -43.007  56.090 -54.118  1.00  0.00     0.280 HD
ENDROOT
BRANCH   2   4
HETATM    4  C   UNL     1     -41.083  55.428 -54.290  1.00  0.00     0.225 C 
HETATM    5  C   UNL     1     -41.305  55.055 -52.785  1.00  0.00     0.183 C 
HETATM    6  C   UNL     1     -40.645  53.719 -52.688  1.00  0.00    -0.021 A 
HETATM    7  C   UNL     1     -40.462  53.163 -53.958  1.00  0.00    -0.047 A 
HETATM    8  C   UNL     1     -40.256  53.037 -51.546  1.00  0.00     0.010 A 
HETATM    9  C   UNL     1     -41.006  54.063 -55.023  1.00  0.00     0.075 C 
HETATM   10  C   UNL     1     -39.899  51.909 -54.115  1.00  0.00     0.008 A 
HETATM   11  C   UNL     1     -39.498  51.218 -52.971  1.00  0.00     0.001 A 
HETATM   12  C   UNL     1     -39.674  51.777 -51.696  1.00  0.00     0.001 A 
BRANCH   5  13
HETATM   13  O   UNL     1     -42.712  54.958 -52.536  1.00  0.00    -0.389 OA
HETATM   14  H   UNL     1     -43.158  54.978 -53.408  1.00  0.00     0.210 HD
ENDBRANCH   5  13
ENDBRANCH   2   4
BRANCH   2  15
HETATM   15  C   UNL     1     -41.945  57.799 -54.641  1.00  0.00     0.271 C 
BRANCH  15  16
HETATM   16  C   UNL     1     -42.553  58.405 -53.351  1.00  0.00     0.177 C 
BRANCH  16  17
HETATM   17  O   UNL     1     -43.354  59.544 -53.668  1.00  0.00    -0.389 OA
HETATM   18  H   UNL     1     -42.750  60.304 -53.785  1.00  0.00     0.210 HD
ENDBRANCH  16  17
BRANCH  16  19
HETATM   19  C   UNL     1     -41.472  58.806 -52.371  1.00  0.00    -0.028 A 
HETATM   20  C   UNL     1     -40.122  58.779 -52.762  1.00  0.00     0.013 A 
HETATM   21  C   UNL     1     -39.120  59.160 -51.867  1.00  0.00     0.043 A 
HETATM   22  C   UNL     1     -39.461  59.570 -50.585  1.00  0.00     0.116 A 
HETATM   23  F   UNL     1     -38.498  59.935 -49.731  1.00  0.00    -0.206 F 
HETATM   24  C   UNL     1     -40.788  59.605 -50.177  1.00  0.00     0.043 A 
HETATM   25  C   UNL     1     -41.794  59.225 -51.067  1.00  0.00     0.013 A 
ENDBRANCH  16  19
ENDBRANCH  15  16
ENDBRANCH   2  15
TORSDOF 6
ENDMDL
MODEL 7
REMARK VINA RESULT:      -7.4      4.792      6.498
REMARK  6 active torsions:
REMARK  status: ('A' for Active; 'I' for Inactive)
REMARK    1  A    between atoms: N_2  and  C_4 
REMARK    2  A    between atoms: N_2  and  C_14 
REMARK    3  A    between atoms: C_5  and  O_6 
REMARK    4  A    between atoms: C_14  and  C_15 
REMARK    5  A    between atoms: C_15  and  O_16 
REMARK    6  A    between atoms: C_15  and  C_17 
ROOT
HETATM    1  C   UNL     1     -42.933  55.784 -53.797  1.00  0.00     0.270 C 
HETATM    2  N   UNL     1     -41.857  55.686 -52.748  1.00  0.00    -0.065 N 
HETATM    3  H   UNL     1     -42.285  55.382 -51.856  1.00  0.00     0.280 HD
ENDROOT
BRANCH   2   4
HETATM    4  C   UNL     1     -40.796  54.606 -53.019  1.00  0.00     0.225 C 
HETATM    5  C   UNL     1     -40.580  53.735 -51.735  1.00  0.00     0.183 C 
HETATM    6  C   UNL     1     -40.217  52.406 -52.310  1.00  0.00    -0.021 A 
HETATM    7  C   UNL     1     -40.584  52.331 -53.657  1.00  0.00    -0.047 A 
HETATM    8  C   UNL     1     -39.622  51.330 -51.670  1.00  0.00     0.010 A 
HETATM    9  C   UNL     1     -41.251  53.594 -54.105  1.00  0.00     0.075 C 
HETATM   10  C   UNL     1     -40.376  51.177 -54.391  1.00  0.00     0.008 A 
HETATM   11  C   UNL     1     -39.772  50.090 -53.756  1.00  0.00     0.001 A 
HETATM   12  C   UNL     1     -39.397  50.167 -52.406  1.00  0.00     0.001 A 
BRANCH   5  13
HETATM   13  O   UNL     1     -41.814  53.669 -51.010  1.00  0.00    -0.389 OA
HETATM   14  H   UNL     1     -41.651  53.113 -50.220  1.00  0.00     0.210 HD
ENDBRANCH   5  13
ENDBRANCH   2   4
BRANCH   2  15
HETATM   15  C   UNL     1     -41.212  57.056 -52.463  1.00  0.00     0.271 C 
BRANCH  15  16
HETATM   16  C   UNL     1     -41.496  57.563 -51.026  1.00  0.00     0.177 C 
BRANCH  16  17
HETATM   17  O   UNL     1     -42.151  56.549 -50.264  1.00  0.00    -0.389 OA
HETATM   18  H   UNL     1     -42.393  56.940 -49.401  1.00  0.00     0.210 HD
ENDBRANCH  16  17
BRANCH  16  19
HETATM   19  C   UNL     1     -42.352  58.811 -51.045  1.00  0.00    -0.028 A 
HETATM   20  C   UNL     1     -43.676  58.751 -51.514  1.00  0.00     0.013 A 
HETATM   21  C   UNL     1     -44.475  59.896 -51.523  1.00  0.00     0.043 A 
HETATM   22  C   UNL     1     -43.958  61.100 -51.063  1.00  0.00     0.116 A 
HETATM   23  F   UNL     1     -44.727  62.195 -51.071  1.00  0.00    -0.206 F 
HETATM   24  C   UNL     1     -42.653  61.183 -50.595  1.00  0.00     0.043 A 
HETATM   25  C   UNL     1     -41.849  60.042 -50.584  1.00  0.00     0.013 A 
ENDBRANCH  16  19
ENDBRANCH  15  16
ENDBRANCH   2  15
TORSDOF 6
ENDMDL
MODEL 8
REMARK VINA RESULT:      -7.2      3.576      7.796
REMARK  6 active torsions:
REMARK  status: ('A' for Active; 'I' for Inactive)
REMARK    1  A    between atoms: N_2  and  C_4 
REMARK    2  A    between atoms: N_2  and  C_14 
REMARK    3  A    between atoms: C_5  and  O_6 
REMARK    4  A    between atoms: C_14  and  C_15 
REMARK    5  A    between atoms: C_15  and  O_16 
REMARK    6  A    between atoms: C_15  and  C_17 
ROOT
HETATM    1  C   UNL     1     -43.981  55.942 -54.239  1.00  0.00     0.270 C 
HETATM    2  N   UNL     1     -43.311  55.360 -55.455  1.00  0.00    -0.065 N 
HETATM    3  H   UNL     1     -44.037  55.103 -56.147  1.00  0.00     0.280 HD
ENDROOT
BRANCH   2   4
HETATM    4  C   UNL     1     -42.420  56.347 -56.227  1.00  0.00     0.225 C 
HETATM    5  C   UNL     1     -42.847  56.387 -57.734  1.00  0.00     0.183 C 
HETATM    6  C   UNL     1     -42.519  57.791 -58.120  1.00  0.00    -0.021 A 
HETATM    7  C   UNL     1     -42.361  58.594 -56.987  1.00  0.00    -0.047 A 
HETATM    8  C   UNL     1     -42.393  58.321 -59.395  1.00  0.00     0.010 A 
HETATM    9  C   UNL     1     -42.594  57.808 -55.734  1.00  0.00     0.075 C 
HETATM   10  C   UNL     1     -42.086  59.945 -57.100  1.00  0.00     0.008 A 
HETATM   11  C   UNL     1     -41.951  60.486 -58.380  1.00  0.00     0.001 A 
HETATM   12  C   UNL     1     -42.103  59.680 -59.518  1.00  0.00     0.001 A 
BRANCH   5  13
HETATM   13  O   UNL     1     -44.255  56.139 -57.821  1.00  0.00    -0.389 OA
HETATM   14  H   UNL     1     -44.394  55.198 -57.587  1.00  0.00     0.210 HD
ENDBRANCH   5  13
ENDBRANCH   2   4
BRANCH   2  15
HETATM   15  C   UNL     1     -42.560  54.056 -55.124  1.00  0.00     0.271 C 
BRANCH  15  16
HETATM   16  C   UNL     1     -41.076  54.300 -54.750  1.00  0.00     0.177 C 
BRANCH  16  17
HETATM   17  O   UNL     1     -40.257  54.255 -55.919  1.00  0.00    -0.389 OA
HETATM   18  H   UNL     1     -40.470  53.429 -56.395  1.00  0.00     0.210 HD
ENDBRANCH  16  17
BRANCH  16  19
HETATM   19  C   UNL     1     -40.587  53.274 -53.751  1.00  0.00    -0.028 A 
HETATM   20  C   UNL     1     -40.183  52.001 -54.189  1.00  0.00     0.013 A 
HETATM   21  C   UNL     1     -39.719  51.054 -53.274  1.00  0.00     0.043 A 
HETATM   22  C   UNL     1     -39.655  51.374 -51.925  1.00  0.00     0.116 A 
HETATM   23  F   UNL     1     -39.208  50.464 -51.051  1.00  0.00    -0.206 F 
HETATM   24  C   UNL     1     -40.048  52.625 -51.468  1.00  0.00     0.043 A 
HETATM   25  C   UNL     1     -40.513  53.577 -52.379  1.00  0.00     0.013 A 
ENDBRANCH  16  19
ENDBRANCH  15  16
ENDBRANCH   2  15
TORSDOF 6
ENDMDL
MODEL 9
REMARK VINA RESULT:      -7.1      3.663      7.661
REMARK  6 active torsions:
REMARK  status: ('A' for Active; 'I' for Inactive)
REMARK    1  A    between atoms: N_2  and  C_4 
REMARK    2  A    between atoms: N_2  and  C_14 
REMARK    3  A    between atoms: C_5  and  O_6 
REMARK    4  A    between atoms: C_14  and  C_15 
REMARK    5  A    between atoms: C_15  and  O_16 
REMARK    6  A    between atoms: C_15  and  C_17 
ROOT
HETATM    1  C   UNL     1     -44.946  57.836 -55.009  1.00  0.00     0.270 C 
HETATM    2  N   UNL     1     -44.080  56.792 -55.662  1.00  0.00    -0.065 N 
HETATM    3  H   UNL     1     -44.667  56.215 -56.290  1.00  0.00     0.280 HD
ENDROOT
BRANCH   2   4
HETATM    4  C   UNL     1     -43.001  57.354 -56.603  1.00  0.00     0.225 C 
HETATM    5  C   UNL     1     -43.198  56.779 -58.047  1.00  0.00     0.183 C 
HETATM    6  C   UNL     1     -42.693  57.893 -58.903  1.00  0.00    -0.021 A 
HETATM    7  C   UNL     1     -42.631  59.087 -58.180  1.00  0.00    -0.047 A 
HETATM    8  C   UNL     1     -42.335  57.848 -60.242  1.00  0.00     0.010 A 
HETATM    9  C   UNL     1     -43.114  58.892 -56.777  1.00  0.00     0.075 C 
HETATM   10  C   UNL     1     -42.223  60.266 -58.779  1.00  0.00     0.008 A 
HETATM   11  C   UNL     1     -41.855  60.229 -60.125  1.00  0.00     0.001 A 
HETATM   12  C   UNL     1     -41.910  59.030 -60.851  1.00  0.00     0.001 A 
BRANCH   5  13
HETATM   13  O   UNL     1     -44.595  56.548 -58.264  1.00  0.00    -0.389 OA
HETATM   14  H   UNL     1     -45.077  57.033 -57.563  1.00  0.00     0.210 HD
ENDBRANCH   5  13
ENDBRANCH   2   4
BRANCH   2  15
HETATM   15  C   UNL     1     -43.481  55.818 -54.629  1.00  0.00     0.271 C 
BRANCH  15  16
HETATM   16  C   UNL     1     -42.723  54.639 -55.290  1.00  0.00     0.177 C 
BRANCH  16  17
HETATM   17  O   UNL     1     -43.647  53.708 -55.854  1.00  0.00    -0.389 OA
HETATM   18  H   UNL     1     -43.130  52.957 -56.205  1.00  0.00     0.210 HD
ENDBRANCH  16  17
BRANCH  16  19
HETATM   19  C   UNL     1     -41.839  53.927 -54.288  1.00  0.00    -0.028 A 
HETATM   20  C   UNL     1     -41.994  54.171 -52.913  1.00  0.00     0.013 A 
HETATM   21  C   UNL     1     -41.191  53.508 -51.983  1.00  0.00     0.043 A 
HETATM   22  C   UNL     1     -40.235  52.602 -52.421  1.00  0.00     0.116 A 
HETATM   23  F   UNL     1     -39.467  51.968 -51.526  1.00  0.00    -0.206 F 
HETATM   24  C   UNL     1     -40.063  52.345 -53.775  1.00  0.00     0.043 A 
HETATM   25  C   UNL     1     -40.863  53.004 -54.710  1.00  0.00     0.013 A 
ENDBRANCH  16  19
ENDBRANCH  15  16
ENDBRANCH   2  15
TORSDOF 6
ENDMDL
MODEL 10
REMARK VINA RESULT:      -7.1     15.032     17.592
REMARK  6 active torsions:
REMARK  status: ('A' for Active; 'I' for Inactive)
REMARK    1  A    between atoms: N_2  and  C_4 
REMARK    2  A    between atoms: N_2  and  C_14 
REMARK    3  A    between atoms: C_5  and  O_6 
REMARK    4  A    between atoms: C_14  and  C_15 
REMARK    5  A    between atoms: C_15  and  O_16 
REMARK    6  A    between atoms: C_15  and  C_17 
ROOT
HETATM    1  C   UNL     1     -35.929  38.933 -54.136  1.00  0.00     0.270 C 
HETATM    2  N   UNL     1     -36.385  40.348 -54.376  1.00  0.00    -0.065 N 
HETATM    3  H   UNL     1     -35.555  40.944 -54.540  1.00  0.00     0.280 HD
ENDROOT
BRANCH   2   4
HETATM    4  C   UNL     1     -37.219  40.542 -55.653  1.00  0.00     0.225 C 
HETATM    5  C   UNL     1     -36.773  41.851 -56.389  1.00  0.00     0.183 C 
HETATM    6  C   UNL     1     -37.029  41.513 -57.821  1.00  0.00    -0.021 A 
HETATM    7  C   UNL     1     -37.162  40.132 -57.989  1.00  0.00    -0.047 A 
HETATM    8  C   UNL     1     -37.114  42.377 -58.902  1.00  0.00     0.010 A 
HETATM    9  C   UNL     1     -36.982  39.412 -56.690  1.00  0.00     0.075 C 
HETATM   10  C   UNL     1     -37.372  39.581 -59.241  1.00  0.00     0.008 A 
HETATM   11  C   UNL     1     -37.466  40.444 -60.334  1.00  0.00     0.001 A 
HETATM   12  C   UNL     1     -37.339  41.831 -60.166  1.00  0.00     0.001 A 
BRANCH   5  13
HETATM   13  O   UNL     1     -35.377  42.062 -56.147  1.00  0.00    -0.389 OA
HETATM   14  H   UNL     1     -35.197  41.764 -55.232  1.00  0.00     0.210 HD
ENDBRANCH   5  13
ENDBRANCH   2   4
BRANCH   2  15
HETATM   15  C   UNL     1     -37.092  40.937 -53.141  1.00  0.00     0.271 C 
BRANCH  15  16
HETATM   16  C   UNL     1     -36.171  41.870 -52.314  1.00  0.00     0.177 C 
BRANCH  16  17
HETATM   17  O   UNL     1     -35.363  42.665 -53.182  1.00  0.00    -0.389 OA
HETATM   18  H   UNL     1     -35.408  42.265 -54.073  1.00  0.00     0.210 HD
ENDBRANCH  16  17
BRANCH  16  19
HETATM   19  C   UNL     1     -35.281  41.075 -51.383  1.00  0.00    -0.028 A 
HETATM   20  C   UNL     1     -35.827  40.057 -50.583  1.00  0.00     0.013 A 
HETATM   21  C   UNL     1     -35.009  39.312 -49.732  1.00  0.00     0.043 A 
HETATM   22  C   UNL     1     -33.648  39.578 -49.678  1.00  0.00     0.116 A 
HETATM   23  F   UNL     1     -32.866  38.860 -48.862  1.00  0.00    -0.206 F 
HETATM   24  C   UNL     1     -33.085  40.579 -50.459  1.00  0.00     0.043 A 
HETATM   25  C   UNL     1     -33.898  41.328 -51.313  1.00  0.00     0.013 A 
ENDBRANCH  16  19
ENDBRANCH  15  16
ENDBRANCH   2  15
TORSDOF 6
ENDMDL
