MODEL 1
REMARK VINA RESULT:      -8.1      0.000      0.000
REMARK  8 active torsions:
REMARK  status: ('A' for Active; 'I' for Inactive)
REMARK    1  A    between atoms: C_4  and  C_5 
REMARK    2  A    between atoms: C_5  and  N_6 
REMARK       I    between atoms: N_6  and  C_7 
REMARK    3  A    between atoms: C_7  and  C_8 
REMARK    4  A    between atoms: C_11  and  C_12 
REMARK    5  A    between atoms: C_12  and  O_13 
REMARK    6  A    between atoms: O_13  and  C_14 
REMARK    7  A    between atoms: C_25  and  C_26 
REMARK    8  A    between atoms: C_26  and  O_27 
ROOT
HETATM    1  N   UNL     1     -43.039  57.629 -54.904  1.00  0.00    -0.351 N 
HETATM    2  C   UNL     1     -43.655  57.268 -53.731  1.00  0.00     0.251 C 
HETATM    3  O   UNL     1     -44.689  57.797 -53.334  1.00  0.00    -0.268 OA
HETATM    4  H   UNL     1     -42.113  57.302 -55.152  1.00  0.00     0.163 HD
ENDROOT
BRANCH   2   5
HETATM    5  C   UNL     1     -42.982  56.220 -52.916  1.00  0.00     0.032 A 
HETATM    6  C   UNL     1     -41.864  56.589 -52.160  1.00  0.00     0.017 A 
HETATM    7  C   UNL     1     -41.180  55.637 -51.399  1.00  0.00     0.010 A 
HETATM    8  C   UNL     1     -41.605  54.301 -51.385  1.00  0.00    -0.034 A 
HETATM    9  C   UNL     1     -42.752  53.946 -52.109  1.00  0.00     0.010 A 
HETATM   10  C   UNL     1     -43.436  54.897 -52.873  1.00  0.00     0.017 A 
BRANCH   8  11
HETATM   11  C   UNL     1     -40.855  53.271 -50.576  1.00  0.00     0.214 C 
BRANCH  11  12
HETATM   12  O   UNL     1     -39.654  52.938 -51.265  1.00  0.00    -0.347 OA
BRANCH  12  13
HETATM   13  C   UNL     1     -39.687  51.828 -52.065  1.00  0.00     0.069 A 
HETATM   14  C   UNL     1     -39.535  50.506 -51.645  1.00  0.00     0.037 A 
HETATM   15  C   UNL     1     -39.592  49.462 -52.574  1.00  0.00     0.003 A 
HETATM   16  C   UNL     1     -39.802  49.735 -53.925  1.00  0.00     0.000 A 
HETATM   17  C   UNL     1     -39.954  51.053 -54.350  1.00  0.00     0.003 A 
HETATM   18  C   UNL     1     -39.896  52.094 -53.422  1.00  0.00     0.037 A 
ENDBRANCH  12  13
ENDBRANCH  11  12
ENDBRANCH   8  11
ENDBRANCH   2   5
BRANCH   1  19
HETATM   19  C   UNL     1     -43.546  58.714 -55.714  1.00  0.00     0.182 C 
BRANCH  19  20
HETATM   20  C   UNL     1     -44.341  58.216 -56.902  1.00  0.00     0.052 A 
HETATM   21  N   UNL     1     -43.712  57.411 -57.803  1.00  0.00    -0.256 NA
HETATM   22  C   UNL     1     -44.415  56.967 -58.879  1.00  0.00     0.040 A 
HETATM   23  C   UNL     1     -43.648  56.083 -59.820  1.00  0.00     0.071 C 
HETATM   24  C   UNL     1     -45.758  57.299 -59.094  1.00  0.00    -0.006 A 
HETATM   25  C   UNL     1     -46.374  58.136 -58.151  1.00  0.00     0.014 A 
HETATM   26  C   UNL     1     -45.666  58.598 -57.048  1.00  0.00     0.029 A 
BRANCH  24  27
HETATM   27  C   UNL     1     -46.543  56.815 -60.293  1.00  0.00     0.149 C 
HETATM   28  C   UNL     1     -47.373  57.926 -60.925  1.00  0.00     0.044 C 
BRANCH  27  29
HETATM   29  O   UNL     1     -47.421  55.755 -59.912  1.00  0.00    -0.391 OA
HETATM   30  H   UNL     1     -48.328  56.042 -60.120  1.00  0.00     0.210 HD
ENDBRANCH  27  29
ENDBRANCH  24  27
ENDBRANCH  19  20
ENDBRANCH   1  19
TORSDOF 8
ENDMDL
MODEL 2
REMARK VINA RESULT:      -8.1      1.424      1.871
REMARK  8 active torsions:
REMARK  status: ('A' for Active; 'I' for Inactive)
REMARK    1  A    between atoms: C_4  and  C_5 
REMARK    2  A    between atoms: C_5  and  N_6 
REMARK       I    between atoms: N_6  and  C_7 
REMARK    3  A    between atoms: C_7  and  C_8 
REMARK    4  A    between atoms: C_11  and  C_12 
REMARK    5  A    between atoms: C_12  and  O_13 
REMARK    6  A    between atoms: O_13  and  C_14 
REMARK    7  A    between atoms: C_25  and  C_26 
REMARK    8  A    between atoms: C_26  and  O_27 
ROOT
HETATM    1  N   UNL     1     -44.424  56.944 -53.824  1.00  0.00    -0.351 N 
HETATM    2  C   UNL     1     -43.618  57.296 -52.770  1.00  0.00     0.251 C 
HETATM    3  O   UNL     1     -43.450  58.461 -52.423  1.00  0.00    -0.268 OA
HETATM    4  H   UNL     1     -44.441  56.004 -54.203  1.00  0.00     0.163 HD
ENDROOT
BRANCH   2   5
HETATM    5  C   UNL     1     -42.902  56.190 -52.076  1.00  0.00     0.032 A 
HETATM    6  C   UNL     1     -41.688  56.484 -51.445  1.00  0.00     0.017 A 
HETATM    7  C   UNL     1     -40.964  55.475 -50.803  1.00  0.00     0.010 A 
HETATM    8  C   UNL     1     -41.444  54.159 -50.785  1.00  0.00    -0.034 A 
HETATM    9  C   UNL     1     -42.682  53.879 -51.381  1.00  0.00     0.010 A 
HETATM   10  C   UNL     1     -43.407  54.886 -52.025  1.00  0.00     0.017 A 
BRANCH   8  11
HETATM   11  C   UNL     1     -40.652  53.068 -50.106  1.00  0.00     0.214 C 
BRANCH  11  12
HETATM   12  O   UNL     1     -39.505  52.779 -50.898  1.00  0.00    -0.347 OA
BRANCH  12  13
HETATM   13  C   UNL     1     -39.619  51.756 -51.801  1.00  0.00     0.069 A 
HETATM   14  C   UNL     1     -39.504  50.394 -51.520  1.00  0.00     0.037 A 
HETATM   15  C   UNL     1     -39.644  49.451 -52.544  1.00  0.00     0.003 A 
HETATM   16  C   UNL     1     -39.900  49.864 -53.850  1.00  0.00     0.000 A 
HETATM   17  C   UNL     1     -40.015  51.223 -54.136  1.00  0.00     0.003 A 
HETATM   18  C   UNL     1     -39.874  52.163 -53.114  1.00  0.00     0.037 A 
ENDBRANCH  12  13
ENDBRANCH  11  12
ENDBRANCH   8  11
ENDBRANCH   2   5
BRANCH   1  19
HETATM   19  C   UNL     1     -45.074  57.947 -54.638  1.00  0.00     0.182 C 
BRANCH  19  20
HETATM   20  C   UNL     1     -44.851  57.714 -56.117  1.00  0.00     0.052 A 
HETATM   21  N   UNL     1     -45.809  58.139 -56.986  1.00  0.00    -0.256 NA
HETATM   22  C   UNL     1     -45.621  57.925 -58.315  1.00  0.00     0.040 A 
HETATM   23  C   UNL     1     -46.723  58.428 -59.203  1.00  0.00     0.071 C 
HETATM   24  C   UNL     1     -44.482  57.290 -58.826  1.00  0.00    -0.006 A 
HETATM   25  C   UNL     1     -43.518  56.856 -57.903  1.00  0.00     0.014 A 
HETATM   26  C   UNL     1     -43.699  57.069 -56.541  1.00  0.00     0.029 A 
BRANCH  24  27
HETATM   27  C   UNL     1     -44.272  57.041 -60.303  1.00  0.00     0.149 C 
HETATM   28  C   UNL     1     -44.813  55.685 -60.742  1.00  0.00     0.044 C 
BRANCH  27  29
HETATM   29  O   UNL     1     -42.880  57.095 -60.618  1.00  0.00    -0.391 OA
HETATM   30  H   UNL     1     -42.804  57.138 -61.588  1.00  0.00     0.210 HD
ENDBRANCH  27  29
ENDBRANCH  24  27
ENDBRANCH  19  20
ENDBRANCH   1  19
TORSDOF 8
ENDMDL
MODEL 3
REMARK VINA RESULT:      -8.1      5.154      7.906
REMARK  8 active torsions:
REMARK  status: ('A' for Active; 'I' for Inactive)
REMARK    1  A    between atoms: C_4  and  C_5 
REMARK    2  A    between atoms: C_5  and  N_6 
REMARK       I    between atoms: N_6  and  C_7 
REMARK    3  A    between atoms: C_7  and  C_8 
REMARK    4  A    between atoms: C_11  and  C_12 
REMARK    5  A    between atoms: C_12  and  O_13 
REMARK    6  A    between atoms: O_13  and  C_14 
REMARK    7  A    between atoms: C_25  and  C_26 
REMARK    8  A    between atoms: C_26  and  O_27 
ROOT
HETATM    1  N   UNL     1     -44.069  58.743 -50.577  1.00  0.00    -0.351 N 
HETATM    2  C   UNL     1     -44.025  57.727 -51.500  1.00  0.00     0.251 C 
HETATM    3  O   UNL     1     -44.670  57.749 -52.544  1.00  0.00    -0.268 OA
HETATM    4  H   UNL     1     -43.660  58.655 -49.654  1.00  0.00     0.163 HD
ENDROOT
BRANCH   2   5
HETATM    5  C   UNL     1     -43.182  56.548 -51.157  1.00  0.00     0.032 A 
HETATM    6  C   UNL     1     -41.916  56.779 -50.609  1.00  0.00     0.017 A 
HETATM    7  C   UNL     1     -41.076  55.706 -50.295  1.00  0.00     0.010 A 
HETATM    8  C   UNL     1     -41.492  54.388 -50.526  1.00  0.00    -0.034 A 
HETATM    9  C   UNL     1     -42.779  54.161 -51.034  1.00  0.00     0.010 A 
HETATM   10  C   UNL     1     -43.620  55.232 -51.350  1.00  0.00     0.017 A 
BRANCH   8  11
HETATM   11  C   UNL     1     -40.576  53.232 -50.202  1.00  0.00     0.214 C 
BRANCH  11  12
HETATM   12  O   UNL     1     -39.585  53.138 -51.220  1.00  0.00    -0.347 OA
BRANCH  12  13
HETATM   13  C   UNL     1     -39.752  52.153 -52.156  1.00  0.00     0.069 A 
HETATM   14  C   UNL     1     -40.152  52.335 -53.480  1.00  0.00     0.037 A 
HETATM   15  C   UNL     1     -40.283  51.235 -54.333  1.00  0.00     0.003 A 
HETATM   16  C   UNL     1     -40.013  49.949 -53.867  1.00  0.00     0.000 A 
HETATM   17  C   UNL     1     -39.614  49.761 -52.546  1.00  0.00     0.003 A 
HETATM   18  C   UNL     1     -39.485  50.860 -51.695  1.00  0.00     0.037 A 
ENDBRANCH  12  13
ENDBRANCH  11  12
ENDBRANCH   8  11
ENDBRANCH   2   5
BRANCH   1  19
HETATM   19  C   UNL     1     -44.944  59.880 -50.757  1.00  0.00     0.182 C 
BRANCH  19  20
HETATM   20  C   UNL     1     -45.145  60.654 -49.472  1.00  0.00     0.052 A 
HETATM   21  N   UNL     1     -45.708  60.007 -48.414  1.00  0.00    -0.256 NA
HETATM   22  C   UNL     1     -45.901  60.697 -47.258  1.00  0.00     0.040 A 
HETATM   23  C   UNL     1     -46.523  59.909 -46.142  1.00  0.00     0.071 C 
HETATM   24  C   UNL     1     -45.540  62.042 -47.111  1.00  0.00    -0.006 A 
HETATM   25  C   UNL     1     -44.969  62.681 -48.223  1.00  0.00     0.014 A 
HETATM   26  C   UNL     1     -44.768  61.987 -49.410  1.00  0.00     0.029 A 
BRANCH  24  27
HETATM   27  C   UNL     1     -45.760  62.817 -45.831  1.00  0.00     0.149 C 
HETATM   28  C   UNL     1     -47.146  63.449 -45.771  1.00  0.00     0.044 C 
BRANCH  27  29
HETATM   29  O   UNL     1     -44.785  63.855 -45.710  1.00  0.00    -0.391 OA
HETATM   30  H   UNL     1     -44.959  64.319 -44.872  1.00  0.00     0.210 HD
ENDBRANCH  27  29
ENDBRANCH  24  27
ENDBRANCH  19  20
ENDBRANCH   1  19
TORSDOF 8
ENDMDL
MODEL 4
REMARK VINA RESULT:      -8.0      4.754      7.180
REMARK  8 active torsions:
REMARK  status: ('A' for Active; 'I' for Inactive)
REMARK    1  A    between atoms: C_4  and  C_5 
REMARK    2  A    between atoms: C_5  and  N_6 
REMARK       I    between atoms: N_6  and  C_7 
REMARK    3  A    between atoms: C_7  and  C_8 
REMARK    4  A    between atoms: C_11  and  C_12 
REMARK    5  A    between atoms: C_12  and  O_13 
REMARK    6  A    between atoms: O_13  and  C_14 
REMARK    7  A    between atoms: C_25  and  C_26 
REMARK    8  A    between atoms: C_26  and  O_27 
ROOT
HETATM    1  N   UNL     1     -44.677  58.026 -50.650  1.00  0.00    -0.351 N 
HETATM    2  C   UNL     1     -44.022  57.393 -51.677  1.00  0.00     0.251 C 
HETATM    3  O   UNL     1     -44.214  57.667 -52.858  1.00  0.00    -0.268 OA
HETATM    4  H   UNL     1     -44.631  57.696 -49.693  1.00  0.00     0.163 HD
ENDROOT
BRANCH   2   5
HETATM    5  C   UNL     1     -43.081  56.302 -51.299  1.00  0.00     0.032 A 
HETATM    6  C   UNL     1     -43.472  54.980 -51.539  1.00  0.00     0.017 A 
HETATM    7  C   UNL     1     -42.637  53.920 -51.177  1.00  0.00     0.010 A 
HETATM    8  C   UNL     1     -41.398  54.168 -50.570  1.00  0.00    -0.034 A 
HETATM    9  C   UNL     1     -40.991  55.495 -50.373  1.00  0.00     0.010 A 
HETATM   10  C   UNL     1     -41.827  56.557 -50.732  1.00  0.00     0.017 A 
BRANCH   8  11
HETATM   11  C   UNL     1     -40.505  53.020 -50.165  1.00  0.00     0.214 C 
BRANCH  11  12
HETATM   12  O   UNL     1     -39.471  52.884 -51.135  1.00  0.00    -0.347 OA
BRANCH  12  13
HETATM   13  C   UNL     1     -39.670  51.962 -52.127  1.00  0.00     0.069 A 
HETATM   14  C   UNL     1     -40.046  52.238 -53.443  1.00  0.00     0.037 A 
HETATM   15  C   UNL     1     -40.215  51.194 -54.358  1.00  0.00     0.003 A 
HETATM   16  C   UNL     1     -40.009  49.873 -53.964  1.00  0.00     0.000 A 
HETATM   17  C   UNL     1     -39.635  49.593 -52.652  1.00  0.00     0.003 A 
HETATM   18  C   UNL     1     -39.467  50.635 -51.738  1.00  0.00     0.037 A 
ENDBRANCH  12  13
ENDBRANCH  11  12
ENDBRANCH   8  11
ENDBRANCH   2   5
BRANCH   1  19
HETATM   19  C   UNL     1     -45.695  59.019 -50.912  1.00  0.00     0.182 C 
BRANCH  19  20
HETATM   20  C   UNL     1     -45.320  60.378 -50.360  1.00  0.00     0.052 A 
HETATM   21  N   UNL     1     -46.325  61.228 -50.010  1.00  0.00    -0.256 NA
HETATM   22  C   UNL     1     -45.997  62.455 -49.523  1.00  0.00     0.040 A 
HETATM   23  C   UNL     1     -47.163  63.328 -49.159  1.00  0.00     0.071 C 
HETATM   24  C   UNL     1     -44.671  62.875 -49.362  1.00  0.00    -0.006 A 
HETATM   25  C   UNL     1     -43.660  61.978 -49.741  1.00  0.00     0.014 A 
HETATM   26  C   UNL     1     -43.982  60.722 -50.241  1.00  0.00     0.029 A 
BRANCH  24  27
HETATM   27  C   UNL     1     -44.300  64.242 -48.830  1.00  0.00     0.149 C 
HETATM   28  C   UNL     1     -42.908  64.674 -49.272  1.00  0.00     0.044 C 
BRANCH  27  29
HETATM   29  O   UNL     1     -44.342  64.242 -47.402  1.00  0.00    -0.391 OA
HETATM   30  H   UNL     1     -45.145  64.723 -47.136  1.00  0.00     0.210 HD
ENDBRANCH  27  29
ENDBRANCH  24  27
ENDBRANCH  19  20
ENDBRANCH   1  19
TORSDOF 8
ENDMDL
MODEL 5
REMARK VINA RESULT:      -7.9      2.272      2.857
REMARK  8 active torsions:
REMARK  status: ('A' for Active; 'I' for Inactive)
REMARK    1  A    between atoms: C_4  and  C_5 
REMARK    2  A    between atoms: C_5  and  N_6 
REMARK       I    between atoms: N_6  and  C_7 
REMARK    3  A    between atoms: C_7  and  C_8 
REMARK    4  A    between atoms: C_11  and  C_12 
REMARK    5  A    between atoms: C_12  and  O_13 
REMARK    6  A    between atoms: O_13  and  C_14 
REMARK    7  A    between atoms: C_25  and  C_26 
REMARK    8  A    between atoms: C_26  and  O_27 
ROOT
HETATM    1  N   UNL     1     -42.250  58.125 -53.877  1.00  0.00    -0.351 N 
HETATM    2  C   UNL     1     -43.144  57.411 -53.117  1.00  0.00     0.251 C 
HETATM    3  O   UNL     1     -44.325  57.725 -53.010  1.00  0.00    -0.268 OA
HETATM    4  H   UNL     1     -41.252  57.955 -53.841  1.00  0.00     0.163 HD
ENDROOT
BRANCH   2   5
HETATM    5  C   UNL     1     -42.603  56.241 -52.371  1.00  0.00     0.032 A 
HETATM    6  C   UNL     1     -41.412  56.406 -51.656  1.00  0.00     0.017 A 
HETATM    7  C   UNL     1     -40.849  55.332 -50.963  1.00  0.00     0.010 A 
HETATM    8  C   UNL     1     -41.471  54.076 -50.975  1.00  0.00    -0.034 A 
HETATM    9  C   UNL     1     -42.687  53.926 -51.656  1.00  0.00     0.010 A 
HETATM   10  C   UNL     1     -43.251  55.000 -52.353  1.00  0.00     0.017 A 
BRANCH   8  11
HETATM   11  C   UNL     1     -40.852  52.912 -50.238  1.00  0.00     0.214 C 
BRANCH  11  12
HETATM   12  O   UNL     1     -39.623  52.574 -50.873  1.00  0.00    -0.347 OA
BRANCH  12  13
HETATM   13  C   UNL     1     -39.694  51.728 -51.947  1.00  0.00     0.069 A 
HETATM   14  C   UNL     1     -39.901  52.101 -53.276  1.00  0.00     0.037 A 
HETATM   15  C   UNL     1     -39.951  51.128 -54.279  1.00  0.00     0.003 A 
HETATM   16  C   UNL     1     -39.794  49.780 -53.959  1.00  0.00     0.000 A 
HETATM   17  C   UNL     1     -39.589  49.403 -52.634  1.00  0.00     0.003 A 
HETATM   18  C   UNL     1     -39.539  50.374 -51.634  1.00  0.00     0.037 A 
ENDBRANCH  12  13
ENDBRANCH  11  12
ENDBRANCH   8  11
ENDBRANCH   2   5
BRANCH   1  19
HETATM   19  C   UNL     1     -42.644  59.343 -54.548  1.00  0.00     0.182 C 
BRANCH  19  20
HETATM   20  C   UNL     1     -42.449  59.256 -56.047  1.00  0.00     0.052 A 
HETATM   21  N   UNL     1     -41.820  60.288 -56.674  1.00  0.00    -0.256 NA
HETATM   22  C   UNL     1     -41.649  60.223 -58.021  1.00  0.00     0.040 A 
HETATM   23  C   UNL     1     -40.943  61.400 -58.632  1.00  0.00     0.071 C 
HETATM   24  C   UNL     1     -42.089  59.137 -58.788  1.00  0.00    -0.006 A 
HETATM   25  C   UNL     1     -42.741  58.094 -58.112  1.00  0.00     0.014 A 
HETATM   26  C   UNL     1     -42.923  58.149 -56.735  1.00  0.00     0.029 A 
BRANCH  24  27
HETATM   27  C   UNL     1     -41.910  59.062 -60.288  1.00  0.00     0.149 C 
HETATM   28  C   UNL     1     -43.130  59.580 -61.040  1.00  0.00     0.044 C 
BRANCH  27  29
HETATM   29  O   UNL     1     -41.671  57.712 -60.689  1.00  0.00    -0.391 OA
HETATM   30  H   UNL     1     -41.537  57.189 -59.878  1.00  0.00     0.210 HD
ENDBRANCH  27  29
ENDBRANCH  24  27
ENDBRANCH  19  20
ENDBRANCH   1  19
TORSDOF 8
ENDMDL
MODEL 6
REMARK VINA RESULT:      -7.8      3.748      4.712
REMARK  8 active torsions:
REMARK  status: ('A' for Active; 'I' for Inactive)
REMARK    1  A    between atoms: C_4  and  C_5 
REMARK    2  A    between atoms: C_5  and  N_6 
REMARK       I    between atoms: N_6  and  C_7 
REMARK    3  A    between atoms: C_7  and  C_8 
REMARK    4  A    between atoms: C_11  and  C_12 
REMARK    5  A    between atoms: C_12  and  O_13 
REMARK    6  A    between atoms: O_13  and  C_14 
REMARK    7  A    between atoms: C_25  and  C_26 
REMARK    8  A    between atoms: C_26  and  O_27 
ROOT
HETATM    1  N   UNL     1     -42.171  57.067 -57.999  1.00  0.00    -0.351 N 
HETATM    2  C   UNL     1     -42.849  55.968 -57.530  1.00  0.00     0.251 C 
HETATM    3  O   UNL     1     -43.762  55.435 -58.153  1.00  0.00    -0.268 OA
HETATM    4  H   UNL     1     -41.528  57.594 -57.421  1.00  0.00     0.163 HD
ENDROOT
BRANCH   2   5
HETATM    5  C   UNL     1     -42.458  55.466 -56.184  1.00  0.00     0.032 A 
HETATM    6  C   UNL     1     -43.022  54.265 -55.738  1.00  0.00     0.017 A 
HETATM    7  C   UNL     1     -42.709  53.765 -54.471  1.00  0.00     0.010 A 
HETATM    8  C   UNL     1     -41.826  54.460 -53.633  1.00  0.00    -0.034 A 
HETATM    9  C   UNL     1     -41.230  55.639 -54.102  1.00  0.00     0.010 A 
HETATM   10  C   UNL     1     -41.544  56.142 -55.368  1.00  0.00     0.017 A 
BRANCH   8  11
HETATM   11  C   UNL     1     -41.502  53.926 -52.259  1.00  0.00     0.214 C 
BRANCH  11  12
HETATM   12  O   UNL     1     -40.149  53.483 -52.250  1.00  0.00    -0.347 OA
BRANCH  12  13
HETATM   13  C   UNL     1     -39.941  52.130 -52.278  1.00  0.00     0.069 A 
HETATM   14  C   UNL     1     -39.810  51.295 -51.168  1.00  0.00     0.037 A 
HETATM   15  C   UNL     1     -39.599  49.923 -51.341  1.00  0.00     0.003 A 
HETATM   16  C   UNL     1     -39.520  49.381 -52.623  1.00  0.00     0.000 A 
HETATM   17  C   UNL     1     -39.649  50.211 -53.734  1.00  0.00     0.003 A 
HETATM   18  C   UNL     1     -39.858  51.579 -53.560  1.00  0.00     0.037 A 
ENDBRANCH  12  13
ENDBRANCH  11  12
ENDBRANCH   8  11
ENDBRANCH   2   5
BRANCH   1  19
HETATM   19  C   UNL     1     -42.548  57.704 -59.241  1.00  0.00     0.182 C 
BRANCH  19  20
HETATM   20  C   UNL     1     -42.096  59.148 -59.300  1.00  0.00     0.052 A 
HETATM   21  N   UNL     1     -42.089  59.770 -60.512  1.00  0.00    -0.256 NA
HETATM   22  C   UNL     1     -41.674  61.063 -60.576  1.00  0.00     0.040 A 
HETATM   23  C   UNL     1     -41.701  61.673 -61.948  1.00  0.00     0.071 C 
HETATM   24  C   UNL     1     -41.261  61.782 -59.448  1.00  0.00    -0.006 A 
HETATM   25  C   UNL     1     -41.273  61.109 -58.216  1.00  0.00     0.014 A 
HETATM   26  C   UNL     1     -41.693  59.787 -58.137  1.00  0.00     0.029 A 
BRANCH  24  27
HETATM   27  C   UNL     1     -40.791  63.218 -59.514  1.00  0.00     0.149 C 
HETATM   28  C   UNL     1     -39.277  63.323 -59.653  1.00  0.00     0.044 C 
BRANCH  27  29
HETATM   29  O   UNL     1     -41.186  63.920 -58.334  1.00  0.00    -0.391 OA
HETATM   30  H   UNL     1     -40.455  63.847 -57.695  1.00  0.00     0.210 HD
ENDBRANCH  27  29
ENDBRANCH  24  27
ENDBRANCH  19  20
ENDBRANCH   1  19
TORSDOF 8
ENDMDL
MODEL 7
REMARK VINA RESULT:      -7.5     15.331     18.012
REMARK  8 active torsions:
REMARK  status: ('A' for Active; 'I' for Inactive)
REMARK    1  A    between atoms: C_4  and  C_5 
REMARK    2  A    between atoms: C_5  and  N_6 
REMARK       I    between atoms: N_6  and  C_7 
REMARK    3  A    between atoms: C_7  and  C_8 
REMARK    4  A    between atoms: C_11  and  C_12 
REMARK    5  A    between atoms: C_12  and  O_13 
REMARK    6  A    between atoms: O_13  and  C_14 
REMARK    7  A    between atoms: C_25  and  C_26 
REMARK    8  A    between atoms: C_26  and  O_27 
ROOT
HETATM    1  N   UNL     1     -34.535  41.672 -54.180  1.00  0.00    -0.351 N 
HETATM    2  C   UNL     1     -35.005  41.672 -52.889  1.00  0.00     0.251 C 
HETATM    3  O   UNL     1     -36.022  42.270 -52.552  1.00  0.00    -0.268 OA
HETATM    4  H   UNL     1     -33.621  41.308 -54.424  1.00  0.00     0.163 HD
ENDROOT
BRANCH   2   5
HETATM    5  C   UNL     1     -34.190  40.939 -51.881  1.00  0.00     0.032 A 
HETATM    6  C   UNL     1     -34.855  40.323 -50.815  1.00  0.00     0.017 A 
HETATM    7  C   UNL     1     -34.134  39.647 -49.828  1.00  0.00     0.010 A 
HETATM    8  C   UNL     1     -32.735  39.578 -49.893  1.00  0.00    -0.034 A 
HETATM    9  C   UNL     1     -32.076  40.159 -50.986  1.00  0.00     0.010 A 
HETATM   10  C   UNL     1     -32.797  40.838 -51.974  1.00  0.00     0.017 A 
BRANCH   8  11
HETATM   11  C   UNL     1     -31.957  38.861 -48.816  1.00  0.00     0.214 C 
BRANCH  11  12
HETATM   12  O   UNL     1     -30.914  39.718 -48.362  1.00  0.00    -0.347 OA
BRANCH  12  13
HETATM   13  C   UNL     1     -30.733  39.807 -47.008  1.00  0.00     0.069 A 
HETATM   14  C   UNL     1     -29.974  40.770 -46.341  1.00  0.00     0.037 A 
HETATM   15  C   UNL     1     -29.874  40.744 -44.946  1.00  0.00     0.003 A 
HETATM   16  C   UNL     1     -30.531  39.757 -44.213  1.00  0.00     0.000 A 
HETATM   17  C   UNL     1     -31.289  38.793 -44.874  1.00  0.00     0.003 A 
HETATM   18  C   UNL     1     -31.388  38.819 -46.266  1.00  0.00     0.037 A 
ENDBRANCH  12  13
ENDBRANCH  11  12
ENDBRANCH   8  11
ENDBRANCH   2   5
BRANCH   1  19
HETATM   19  C   UNL     1     -35.186  42.446 -55.213  1.00  0.00     0.182 C 
BRANCH  19  20
HETATM   20  C   UNL     1     -35.549  41.600 -56.415  1.00  0.00     0.052 A 
HETATM   21  N   UNL     1     -36.211  42.198 -57.444  1.00  0.00    -0.256 NA
HETATM   22  C   UNL     1     -36.550  41.443 -58.523  1.00  0.00     0.040 A 
HETATM   23  C   UNL     1     -37.274  42.180 -59.613  1.00  0.00     0.071 C 
HETATM   24  C   UNL     1     -36.241  40.081 -58.621  1.00  0.00    -0.006 A 
HETATM   25  C   UNL     1     -35.566  39.494 -57.539  1.00  0.00     0.014 A 
HETATM   26  C   UNL     1     -35.215  40.255 -56.430  1.00  0.00     0.029 A 
BRANCH  24  27
HETATM   27  C   UNL     1     -36.623  39.234 -59.815  1.00  0.00     0.149 C 
HETATM   28  C   UNL     1     -37.931  38.484 -59.595  1.00  0.00     0.044 C 
BRANCH  27  29
HETATM   29  O   UNL     1     -35.596  38.280 -60.091  1.00  0.00    -0.391 OA
HETATM   30  H   UNL     1     -36.007  37.398 -60.067  1.00  0.00     0.210 HD
ENDBRANCH  27  29
ENDBRANCH  24  27
ENDBRANCH  19  20
ENDBRANCH   1  19
TORSDOF 8
ENDMDL
MODEL 8
REMARK VINA RESULT:      -7.4      4.505     10.128
REMARK  8 active torsions:
REMARK  status: ('A' for Active; 'I' for Inactive)
REMARK    1  A    between atoms: C_4  and  C_5 
REMARK    2  A    between atoms: C_5  and  N_6 
REMARK       I    between atoms: N_6  and  C_7 
REMARK    3  A    between atoms: C_7  and  C_8 
REMARK    4  A    between atoms: C_11  and  C_12 
REMARK    5  A    between atoms: C_12  and  O_13 
REMARK    6  A    between atoms: O_13  and  C_14 
REMARK    7  A    between atoms: C_25  and  C_26 
REMARK    8  A    between atoms: C_26  and  O_27 
ROOT
HETATM    1  N   UNL     1     -42.655  55.787 -55.914  1.00  0.00    -0.351 N 
HETATM    2  C   UNL     1     -42.896  56.244 -57.186  1.00  0.00     0.251 C 
HETATM    3  O   UNL     1     -43.347  55.529 -58.076  1.00  0.00    -0.268 OA
HETATM    4  H   UNL     1     -42.144  56.332 -55.230  1.00  0.00     0.163 HD
ENDROOT
BRANCH   2   5
HETATM    5  C   UNL     1     -42.537  57.662 -57.467  1.00  0.00     0.032 A 
HETATM    6  C   UNL     1     -42.466  58.551 -56.389  1.00  0.00     0.017 A 
HETATM    7  C   UNL     1     -42.160  59.898 -56.603  1.00  0.00     0.010 A 
HETATM    8  C   UNL     1     -41.920  60.373 -57.900  1.00  0.00    -0.034 A 
HETATM    9  C   UNL     1     -41.948  59.470 -58.971  1.00  0.00     0.010 A 
HETATM   10  C   UNL     1     -42.257  58.122 -58.759  1.00  0.00     0.017 A 
BRANCH   8  11
HETATM   11  C   UNL     1     -41.606  61.832 -58.130  1.00  0.00     0.214 C 
BRANCH  11  12
HETATM   12  O   UNL     1     -40.197  61.975 -58.281  1.00  0.00    -0.347 OA
BRANCH  12  13
HETATM   13  C   UNL     1     -39.761  62.682 -59.369  1.00  0.00     0.069 A 
HETATM   14  C   UNL     1     -38.786  63.680 -59.365  1.00  0.00     0.037 A 
HETATM   15  C   UNL     1     -38.433  64.324 -60.555  1.00  0.00     0.003 A 
HETATM   16  C   UNL     1     -39.053  63.973 -61.754  1.00  0.00     0.000 A 
HETATM   17  C   UNL     1     -40.027  62.978 -61.763  1.00  0.00     0.003 A 
HETATM   18  C   UNL     1     -40.378  62.336 -60.575  1.00  0.00     0.037 A 
ENDBRANCH  12  13
ENDBRANCH  11  12
ENDBRANCH   8  11
ENDBRANCH   2   5
BRANCH   1  19
HETATM   19  C   UNL     1     -42.860  54.398 -55.567  1.00  0.00     0.182 C 
BRANCH  19  20
HETATM   20  C   UNL     1     -42.315  54.069 -54.193  1.00  0.00     0.052 A 
HETATM   21  N   UNL     1     -43.072  54.391 -53.108  1.00  0.00    -0.256 NA
HETATM   22  C   UNL     1     -42.586  54.108 -51.870  1.00  0.00     0.040 A 
HETATM   23  C   UNL     1     -43.485  54.493 -50.730  1.00  0.00     0.071 C 
HETATM   24  C   UNL     1     -41.345  53.494 -51.667  1.00  0.00    -0.006 A 
HETATM   25  C   UNL     1     -40.586  53.183 -52.806  1.00  0.00     0.014 A 
HETATM   26  C   UNL     1     -41.071  53.468 -54.077  1.00  0.00     0.029 A 
BRANCH  24  27
HETATM   27  C   UNL     1     -40.795  53.185 -50.292  1.00  0.00     0.149 C 
HETATM   28  C   UNL     1     -39.737  54.191 -49.854  1.00  0.00     0.044 C 
BRANCH  27  29
HETATM   29  O   UNL     1     -40.211  51.881 -50.277  1.00  0.00    -0.391 OA
HETATM   30  H   UNL     1     -40.715  51.332 -50.904  1.00  0.00     0.210 HD
ENDBRANCH  27  29
ENDBRANCH  24  27
ENDBRANCH  19  20
ENDBRANCH   1  19
TORSDOF 8
ENDMDL
MODEL 9
REMARK VINA RESULT:      -7.4      5.133      7.710
REMARK  8 active torsions:
REMARK  status: ('A' for Active; 'I' for Inactive)
REMARK    1  A    between atoms: C_4  and  C_5 
REMARK    2  A    between atoms: C_5  and  N_6 
REMARK       I    between atoms: N_6  and  C_7 
REMARK    3  A    between atoms: C_7  and  C_8 
REMARK    4  A    between atoms: C_11  and  C_12 
REMARK    5  A    between atoms: C_12  and  O_13 
REMARK    6  A    between atoms: O_13  and  C_14 
REMARK    7  A    between atoms: C_25  and  C_26 
REMARK    8  A    between atoms: C_26  and  O_27 
ROOT
HETATM    1  N   UNL     1     -42.536  60.041 -51.227  1.00  0.00    -0.351 N 
HETATM    2  C   UNL     1     -41.357  59.380 -51.469  1.00  0.00     0.251 C 
HETATM    3  O   UNL     1     -40.258  59.912 -51.345  1.00  0.00    -0.268 OA
HETATM    4  H   UNL     1     -43.437  59.651 -51.475  1.00  0.00     0.163 HD
ENDROOT
BRANCH   2   5
HETATM    5  C   UNL     1     -41.465  57.972 -51.944  1.00  0.00     0.032 A 
HETATM    6  C   UNL     1     -42.047  57.030 -51.089  1.00  0.00     0.017 A 
HETATM    7  C   UNL     1     -42.146  55.691 -51.477  1.00  0.00     0.010 A 
HETATM    8  C   UNL     1     -41.665  55.277 -52.727  1.00  0.00    -0.034 A 
HETATM    9  C   UNL     1     -41.123  56.233 -53.597  1.00  0.00     0.010 A 
HETATM   10  C   UNL     1     -41.020  57.573 -53.210  1.00  0.00     0.017 A 
BRANCH   8  11
HETATM   11  C   UNL     1     -41.759  53.827 -53.137  1.00  0.00     0.214 C 
BRANCH  11  12
HETATM   12  O   UNL     1     -40.464  53.379 -53.524  1.00  0.00    -0.347 OA
BRANCH  12  13
HETATM   13  C   UNL     1     -40.122  52.100 -53.176  1.00  0.00     0.069 A 
HETATM   14  C   UNL     1     -39.785  51.658 -51.896  1.00  0.00     0.037 A 
HETATM   15  C   UNL     1     -39.455  50.316 -51.680  1.00  0.00     0.003 A 
HETATM   16  C   UNL     1     -39.461  49.411 -52.741  1.00  0.00     0.000 A 
HETATM   17  C   UNL     1     -39.796  49.848 -54.021  1.00  0.00     0.003 A 
HETATM   18  C   UNL     1     -40.124  51.187 -54.235  1.00  0.00     0.037 A 
ENDBRANCH  12  13
ENDBRANCH  11  12
ENDBRANCH   8  11
ENDBRANCH   2   5
BRANCH   1  19
HETATM   19  C   UNL     1     -42.548  61.443 -50.874  1.00  0.00     0.182 C 
BRANCH  19  20
HETATM   20  C   UNL     1     -43.638  61.769 -49.875  1.00  0.00     0.052 A 
HETATM   21  N   UNL     1     -43.722  63.046 -49.409  1.00  0.00    -0.256 NA
HETATM   22  C   UNL     1     -44.691  63.345 -48.504  1.00  0.00     0.040 A 
HETATM   23  C   UNL     1     -44.715  64.775 -48.046  1.00  0.00     0.071 C 
HETATM   24  C   UNL     1     -45.609  62.397 -48.037  1.00  0.00    -0.006 A 
HETATM   25  C   UNL     1     -45.490  61.088 -48.531  1.00  0.00     0.014 A 
HETATM   26  C   UNL     1     -44.503  60.769 -49.455  1.00  0.00     0.029 A 
BRANCH  24  27
HETATM   27  C   UNL     1     -46.684  62.721 -47.024  1.00  0.00     0.149 C 
HETATM   28  C   UNL     1     -46.157  62.694 -45.594  1.00  0.00     0.044 C 
BRANCH  27  29
HETATM   29  O   UNL     1     -47.757  61.784 -47.128  1.00  0.00    -0.391 OA
HETATM   30  H   UNL     1     -47.421  61.012 -47.618  1.00  0.00     0.210 HD
ENDBRANCH  27  29
ENDBRANCH  24  27
ENDBRANCH  19  20
ENDBRANCH   1  19
TORSDOF 8
ENDMDL
MODEL 10
REMARK VINA RESULT:      -7.4      2.125      2.727
REMARK  8 active torsions:
REMARK  status: ('A' for Active; 'I' for Inactive)
REMARK    1  A    between atoms: C_4  and  C_5 
REMARK    2  A    between atoms: C_5  and  N_6 
REMARK       I    between atoms: N_6  and  C_7 
REMARK    3  A    between atoms: C_7  and  C_8 
REMARK    4  A    between atoms: C_11  and  C_12 
REMARK    5  A    between atoms: C_12  and  O_13 
REMARK    6  A    between atoms: O_13  and  C_14 
REMARK    7  A    between atoms: C_25  and  C_26 
REMARK    8  A    between atoms: C_26  and  O_27 
ROOT
HETATM    1  N   UNL     1     -42.205  57.300 -57.202  1.00  0.00    -0.351 N 
HETATM    2  C   UNL     1     -42.609  56.013 -56.944  1.00  0.00     0.251 C 
HETATM    3  O   UNL     1     -43.211  55.327 -57.765  1.00  0.00    -0.268 OA
HETATM    4  H   UNL     1     -41.847  57.911 -56.478  1.00  0.00     0.163 HD
ENDROOT
BRANCH   2   5
HETATM    5  C   UNL     1     -42.325  55.484 -55.581  1.00  0.00     0.032 A 
HETATM    6  C   UNL     1     -41.309  56.092 -54.835  1.00  0.00     0.017 A 
HETATM    7  C   UNL     1     -40.986  55.615 -53.562  1.00  0.00     0.010 A 
HETATM    8  C   UNL     1     -41.674  54.522 -53.018  1.00  0.00    -0.034 A 
HETATM    9  C   UNL     1     -42.721  53.945 -53.751  1.00  0.00     0.010 A 
HETATM   10  C   UNL     1     -43.044  54.419 -55.026  1.00  0.00     0.017 A 
BRANCH   8  11
HETATM   11  C   UNL     1     -41.312  53.998 -51.649  1.00  0.00     0.214 C 
BRANCH  11  12
HETATM   12  O   UNL     1     -39.989  53.474 -51.698  1.00  0.00    -0.347 OA
BRANCH  12  13
HETATM   13  C   UNL     1     -39.859  52.156 -52.046  1.00  0.00     0.069 A 
HETATM   14  C   UNL     1     -39.774  51.652 -53.345  1.00  0.00     0.037 A 
HETATM   15  C   UNL     1     -39.642  50.276 -53.558  1.00  0.00     0.003 A 
HETATM   16  C   UNL     1     -39.595  49.399 -52.475  1.00  0.00     0.000 A 
HETATM   17  C   UNL     1     -39.681  49.897 -51.177  1.00  0.00     0.003 A 
HETATM   18  C   UNL     1     -39.813  51.270 -50.966  1.00  0.00     0.037 A 
ENDBRANCH  12  13
ENDBRANCH  11  12
ENDBRANCH   8  11
ENDBRANCH   2   5
BRANCH   1  19
HETATM   19  C   UNL     1     -42.532  57.950 -58.452  1.00  0.00     0.182 C 
BRANCH  19  20
HETATM   20  C   UNL     1     -43.957  58.459 -58.473  1.00  0.00     0.052 A 
HETATM   21  N   UNL     1     -44.834  57.879 -59.340  1.00  0.00    -0.256 NA
HETATM   22  C   UNL     1     -46.113  58.337 -59.373  1.00  0.00     0.040 A 
HETATM   23  C   UNL     1     -47.013  57.641 -60.353  1.00  0.00     0.071 C 
HETATM   24  C   UNL     1     -46.567  59.374 -58.550  1.00  0.00    -0.006 A 
HETATM   25  C   UNL     1     -45.637  59.955 -57.674  1.00  0.00     0.014 A 
HETATM   26  C   UNL     1     -44.326  59.497 -57.631  1.00  0.00     0.029 A 
BRANCH  24  27
HETATM   27  C   UNL     1     -47.987  59.894 -58.588  1.00  0.00     0.149 C 
HETATM   28  C   UNL     1     -48.048  61.385 -58.895  1.00  0.00     0.044 C 
BRANCH  27  29
HETATM   29  O   UNL     1     -48.629  59.664 -57.332  1.00  0.00    -0.391 OA
HETATM   30  H   UNL     1     -49.130  58.833 -57.411  1.00  0.00     0.210 HD
ENDBRANCH  27  29
ENDBRANCH  24  27
ENDBRANCH  19  20
ENDBRANCH   1  19
TORSDOF 8
ENDMDL
