MODEL 1
REMARK VINA RESULT:      -8.3      0.000      0.000
REMARK  7 active torsions:
REMARK  status: ('A' for Active; 'I' for Inactive)
REMARK       I    between atoms: C_2  and  N_3 
REMARK    1  A    between atoms: N_3  and  C_4 
REMARK    2  A    between atoms: C_6  and  N_7 
REMARK       I    between atoms: N_7  and  C_8 
REMARK       I    between atoms: C_8  and  N_9 
REMARK    3  A    between atoms: N_9  and  C_10 
REMARK    4  A    between atoms: C_10  and  C_11 
REMARK    5  A    between atoms: C_11  and  C_12 
REMARK    6  A    between atoms: N_14  and  C_16 
REMARK    7  A    between atoms: C_16  and  C_17 
ROOT
HETATM    1  N   UNL     1     -44.670  56.782 -53.390  1.00  0.00    -0.309 N 
HETATM    2  C   UNL     1     -44.283  57.659 -52.422  1.00  0.00     0.320 C 
HETATM    3  N   UNL     1     -42.951  57.804 -52.198  1.00  0.00    -0.343 N 
HETATM    4  O   UNL     1     -45.134  58.274 -51.777  1.00  0.00    -0.247 OA
HETATM    5  H   UNL     1     -45.654  56.556 -53.314  1.00  0.00     0.170 HD
HETATM    6  H   UNL     1     -42.383  57.026 -52.510  1.00  0.00     0.164 HD
ENDROOT
BRANCH   3   7
HETATM    7  C   UNL     1     -42.412  58.553 -51.083  1.00  0.00     0.125 C 
BRANCH   7   8
HETATM    8  C   UNL     1     -41.145  57.942 -50.475  1.00  0.00     0.026 C 
BRANCH   8   9
HETATM    9  C   UNL     1     -41.050  56.417 -50.331  1.00  0.00     0.014 C 
HETATM   10  C   UNL     1     -40.419  55.670 -51.498  1.00  0.00     0.240 C 
HETATM   11  N   UNL     1     -40.931  54.248 -51.370  1.00  0.00    -0.067 N 
HETATM   12  H   UNL     1     -41.408  54.051 -52.262  1.00  0.00     0.280 HD
HETATM   13  C   UNL     1     -41.986  54.233 -50.286  1.00  0.00     0.235 C 
HETATM   14  C   UNL     1     -42.359  55.686 -50.081  1.00  0.00     0.034 C 
BRANCH  11  15
HETATM   15  C   UNL     1     -39.878  53.197 -51.173  1.00  0.00     0.273 C 
BRANCH  15  16
HETATM   16  C   UNL     1     -39.932  52.077 -52.176  1.00  0.00    -0.033 A 
HETATM   17  C   UNL     1     -40.333  52.320 -53.499  1.00  0.00     0.009 A 
HETATM   18  C   UNL     1     -40.359  51.283 -54.434  1.00  0.00     0.001 A 
HETATM   19  C   UNL     1     -39.984  49.997 -54.058  1.00  0.00     0.000 A 
HETATM   20  C   UNL     1     -39.585  49.741 -52.749  1.00  0.00     0.001 A 
HETATM   21  C   UNL     1     -39.562  50.774 -51.809  1.00  0.00     0.009 A 
ENDBRANCH  15  16
ENDBRANCH  11  15
ENDBRANCH   8   9
ENDBRANCH   7   8
ENDBRANCH   3   7
BRANCH   1  22
HETATM   22  C   UNL     1     -43.972  56.150 -54.441  1.00  0.00     0.038 A 
HETATM   23  C   UNL     1     -43.593  56.783 -55.632  1.00  0.00     0.059 A 
HETATM   24  C   UNL     1     -42.882  56.092 -56.623  1.00  0.00     0.036 A 
HETATM   25  C   UNL     1     -42.592  54.737 -56.430  1.00  0.00     0.029 A 
HETATM   26  C   UNL     1     -43.005  54.084 -55.269  1.00  0.00     0.004 A 
HETATM   27  C   UNL     1     -43.695  54.788 -54.282  1.00  0.00     0.029 A 
BRANCH  24  28
HETATM   28  N   UNL     1     -42.435  56.677 -57.826  1.00  0.00    -0.327 N 
HETATM   29  C   UNL     1     -42.808  56.345 -59.116  1.00  0.00     0.218 C 
HETATM   30  C   UNL     1     -42.137  57.205 -60.162  1.00  0.00     0.117 C 
HETATM   31  O   UNL     1     -43.612  55.478 -59.444  1.00  0.00    -0.274 OA
HETATM   32  H   UNL     1     -41.797  57.460 -57.724  1.00  0.00     0.169 HD
ENDBRANCH  24  28
ENDBRANCH   1  22
TORSDOF 7
ENDMDL
MODEL 2
REMARK VINA RESULT:      -8.2      2.267      3.057
REMARK  7 active torsions:
REMARK  status: ('A' for Active; 'I' for Inactive)
REMARK       I    between atoms: C_2  and  N_3 
REMARK    1  A    between atoms: N_3  and  C_4 
REMARK    2  A    between atoms: C_6  and  N_7 
REMARK       I    between atoms: N_7  and  C_8 
REMARK       I    between atoms: C_8  and  N_9 
REMARK    3  A    between atoms: N_9  and  C_10 
REMARK    4  A    between atoms: C_10  and  C_11 
REMARK    5  A    between atoms: C_11  and  C_12 
REMARK    6  A    between atoms: N_14  and  C_16 
REMARK    7  A    between atoms: C_16  and  C_17 
ROOT
HETATM    1  N   UNL     1     -41.900  59.585 -55.570  1.00  0.00    -0.309 N 
HETATM    2  C   UNL     1     -41.790  59.407 -54.225  1.00  0.00     0.320 C 
HETATM    3  N   UNL     1     -42.916  59.087 -53.536  1.00  0.00    -0.343 N 
HETATM    4  O   UNL     1     -40.697  59.552 -53.675  1.00  0.00    -0.247 OA
HETATM    5  H   UNL     1     -41.088  60.057 -55.950  1.00  0.00     0.170 HD
HETATM    6  H   UNL     1     -43.781  59.339 -54.000  1.00  0.00     0.164 HD
ENDROOT
BRANCH   3   7
HETATM    7  C   UNL     1     -42.980  59.054 -52.091  1.00  0.00     0.125 C 
BRANCH   7   8
HETATM    8  C   UNL     1     -43.218  57.658 -51.507  1.00  0.00     0.026 C 
BRANCH   8   9
HETATM    9  C   UNL     1     -42.109  56.604 -51.624  1.00  0.00     0.014 C 
HETATM   10  C   UNL     1     -42.385  55.438 -52.566  1.00  0.00     0.240 C 
HETATM   11  N   UNL     1     -41.458  54.334 -52.095  1.00  0.00    -0.067 N 
HETATM   12  H   UNL     1     -42.076  53.539 -51.873  1.00  0.00     0.280 HD
HETATM   13  C   UNL     1     -40.824  54.783 -50.798  1.00  0.00     0.235 C 
HETATM   14  C   UNL     1     -41.675  55.942 -50.326  1.00  0.00     0.034 C 
BRANCH  11  15
HETATM   15  C   UNL     1     -40.451  53.862 -53.104  1.00  0.00     0.273 C 
BRANCH  15  16
HETATM   16  C   UNL     1     -40.149  52.390 -53.030  1.00  0.00    -0.033 A 
HETATM   17  C   UNL     1     -39.818  51.788 -51.805  1.00  0.00     0.009 A 
HETATM   18  C   UNL     1     -39.563  50.418 -51.735  1.00  0.00     0.001 A 
HETATM   19  C   UNL     1     -39.635  49.636 -52.884  1.00  0.00     0.000 A 
HETATM   20  C   UNL     1     -39.960  50.220 -54.105  1.00  0.00     0.001 A 
HETATM   21  C   UNL     1     -40.213  51.591 -54.182  1.00  0.00     0.009 A 
ENDBRANCH  15  16
ENDBRANCH  11  15
ENDBRANCH   8   9
ENDBRANCH   7   8
ENDBRANCH   3   7
BRANCH   1  22
HETATM   22  C   UNL     1     -42.907  59.248 -56.500  1.00  0.00     0.038 A 
HETATM   23  C   UNL     1     -43.117  57.958 -57.004  1.00  0.00     0.059 A 
HETATM   24  C   UNL     1     -44.152  57.696 -57.911  1.00  0.00     0.036 A 
HETATM   25  C   UNL     1     -44.954  58.757 -58.350  1.00  0.00     0.029 A 
HETATM   26  C   UNL     1     -44.725  60.052 -57.891  1.00  0.00     0.004 A 
HETATM   27  C   UNL     1     -43.703  60.296 -56.973  1.00  0.00     0.029 A 
BRANCH  24  28
HETATM   28  N   UNL     1     -44.446  56.416 -58.427  1.00  0.00    -0.327 N 
HETATM   29  C   UNL     1     -43.991  55.858 -59.608  1.00  0.00     0.218 C 
HETATM   30  C   UNL     1     -44.498  54.451 -59.826  1.00  0.00     0.117 C 
HETATM   31  O   UNL     1     -43.233  56.380 -60.419  1.00  0.00    -0.274 OA
HETATM   32  H   UNL     1     -45.026  55.827 -57.839  1.00  0.00     0.169 HD
ENDBRANCH  24  28
ENDBRANCH   1  22
TORSDOF 7
ENDMDL
MODEL 3
REMARK VINA RESULT:      -7.9      2.406      3.582
REMARK  7 active torsions:
REMARK  status: ('A' for Active; 'I' for Inactive)
REMARK       I    between atoms: C_2  and  N_3 
REMARK    1  A    between atoms: N_3  and  C_4 
REMARK    2  A    between atoms: C_6  and  N_7 
REMARK       I    between atoms: N_7  and  C_8 
REMARK       I    between atoms: C_8  and  N_9 
REMARK    3  A    between atoms: N_9  and  C_10 
REMARK    4  A    between atoms: C_10  and  C_11 
REMARK    5  A    between atoms: C_11  and  C_12 
REMARK    6  A    between atoms: N_14  and  C_16 
REMARK    7  A    between atoms: C_16  and  C_17 
ROOT
HETATM    1  N   UNL     1     -41.794  59.405 -55.632  1.00  0.00    -0.309 N 
HETATM    2  C   UNL     1     -41.801  59.535 -54.277  1.00  0.00     0.320 C 
HETATM    3  N   UNL     1     -43.006  59.659 -53.661  1.00  0.00    -0.343 N 
HETATM    4  O   UNL     1     -40.736  59.551 -53.658  1.00  0.00    -0.247 OA
HETATM    5  H   UNL     1     -40.872  59.571 -56.017  1.00  0.00     0.170 HD
HETATM    6  H   UNL     1     -43.755  59.985 -54.259  1.00  0.00     0.164 HD
ENDROOT
BRANCH   3   7
HETATM    7  C   UNL     1     -43.149  59.990 -52.259  1.00  0.00     0.125 C 
BRANCH   7   8
HETATM    8  C   UNL     1     -43.639  58.828 -51.390  1.00  0.00     0.026 C 
BRANCH   8   9
HETATM    9  C   UNL     1     -42.972  57.454 -51.540  1.00  0.00     0.014 C 
HETATM   10  C   UNL     1     -43.800  56.253 -51.102  1.00  0.00     0.240 C 
HETATM   11  N   UNL     1     -42.783  55.161 -50.830  1.00  0.00    -0.067 N 
HETATM   12  H   UNL     1     -42.937  54.886 -49.848  1.00  0.00     0.280 HD
HETATM   13  C   UNL     1     -41.406  55.781 -50.910  1.00  0.00     0.235 C 
HETATM   14  C   UNL     1     -41.642  57.274 -50.826  1.00  0.00     0.034 C 
BRANCH  11  15
HETATM   15  C   UNL     1     -42.916  53.928 -51.675  1.00  0.00     0.273 C 
BRANCH  15  16
HETATM   16  C   UNL     1     -42.049  53.927 -52.903  1.00  0.00    -0.033 A 
HETATM   17  C   UNL     1     -40.900  53.120 -52.967  1.00  0.00     0.009 A 
HETATM   18  C   UNL     1     -40.110  53.102 -54.118  1.00  0.00     0.001 A 
HETATM   19  C   UNL     1     -40.457  53.886 -55.214  1.00  0.00     0.000 A 
HETATM   20  C   UNL     1     -41.592  54.691 -55.164  1.00  0.00     0.001 A 
HETATM   21  C   UNL     1     -42.384  54.716 -54.014  1.00  0.00     0.009 A 
ENDBRANCH  15  16
ENDBRANCH  11  15
ENDBRANCH   8   9
ENDBRANCH   7   8
ENDBRANCH   3   7
BRANCH   1  22
HETATM   22  C   UNL     1     -42.805  59.097 -56.568  1.00  0.00     0.038 A 
HETATM   23  C   UNL     1     -43.085  57.805 -57.033  1.00  0.00     0.059 A 
HETATM   24  C   UNL     1     -44.119  57.576 -57.949  1.00  0.00     0.036 A 
HETATM   25  C   UNL     1     -44.849  58.666 -58.437  1.00  0.00     0.029 A 
HETATM   26  C   UNL     1     -44.549  59.961 -58.017  1.00  0.00     0.004 A 
HETATM   27  C   UNL     1     -43.529  60.174 -57.090  1.00  0.00     0.029 A 
BRANCH  24  28
HETATM   28  N   UNL     1     -44.482  56.299 -58.428  1.00  0.00    -0.327 N 
HETATM   29  C   UNL     1     -43.942  55.616 -59.503  1.00  0.00     0.218 C 
HETATM   30  C   UNL     1     -44.567  54.256 -59.709  1.00  0.00     0.117 C 
HETATM   31  O   UNL     1     -43.035  56.003 -60.234  1.00  0.00    -0.274 OA
HETATM   32  H   UNL     1     -45.192  55.813 -57.891  1.00  0.00     0.169 HD
ENDBRANCH  24  28
ENDBRANCH   1  22
TORSDOF 7
ENDMDL
MODEL 4
REMARK VINA RESULT:      -7.8      2.451      3.895
REMARK  7 active torsions:
REMARK  status: ('A' for Active; 'I' for Inactive)
REMARK       I    between atoms: C_2  and  N_3 
REMARK    1  A    between atoms: N_3  and  C_4 
REMARK    2  A    between atoms: C_6  and  N_7 
REMARK       I    between atoms: N_7  and  C_8 
REMARK       I    between atoms: C_8  and  N_9 
REMARK    3  A    between atoms: N_9  and  C_10 
REMARK    4  A    between atoms: C_10  and  C_11 
REMARK    5  A    between atoms: C_11  and  C_12 
REMARK    6  A    between atoms: N_14  and  C_16 
REMARK    7  A    between atoms: C_16  and  C_17 
ROOT
HETATM    1  N   UNL     1     -42.615  55.799 -57.546  1.00  0.00    -0.309 N 
HETATM    2  C   UNL     1     -43.058  55.451 -56.307  1.00  0.00     0.320 C 
HETATM    3  N   UNL     1     -43.677  56.409 -55.567  1.00  0.00    -0.343 N 
HETATM    4  O   UNL     1     -42.879  54.306 -55.890  1.00  0.00    -0.247 OA
HETATM    5  H   UNL     1     -41.961  55.116 -57.912  1.00  0.00     0.170 HD
HETATM    6  H   UNL     1     -43.458  57.360 -55.839  1.00  0.00     0.164 HD
ENDROOT
BRANCH   3   7
HETATM    7  C   UNL     1     -44.026  56.232 -54.174  1.00  0.00     0.125 C 
BRANCH   7   8
HETATM    8  C   UNL     1     -43.080  56.936 -53.198  1.00  0.00     0.026 C 
BRANCH   8   9
HETATM    9  C   UNL     1     -42.299  56.094 -52.180  1.00  0.00     0.014 C 
HETATM   10  C   UNL     1     -41.845  54.719 -52.653  1.00  0.00     0.240 C 
HETATM   11  N   UNL     1     -41.623  53.925 -51.379  1.00  0.00    -0.067 N 
HETATM   12  H   UNL     1     -42.240  53.104 -51.461  1.00  0.00     0.280 HD
HETATM   13  C   UNL     1     -42.132  54.756 -50.223  1.00  0.00     0.235 C 
HETATM   14  C   UNL     1     -42.998  55.824 -50.858  1.00  0.00     0.034 C 
BRANCH  11  15
HETATM   15  C   UNL     1     -40.224  53.425 -51.165  1.00  0.00     0.273 C 
BRANCH  15  16
HETATM   16  C   UNL     1     -39.973  52.046 -51.710  1.00  0.00    -0.033 A 
HETATM   17  C   UNL     1     -39.869  50.944 -50.845  1.00  0.00     0.009 A 
HETATM   18  C   UNL     1     -39.661  49.661 -51.354  1.00  0.00     0.001 A 
HETATM   19  C   UNL     1     -39.556  49.464 -52.728  1.00  0.00     0.000 A 
HETATM   20  C   UNL     1     -39.656  50.549 -53.597  1.00  0.00     0.001 A 
HETATM   21  C   UNL     1     -39.860  51.835 -53.092  1.00  0.00     0.009 A 
ENDBRANCH  15  16
ENDBRANCH  11  15
ENDBRANCH   8   9
ENDBRANCH   7   8
ENDBRANCH   3   7
BRANCH   1  22
HETATM   22  C   UNL     1     -42.886  56.901 -58.385  1.00  0.00     0.038 A 
HETATM   23  C   UNL     1     -42.084  58.046 -58.471  1.00  0.00     0.059 A 
HETATM   24  C   UNL     1     -42.409  59.092 -59.344  1.00  0.00     0.036 A 
HETATM   25  C   UNL     1     -43.581  59.003 -60.104  1.00  0.00     0.029 A 
HETATM   26  C   UNL     1     -44.412  57.889 -59.993  1.00  0.00     0.004 A 
HETATM   27  C   UNL     1     -44.067  56.845 -59.134  1.00  0.00     0.029 A 
BRANCH  24  28
HETATM   28  N   UNL     1     -41.626  60.255 -59.510  1.00  0.00    -0.327 N 
HETATM   29  C   UNL     1     -41.449  61.289 -58.609  1.00  0.00     0.218 C 
HETATM   30  C   UNL     1     -40.518  62.362 -59.123  1.00  0.00     0.117 C 
HETATM   31  O   UNL     1     -41.940  61.373 -57.487  1.00  0.00    -0.274 OA
HETATM   32  H   UNL     1     -41.103  60.311 -60.377  1.00  0.00     0.169 HD
ENDBRANCH  24  28
ENDBRANCH   1  22
TORSDOF 7
ENDMDL
MODEL 5
REMARK VINA RESULT:      -7.8      2.198      7.318
REMARK  7 active torsions:
REMARK  status: ('A' for Active; 'I' for Inactive)
REMARK       I    between atoms: C_2  and  N_3 
REMARK    1  A    between atoms: N_3  and  C_4 
REMARK    2  A    between atoms: C_6  and  N_7 
REMARK       I    between atoms: N_7  and  C_8 
REMARK       I    between atoms: C_8  and  N_9 
REMARK    3  A    between atoms: N_9  and  C_10 
REMARK    4  A    between atoms: C_10  and  C_11 
REMARK    5  A    between atoms: C_11  and  C_12 
REMARK    6  A    between atoms: N_14  and  C_16 
REMARK    7  A    between atoms: C_16  and  C_17 
ROOT
HETATM    1  N   UNL     1     -43.119  56.188 -50.550  1.00  0.00    -0.309 N 
HETATM    2  C   UNL     1     -43.768  56.878 -51.529  1.00  0.00     0.320 C 
HETATM    3  N   UNL     1     -43.161  56.977 -52.740  1.00  0.00    -0.343 N 
HETATM    4  O   UNL     1     -44.860  57.396 -51.292  1.00  0.00    -0.247 OA
HETATM    5  H   UNL     1     -43.514  56.378 -49.637  1.00  0.00     0.170 HD
HETATM    6  H   UNL     1     -42.157  56.839 -52.722  1.00  0.00     0.164 HD
ENDROOT
BRANCH   3   7
HETATM    7  C   UNL     1     -43.646  57.832 -53.802  1.00  0.00     0.125 C 
BRANCH   7   8
HETATM    8  C   UNL     1     -44.064  57.078 -55.069  1.00  0.00     0.026 C 
BRANCH   8   9
HETATM    9  C   UNL     1     -43.570  57.583 -56.431  1.00  0.00     0.014 C 
HETATM   10  C   UNL     1     -42.840  56.567 -57.301  1.00  0.00     0.240 C 
HETATM   11  N   UNL     1     -42.015  57.402 -58.261  1.00  0.00    -0.067 N 
HETATM   12  H   UNL     1     -41.041  57.101 -58.113  1.00  0.00     0.280 HD
HETATM   13  C   UNL     1     -42.110  58.845 -57.819  1.00  0.00     0.235 C 
HETATM   14  C   UNL     1     -42.643  58.787 -56.403  1.00  0.00     0.034 C 
BRANCH  11  15
HETATM   15  C   UNL     1     -42.333  57.216 -59.716  1.00  0.00     0.273 C 
BRANCH  15  16
HETATM   16  C   UNL     1     -43.746  56.774 -59.986  1.00  0.00    -0.033 A 
HETATM   17  C   UNL     1     -44.048  55.415 -60.166  1.00  0.00     0.009 A 
HETATM   18  C   UNL     1     -45.363  55.005 -60.392  1.00  0.00     0.001 A 
HETATM   19  C   UNL     1     -46.388  55.945 -60.439  1.00  0.00     0.000 A 
HETATM   20  C   UNL     1     -46.102  57.297 -60.263  1.00  0.00     0.001 A 
HETATM   21  C   UNL     1     -44.787  57.713 -60.041  1.00  0.00     0.009 A 
ENDBRANCH  15  16
ENDBRANCH  11  15
ENDBRANCH   8   9
ENDBRANCH   7   8
ENDBRANCH   3   7
BRANCH   1  22
HETATM   22  C   UNL     1     -42.029  55.292 -50.575  1.00  0.00     0.038 A 
HETATM   23  C   UNL     1     -41.900  54.229 -51.478  1.00  0.00     0.059 A 
HETATM   24  C   UNL     1     -40.777  53.392 -51.453  1.00  0.00     0.036 A 
HETATM   25  C   UNL     1     -39.796  53.601 -50.477  1.00  0.00     0.029 A 
HETATM   26  C   UNL     1     -39.936  54.627 -49.544  1.00  0.00     0.004 A 
HETATM   27  C   UNL     1     -41.050  55.465 -49.591  1.00  0.00     0.029 A 
BRANCH  24  28
HETATM   28  N   UNL     1     -40.563  52.330 -52.357  1.00  0.00    -0.327 N 
HETATM   29  C   UNL     1     -40.271  52.416 -53.707  1.00  0.00     0.218 C 
HETATM   30  C   UNL     1     -40.084  51.063 -54.355  1.00  0.00     0.117 C 
HETATM   31  O   UNL     1     -40.136  53.445 -54.361  1.00  0.00    -0.274 OA
HETATM   32  H   UNL     1     -40.585  51.399 -51.955  1.00  0.00     0.169 HD
ENDBRANCH  24  28
ENDBRANCH   1  22
TORSDOF 7
ENDMDL
MODEL 6
REMARK VINA RESULT:      -7.7      1.983      2.321
REMARK  7 active torsions:
REMARK  status: ('A' for Active; 'I' for Inactive)
REMARK       I    between atoms: C_2  and  N_3 
REMARK    1  A    between atoms: N_3  and  C_4 
REMARK    2  A    between atoms: C_6  and  N_7 
REMARK       I    between atoms: N_7  and  C_8 
REMARK       I    between atoms: C_8  and  N_9 
REMARK    3  A    between atoms: N_9  and  C_10 
REMARK    4  A    between atoms: C_10  and  C_11 
REMARK    5  A    between atoms: C_11  and  C_12 
REMARK    6  A    between atoms: N_14  and  C_16 
REMARK    7  A    between atoms: C_16  and  C_17 
ROOT
HETATM    1  N   UNL     1     -42.056  58.818 -55.767  1.00  0.00    -0.309 N 
HETATM    2  C   UNL     1     -42.172  59.320 -54.507  1.00  0.00     0.320 C 
HETATM    3  N   UNL     1     -43.144  58.805 -53.709  1.00  0.00    -0.343 N 
HETATM    4  O   UNL     1     -41.418  60.220 -54.133  1.00  0.00    -0.247 OA
HETATM    5  H   UNL     1     -41.492  59.420 -56.356  1.00  0.00     0.170 HD
HETATM    6  H   UNL     1     -43.903  58.354 -54.206  1.00  0.00     0.164 HD
ENDROOT
BRANCH   3   7
HETATM    7  C   UNL     1     -43.498  59.369 -52.425  1.00  0.00     0.125 C 
BRANCH   7   8
HETATM    8  C   UNL     1     -42.620  58.886 -51.266  1.00  0.00     0.026 C 
BRANCH   8   9
HETATM    9  C   UNL     1     -42.515  57.380 -50.991  1.00  0.00     0.014 C 
HETATM   10  C   UNL     1     -41.519  56.608 -51.848  1.00  0.00     0.240 C 
HETATM   11  N   UNL     1     -41.990  55.167 -51.783  1.00  0.00    -0.067 N 
HETATM   12  H   UNL     1     -42.155  54.892 -52.763  1.00  0.00     0.280 HD
HETATM   13  C   UNL     1     -43.330  55.149 -51.083  1.00  0.00     0.235 C 
HETATM   14  C   UNL     1     -43.806  56.587 -51.109  1.00  0.00     0.034 C 
BRANCH  11  15
HETATM   15  C   UNL     1     -41.012  54.193 -51.194  1.00  0.00     0.273 C 
BRANCH  15  16
HETATM   16  C   UNL     1     -40.581  53.106 -52.139  1.00  0.00    -0.033 A 
HETATM   17  C   UNL     1     -40.876  53.191 -53.510  1.00  0.00     0.009 A 
HETATM   18  C   UNL     1     -40.453  52.192 -54.389  1.00  0.00     0.001 A 
HETATM   19  C   UNL     1     -39.734  51.101 -53.911  1.00  0.00     0.000 A 
HETATM   20  C   UNL     1     -39.436  51.003 -52.554  1.00  0.00     0.001 A 
HETATM   21  C   UNL     1     -39.860  51.998 -51.669  1.00  0.00     0.009 A 
ENDBRANCH  15  16
ENDBRANCH  11  15
ENDBRANCH   8   9
ENDBRANCH   7   8
ENDBRANCH   3   7
BRANCH   1  22
HETATM   22  C   UNL     1     -42.565  57.656 -56.384  1.00  0.00     0.038 A 
HETATM   23  C   UNL     1     -43.612  57.648 -57.315  1.00  0.00     0.059 A 
HETATM   24  C   UNL     1     -44.049  56.452 -57.900  1.00  0.00     0.036 A 
HETATM   25  C   UNL     1     -43.456  55.247 -57.506  1.00  0.00     0.029 A 
HETATM   26  C   UNL     1     -42.445  55.237 -56.547  1.00  0.00     0.004 A 
HETATM   27  C   UNL     1     -42.006  56.437 -55.986  1.00  0.00     0.029 A 
BRANCH  24  28
HETATM   28  N   UNL     1     -45.068  56.376 -58.873  1.00  0.00    -0.327 N 
HETATM   29  C   UNL     1     -44.940  56.021 -60.204  1.00  0.00     0.218 C 
HETATM   30  C   UNL     1     -46.257  56.027 -60.943  1.00  0.00     0.117 C 
HETATM   31  O   UNL     1     -43.904  55.696 -60.777  1.00  0.00    -0.274 OA
HETATM   32  H   UNL     1     -46.008  56.563 -58.541  1.00  0.00     0.169 HD
ENDBRANCH  24  28
ENDBRANCH   1  22
TORSDOF 7
ENDMDL
MODEL 7
REMARK VINA RESULT:      -7.7      2.580      3.659
REMARK  7 active torsions:
REMARK  status: ('A' for Active; 'I' for Inactive)
REMARK       I    between atoms: C_2  and  N_3 
REMARK    1  A    between atoms: N_3  and  C_4 
REMARK    2  A    between atoms: C_6  and  N_7 
REMARK       I    between atoms: N_7  and  C_8 
REMARK       I    between atoms: C_8  and  N_9 
REMARK    3  A    between atoms: N_9  and  C_10 
REMARK    4  A    between atoms: C_10  and  C_11 
REMARK    5  A    between atoms: C_11  and  C_12 
REMARK    6  A    between atoms: N_14  and  C_16 
REMARK    7  A    between atoms: C_16  and  C_17 
ROOT
HETATM    1  N   UNL     1     -42.335  59.603 -57.108  1.00  0.00    -0.309 N 
HETATM    2  C   UNL     1     -42.421  59.442 -55.759  1.00  0.00     0.320 C 
HETATM    3  N   UNL     1     -43.312  58.531 -55.287  1.00  0.00    -0.343 N 
HETATM    4  O   UNL     1     -41.713  60.122 -55.014  1.00  0.00    -0.247 OA
HETATM    5  H   UNL     1     -41.845  60.456 -57.350  1.00  0.00     0.170 HD
HETATM    6  H   UNL     1     -44.062  58.303 -55.928  1.00  0.00     0.164 HD
ENDROOT
BRANCH   3   7
HETATM    7  C   UNL     1     -43.638  58.394 -53.884  1.00  0.00     0.125 C 
BRANCH   7   8
HETATM    8  C   UNL     1     -44.067  56.981 -53.478  1.00  0.00     0.026 C 
BRANCH   8   9
HETATM    9  C   UNL     1     -43.018  56.022 -52.899  1.00  0.00     0.014 C 
HETATM   10  C   UNL     1     -42.501  54.943 -53.842  1.00  0.00     0.240 C 
HETATM   11  N   UNL     1     -41.955  53.861 -52.929  1.00  0.00    -0.067 N 
HETATM   12  H   UNL     1     -42.476  53.008 -53.178  1.00  0.00     0.280 HD
HETATM   13  C   UNL     1     -42.335  54.219 -51.509  1.00  0.00     0.235 C 
HETATM   14  C   UNL     1     -43.423  55.264 -51.646  1.00  0.00     0.034 C 
BRANCH  11  15
HETATM   15  C   UNL     1     -40.492  53.564 -53.082  1.00  0.00     0.273 C 
BRANCH  15  16
HETATM   16  C   UNL     1     -40.157  52.098 -53.076  1.00  0.00    -0.033 A 
HETATM   17  C   UNL     1     -40.205  51.348 -54.263  1.00  0.00     0.009 A 
HETATM   18  C   UNL     1     -39.870  49.993 -54.259  1.00  0.00     0.001 A 
HETATM   19  C   UNL     1     -39.485  49.374 -53.074  1.00  0.00     0.000 A 
HETATM   20  C   UNL     1     -39.435  50.105 -51.890  1.00  0.00     0.001 A 
HETATM   21  C   UNL     1     -39.772  51.460 -51.888  1.00  0.00     0.009 A 
ENDBRANCH  15  16
ENDBRANCH  11  15
ENDBRANCH   8   9
ENDBRANCH   7   8
ENDBRANCH   3   7
BRANCH   1  22
HETATM   22  C   UNL     1     -42.793  58.827 -58.194  1.00  0.00     0.038 A 
HETATM   23  C   UNL     1     -44.039  58.990 -58.814  1.00  0.00     0.059 A 
HETATM   24  C   UNL     1     -44.414  58.193 -59.902  1.00  0.00     0.036 A 
HETATM   25  C   UNL     1     -43.543  57.188 -60.341  1.00  0.00     0.029 A 
HETATM   26  C   UNL     1     -42.321  56.986 -59.704  1.00  0.00     0.004 A 
HETATM   27  C   UNL     1     -41.950  57.800 -58.632  1.00  0.00     0.029 A 
BRANCH  24  28
HETATM   28  N   UNL     1     -45.635  58.329 -60.598  1.00  0.00    -0.327 N 
HETATM   29  C   UNL     1     -46.779  57.566 -60.453  1.00  0.00     0.218 C 
HETATM   30  C   UNL     1     -47.905  58.018 -61.353  1.00  0.00     0.117 C 
HETATM   31  O   UNL     1     -46.939  56.629 -59.676  1.00  0.00    -0.274 OA
HETATM   32  H   UNL     1     -45.685  59.106 -61.248  1.00  0.00     0.169 HD
ENDBRANCH  24  28
ENDBRANCH   1  22
TORSDOF 7
ENDMDL
MODEL 8
REMARK VINA RESULT:      -7.6      2.212      3.665
REMARK  7 active torsions:
REMARK  status: ('A' for Active; 'I' for Inactive)
REMARK       I    between atoms: C_2  and  N_3 
REMARK    1  A    between atoms: N_3  and  C_4 
REMARK    2  A    between atoms: C_6  and  N_7 
REMARK       I    between atoms: N_7  and  C_8 
REMARK       I    between atoms: C_8  and  N_9 
REMARK    3  A    between atoms: N_9  and  C_10 
REMARK    4  A    between atoms: C_10  and  C_11 
REMARK    5  A    between atoms: C_11  and  C_12 
REMARK    6  A    between atoms: N_14  and  C_16 
REMARK    7  A    between atoms: C_16  and  C_17 
ROOT
HETATM    1  N   UNL     1     -41.717  59.725 -56.424  1.00  0.00    -0.309 N 
HETATM    2  C   UNL     1     -42.209  59.569 -55.164  1.00  0.00     0.320 C 
HETATM    3  N   UNL     1     -43.482  59.110 -55.037  1.00  0.00    -0.343 N 
HETATM    4  O   UNL     1     -41.509  59.855 -54.193  1.00  0.00    -0.247 OA
HETATM    5  H   UNL     1     -40.880  60.295 -56.428  1.00  0.00     0.170 HD
HETATM    6  H   UNL     1     -44.065  59.247 -55.853  1.00  0.00     0.164 HD
ENDROOT
BRANCH   3   7
HETATM    7  C   UNL     1     -44.189  59.075 -53.775  1.00  0.00     0.125 C 
BRANCH   7   8
HETATM    8  C   UNL     1     -44.525  57.664 -53.284  1.00  0.00     0.026 C 
BRANCH   8   9
HETATM    9  C   UNL     1     -43.381  56.732 -52.862  1.00  0.00     0.014 C 
HETATM   10  C   UNL     1     -42.947  55.692 -53.887  1.00  0.00     0.240 C 
HETATM   11  N   UNL     1     -42.257  54.612 -53.074  1.00  0.00    -0.067 N 
HETATM   12  H   UNL     1     -42.776  53.746 -53.280  1.00  0.00     0.280 HD
HETATM   13  C   UNL     1     -42.474  54.926 -51.610  1.00  0.00     0.235 C 
HETATM   14  C   UNL     1     -43.604  55.933 -51.588  1.00  0.00     0.034 C 
BRANCH  11  15
HETATM   15  C   UNL     1     -40.815  54.372 -53.411  1.00  0.00     0.273 C 
BRANCH  15  16
HETATM   16  C   UNL     1     -40.386  52.935 -53.295  1.00  0.00    -0.033 A 
HETATM   17  C   UNL     1     -39.900  52.430 -52.078  1.00  0.00     0.009 A 
HETATM   18  C   UNL     1     -39.526  51.090 -51.966  1.00  0.00     0.001 A 
HETATM   19  C   UNL     1     -39.634  50.242 -53.064  1.00  0.00     0.000 A 
HETATM   20  C   UNL     1     -40.113  50.730 -54.277  1.00  0.00     0.001 A 
HETATM   21  C   UNL     1     -40.485  52.071 -54.396  1.00  0.00     0.009 A 
ENDBRANCH  15  16
ENDBRANCH  11  15
ENDBRANCH   8   9
ENDBRANCH   7   8
ENDBRANCH   3   7
BRANCH   1  22
HETATM   22  C   UNL     1     -42.149  59.257 -57.684  1.00  0.00     0.038 A 
HETATM   23  C   UNL     1     -42.529  57.935 -57.948  1.00  0.00     0.059 A 
HETATM   24  C   UNL     1     -42.966  57.550 -59.222  1.00  0.00     0.036 A 
HETATM   25  C   UNL     1     -42.974  58.498 -60.253  1.00  0.00     0.029 A 
HETATM   26  C   UNL     1     -42.554  59.805 -60.013  1.00  0.00     0.004 A 
HETATM   27  C   UNL     1     -42.139  60.180 -58.735  1.00  0.00     0.029 A 
BRANCH  24  28
HETATM   28  N   UNL     1     -43.402  56.248 -59.548  1.00  0.00    -0.327 N 
HETATM   29  C   UNL     1     -44.705  55.804 -59.688  1.00  0.00     0.218 C 
HETATM   30  C   UNL     1     -44.790  54.344 -60.067  1.00  0.00     0.117 C 
HETATM   31  O   UNL     1     -45.724  56.476 -59.560  1.00  0.00    -0.274 OA
HETATM   32  H   UNL     1     -42.669  55.575 -59.743  1.00  0.00     0.169 HD
ENDBRANCH  24  28
ENDBRANCH   1  22
TORSDOF 7
ENDMDL
MODEL 9
REMARK VINA RESULT:      -7.6      2.572      3.565
REMARK  7 active torsions:
REMARK  status: ('A' for Active; 'I' for Inactive)
REMARK       I    between atoms: C_2  and  N_3 
REMARK    1  A    between atoms: N_3  and  C_4 
REMARK    2  A    between atoms: C_6  and  N_7 
REMARK       I    between atoms: N_7  and  C_8 
REMARK       I    between atoms: C_8  and  N_9 
REMARK    3  A    between atoms: N_9  and  C_10 
REMARK    4  A    between atoms: C_10  and  C_11 
REMARK    5  A    between atoms: C_11  and  C_12 
REMARK    6  A    between atoms: N_14  and  C_16 
REMARK    7  A    between atoms: C_16  and  C_17 
ROOT
HETATM    1  N   UNL     1     -42.378  56.669 -57.189  1.00  0.00    -0.309 N 
HETATM    2  C   UNL     1     -42.380  56.907 -55.848  1.00  0.00     0.320 C 
HETATM    3  N   UNL     1     -43.546  57.310 -55.280  1.00  0.00    -0.343 N 
HETATM    4  O   UNL     1     -41.341  56.769 -55.200  1.00  0.00    -0.247 OA
HETATM    5  H   UNL     1     -41.436  56.623 -57.557  1.00  0.00     0.170 HD
HETATM    6  H   UNL     1     -44.209  57.724 -55.924  1.00  0.00     0.164 HD
ENDROOT
BRANCH   3   7
HETATM    7  C   UNL     1     -43.644  57.775 -53.913  1.00  0.00     0.125 C 
BRANCH   7   8
HETATM    8  C   UNL     1     -44.060  56.693 -52.913  1.00  0.00     0.026 C 
BRANCH   8   9
HETATM    9  C   UNL     1     -42.970  55.929 -52.147  1.00  0.00     0.014 C 
HETATM   10  C   UNL     1     -42.455  54.655 -52.803  1.00  0.00     0.240 C 
HETATM   11  N   UNL     1     -41.856  53.850 -51.666  1.00  0.00    -0.067 N 
HETATM   12  H   UNL     1     -42.362  52.952 -51.673  1.00  0.00     0.280 HD
HETATM   13  C   UNL     1     -42.203  54.549 -50.371  1.00  0.00     0.235 C 
HETATM   14  C   UNL     1     -43.320  55.507 -50.729  1.00  0.00     0.034 C 
BRANCH  11  15
HETATM   15  C   UNL     1     -40.391  53.548 -51.790  1.00  0.00     0.273 C 
BRANCH  15  16
HETATM   16  C   UNL     1     -40.088  52.180 -52.337  1.00  0.00    -0.033 A 
HETATM   17  C   UNL     1     -39.752  51.123 -51.476  1.00  0.00     0.009 A 
HETATM   18  C   UNL     1     -39.496  49.848 -51.984  1.00  0.00     0.001 A 
HETATM   19  C   UNL     1     -39.573  49.616 -53.354  1.00  0.00     0.000 A 
HETATM   20  C   UNL     1     -39.904  50.655 -54.220  1.00  0.00     0.001 A 
HETATM   21  C   UNL     1     -40.158  51.933 -53.717  1.00  0.00     0.009 A 
ENDBRANCH  15  16
ENDBRANCH  11  15
ENDBRANCH   8   9
ENDBRANCH   7   8
ENDBRANCH   3   7
BRANCH   1  22
HETATM   22  C   UNL     1     -43.415  56.485 -58.128  1.00  0.00     0.038 A 
HETATM   23  C   UNL     1     -44.506  57.351 -58.281  1.00  0.00     0.059 A 
HETATM   24  C   UNL     1     -45.488  57.112 -59.252  1.00  0.00     0.036 A 
HETATM   25  C   UNL     1     -45.393  55.962 -60.044  1.00  0.00     0.029 A 
HETATM   26  C   UNL     1     -44.337  55.069 -59.870  1.00  0.00     0.004 A 
HETATM   27  C   UNL     1     -43.356  55.329 -58.913  1.00  0.00     0.029 A 
BRANCH  24  28
HETATM   28  N   UNL     1     -46.589  57.962 -59.488  1.00  0.00    -0.327 N 
HETATM   29  C   UNL     1     -46.618  59.112 -60.255  1.00  0.00     0.218 C 
HETATM   30  C   UNL     1     -47.985  59.755 -60.298  1.00  0.00     0.117 C 
HETATM   31  O   UNL     1     -45.680  59.598 -60.881  1.00  0.00    -0.274 OA
HETATM   32  H   UNL     1     -47.469  57.665 -59.079  1.00  0.00     0.169 HD
ENDBRANCH  24  28
ENDBRANCH   1  22
TORSDOF 7
ENDMDL
MODEL 10
REMARK VINA RESULT:      -7.4     14.575     16.540
REMARK  7 active torsions:
REMARK  status: ('A' for Active; 'I' for Inactive)
REMARK       I    between atoms: C_2  and  N_3 
REMARK    1  A    between atoms: N_3  and  C_4 
REMARK    2  A    between atoms: C_6  and  N_7 
REMARK       I    between atoms: N_7  and  C_8 
REMARK       I    between atoms: C_8  and  N_9 
REMARK    3  A    between atoms: N_9  and  C_10 
REMARK    4  A    between atoms: C_10  and  C_11 
REMARK    5  A    between atoms: C_11  and  C_12 
REMARK    6  A    between atoms: N_14  and  C_16 
REMARK    7  A    between atoms: C_16  and  C_17 
ROOT
HETATM    1  N   UNL     1     -38.444  41.439 -54.447  1.00  0.00    -0.309 N 
HETATM    2  C   UNL     1     -38.401  41.138 -53.120  1.00  0.00     0.320 C 
HETATM    3  N   UNL     1     -37.309  40.472 -52.660  1.00  0.00    -0.343 N 
HETATM    4  O   UNL     1     -39.338  41.456 -52.387  1.00  0.00    -0.247 OA
HETATM    5  H   UNL     1     -39.379  41.700 -54.738  1.00  0.00     0.170 HD
HETATM    6  H   UNL     1     -36.795  39.962 -53.368  1.00  0.00     0.164 HD
ENDROOT
BRANCH   3   7
HETATM    7  C   UNL     1     -37.218  39.928 -51.322  1.00  0.00     0.125 C 
BRANCH   7   8
HETATM    8  C   UNL     1     -35.887  40.215 -50.620  1.00  0.00     0.026 C 
BRANCH   8   9
HETATM    9  C   UNL     1     -34.580  40.046 -51.406  1.00  0.00     0.014 C 
HETATM   10  C   UNL     1     -33.741  38.823 -51.062  1.00  0.00     0.240 C 
HETATM   11  N   UNL     1     -32.339  39.172 -51.526  1.00  0.00    -0.067 N 
HETATM   12  H   UNL     1     -31.748  39.088 -50.686  1.00  0.00     0.280 HD
HETATM   13  C   UNL     1     -32.336  40.628 -51.933  1.00  0.00     0.235 C 
HETATM   14  C   UNL     1     -33.600  41.207 -51.332  1.00  0.00     0.034 C 
BRANCH  11  15
HETATM   15  C   UNL     1     -31.765  38.271 -52.580  1.00  0.00     0.273 C 
BRANCH  15  16
HETATM   16  C   UNL     1     -32.145  38.648 -53.986  1.00  0.00    -0.033 A 
HETATM   17  C   UNL     1     -33.409  38.316 -54.499  1.00  0.00     0.009 A 
HETATM   18  C   UNL     1     -33.769  38.689 -55.795  1.00  0.00     0.001 A 
HETATM   19  C   UNL     1     -32.873  39.396 -56.591  1.00  0.00     0.000 A 
HETATM   20  C   UNL     1     -31.615  39.731 -56.095  1.00  0.00     0.001 A 
HETATM   21  C   UNL     1     -31.249  39.357 -54.800  1.00  0.00     0.009 A 
ENDBRANCH  15  16
ENDBRANCH  11  15
ENDBRANCH   8   9
ENDBRANCH   7   8
ENDBRANCH   3   7
BRANCH   1  22
HETATM   22  C   UNL     1     -37.460  41.451 -55.458  1.00  0.00     0.038 A 
HETATM   23  C   UNL     1     -37.486  40.635 -56.596  1.00  0.00     0.059 A 
HETATM   24  C   UNL     1     -36.480  40.718 -57.568  1.00  0.00     0.036 A 
HETATM   25  C   UNL     1     -35.412  41.600 -57.366  1.00  0.00     0.029 A 
HETATM   26  C   UNL     1     -35.351  42.383 -56.215  1.00  0.00     0.004 A 
HETATM   27  C   UNL     1     -36.369  42.305 -55.264  1.00  0.00     0.029 A 
BRANCH  24  28
HETATM   28  N   UNL     1     -36.465  39.957 -58.756  1.00  0.00    -0.327 N 
HETATM   29  C   UNL     1     -36.953  40.321 -59.998  1.00  0.00     0.218 C 
HETATM   30  C   UNL     1     -36.742  39.255 -61.048  1.00  0.00     0.117 C 
HETATM   31  O   UNL     1     -37.484  41.388 -60.290  1.00  0.00    -0.274 OA
HETATM   32  H   UNL     1     -36.003  39.056 -58.695  1.00  0.00     0.169 HD
ENDBRANCH  24  28
ENDBRANCH   1  22
TORSDOF 7
ENDMDL
