MODEL 1
REMARK VINA RESULT:      -8.3      0.000      0.000
REMARK  7 active torsions:
REMARK  status: ('A' for Active; 'I' for Inactive)
REMARK    1  A    between atoms: C_2  and  N_3 
REMARK    2  A    between atoms: C_2  and  C_19 
REMARK       I    between atoms: N_3  and  C_4 
REMARK       I    between atoms: C_4  and  N_5 
REMARK    3  A    between atoms: N_5  and  C_6 
REMARK    4  A    between atoms: N_8  and  C_9 
REMARK    5  A    between atoms: C_9  and  C_10 
REMARK    6  A    between atoms: C_19  and  C_20 
REMARK    7  A    between atoms: C_23  and  O_24 
ROOT
HETATM    1  N   UNL     1     -43.332  56.744 -55.045  1.00  0.00    -0.338 N 
HETATM    2  C   UNL     1     -44.294  57.087 -54.149  1.00  0.00     0.322 C 
HETATM    3  N   UNL     1     -44.249  56.469 -52.935  1.00  0.00    -0.292 N 
HETATM    4  O   UNL     1     -45.180  57.907 -54.380  1.00  0.00    -0.247 OA
HETATM    5  H   UNL     1     -42.674  56.040 -54.718  1.00  0.00     0.164 HD
HETATM    6  H   UNL     1     -44.995  56.743 -52.314  1.00  0.00     0.172 HD
ENDROOT
BRANCH   1   7
HETATM    7  C   UNL     1     -43.332  57.146 -56.442  1.00  0.00     0.086 C 
HETATM    8  C   UNL     1     -42.279  58.234 -56.651  1.00  0.00     0.032 C 
BRANCH   7   9
HETATM    9  C   UNL     1     -43.049  55.941 -57.362  1.00  0.00     0.063 C 
BRANCH   9  10
HETATM   10  C   UNL     1     -43.948  55.884 -58.577  1.00  0.00    -0.056 A 
HETATM   11  C   UNL     1     -44.047  54.705 -59.332  1.00  0.00     0.010 A 
HETATM   12  C   UNL     1     -44.865  54.654 -60.463  1.00  0.00     0.037 A 
HETATM   13  C   UNL     1     -45.581  55.784 -60.842  1.00  0.00     0.065 A 
HETATM   14  C   UNL     1     -45.491  56.962 -60.111  1.00  0.00     0.037 A 
HETATM   15  C   UNL     1     -44.672  57.013 -58.983  1.00  0.00     0.010 A 
BRANCH  13  16
HETATM   16  O   UNL     1     -46.389  55.778 -61.941  1.00  0.00    -0.361 OA
HETATM   17  H   UNL     1     -46.881  56.615 -61.962  1.00  0.00     0.217 HD
ENDBRANCH  13  16
ENDBRANCH   9  10
ENDBRANCH   7   9
ENDBRANCH   1   7
BRANCH   3  18
HETATM   18  C   UNL     1     -43.373  55.504 -52.491  1.00  0.00     0.153 A 
HETATM   19  N   UNL     1     -42.083  55.422 -52.844  1.00  0.00    -0.154 NA
HETATM   20  N   UNL     1     -41.626  54.334 -52.188  1.00  0.00    -0.275 N 
HETATM   21  C   UNL     1     -42.578  53.733 -51.414  1.00  0.00     0.116 A 
HETATM   22  C   UNL     1     -43.725  54.469 -51.594  1.00  0.00     0.071 A 
BRANCH  20  23
HETATM   23  C   UNL     1     -40.223  53.952 -52.290  1.00  0.00     0.189 C 
BRANCH  23  24
HETATM   24  C   UNL     1     -40.065  52.508 -52.692  1.00  0.00    -0.038 A 
HETATM   25  C   UNL     1     -40.335  52.104 -54.010  1.00  0.00     0.009 A 
HETATM   26  C   UNL     1     -40.194  50.768 -54.384  1.00  0.00     0.001 A 
HETATM   27  C   UNL     1     -39.779  49.822 -53.450  1.00  0.00     0.000 A 
HETATM   28  C   UNL     1     -39.506  50.210 -52.140  1.00  0.00     0.001 A 
HETATM   29  C   UNL     1     -39.650  51.545 -51.761  1.00  0.00     0.009 A 
ENDBRANCH  23  24
ENDBRANCH  20  23
ENDBRANCH   3  18
TORSDOF 7
ENDMDL
MODEL 2
REMARK VINA RESULT:      -8.2      3.135      7.677
REMARK  7 active torsions:
REMARK  status: ('A' for Active; 'I' for Inactive)
REMARK    1  A    between atoms: C_2  and  N_3 
REMARK    2  A    between atoms: C_2  and  C_19 
REMARK       I    between atoms: N_3  and  C_4 
REMARK       I    between atoms: C_4  and  N_5 
REMARK    3  A    between atoms: N_5  and  C_6 
REMARK    4  A    between atoms: N_8  and  C_9 
REMARK    5  A    between atoms: C_9  and  C_10 
REMARK    6  A    between atoms: C_19  and  C_20 
REMARK    7  A    between atoms: C_23  and  O_24 
ROOT
HETATM    1  N   UNL     1     -41.879  56.224 -52.753  1.00  0.00    -0.338 N 
HETATM    2  C   UNL     1     -41.453  57.247 -51.968  1.00  0.00     0.322 C 
HETATM    3  N   UNL     1     -41.634  58.508 -52.453  1.00  0.00    -0.292 N 
HETATM    4  O   UNL     1     -40.924  57.090 -50.869  1.00  0.00    -0.247 OA
HETATM    5  H   UNL     1     -42.283  56.507 -53.643  1.00  0.00     0.164 HD
HETATM    6  H   UNL     1     -41.285  59.231 -51.843  1.00  0.00     0.172 HD
ENDROOT
BRANCH   1   7
HETATM    7  C   UNL     1     -41.596  54.821 -52.496  1.00  0.00     0.086 C 
HETATM    8  C   UNL     1     -42.910  54.043 -52.463  1.00  0.00     0.032 C 
BRANCH   7   9
HETATM    9  C   UNL     1     -40.655  54.242 -53.572  1.00  0.00     0.063 C 
BRANCH   9  10
HETATM   10  C   UNL     1     -40.287  52.794 -53.338  1.00  0.00    -0.056 A 
HETATM   11  C   UNL     1     -40.412  51.854 -54.372  1.00  0.00     0.010 A 
HETATM   12  C   UNL     1     -40.086  50.513 -54.154  1.00  0.00     0.037 A 
HETATM   13  C   UNL     1     -39.639  50.111 -52.900  1.00  0.00     0.065 A 
HETATM   14  C   UNL     1     -39.515  51.026 -51.862  1.00  0.00     0.037 A 
HETATM   15  C   UNL     1     -39.842  52.365 -52.079  1.00  0.00     0.010 A 
BRANCH  13  16
HETATM   16  O   UNL     1     -39.313  48.812 -52.645  1.00  0.00    -0.361 OA
HETATM   17  H   UNL     1     -39.432  48.649 -51.695  1.00  0.00     0.217 HD
ENDBRANCH  13  16
ENDBRANCH   9  10
ENDBRANCH   7   9
ENDBRANCH   1   7
BRANCH   3  18
HETATM   18  C   UNL     1     -42.165  58.898 -53.662  1.00  0.00     0.153 A 
HETATM   19  N   UNL     1     -41.483  58.957 -54.813  1.00  0.00    -0.154 NA
HETATM   20  N   UNL     1     -42.388  59.395 -55.716  1.00  0.00    -0.275 N 
HETATM   21  C   UNL     1     -43.627  59.598 -55.179  1.00  0.00     0.116 A 
HETATM   22  C   UNL     1     -43.512  59.287 -53.845  1.00  0.00     0.071 A 
BRANCH  20  23
HETATM   23  C   UNL     1     -42.015  59.537 -57.117  1.00  0.00     0.189 C 
BRANCH  23  24
HETATM   24  C   UNL     1     -42.285  58.276 -57.898  1.00  0.00    -0.038 A 
HETATM   25  C   UNL     1     -42.888  57.172 -57.276  1.00  0.00     0.009 A 
HETATM   26  C   UNL     1     -43.134  56.001 -57.994  1.00  0.00     0.001 A 
HETATM   27  C   UNL     1     -42.788  55.923 -59.341  1.00  0.00     0.000 A 
HETATM   28  C   UNL     1     -42.190  57.013 -59.970  1.00  0.00     0.001 A 
HETATM   29  C   UNL     1     -41.938  58.184 -59.254  1.00  0.00     0.009 A 
ENDBRANCH  23  24
ENDBRANCH  20  23
ENDBRANCH   3  18
TORSDOF 7
ENDMDL
MODEL 3
REMARK VINA RESULT:      -8.1      4.524      8.551
REMARK  7 active torsions:
REMARK  status: ('A' for Active; 'I' for Inactive)
REMARK    1  A    between atoms: C_2  and  N_3 
REMARK    2  A    between atoms: C_2  and  C_19 
REMARK       I    between atoms: N_3  and  C_4 
REMARK       I    between atoms: C_4  and  N_5 
REMARK    3  A    between atoms: N_5  and  C_6 
REMARK    4  A    between atoms: N_8  and  C_9 
REMARK    5  A    between atoms: C_9  and  C_10 
REMARK    6  A    between atoms: C_19  and  C_20 
REMARK    7  A    between atoms: C_23  and  O_24 
ROOT
HETATM    1  N   UNL     1     -42.376  55.177 -53.016  1.00  0.00    -0.338 N 
HETATM    2  C   UNL     1     -42.735  54.846 -51.749  1.00  0.00     0.322 C 
HETATM    3  N   UNL     1     -42.699  55.844 -50.821  1.00  0.00    -0.292 N 
HETATM    4  O   UNL     1     -43.080  53.715 -51.410  1.00  0.00    -0.247 OA
HETATM    5  H   UNL     1     -42.099  56.148 -53.143  1.00  0.00     0.164 HD
HETATM    6  H   UNL     1     -42.955  55.544 -49.893  1.00  0.00     0.172 HD
ENDROOT
BRANCH   1   7
HETATM    7  C   UNL     1     -42.166  54.215 -54.086  1.00  0.00     0.086 C 
HETATM    8  C   UNL     1     -42.707  54.792 -55.393  1.00  0.00     0.032 C 
BRANCH   7   9
HETATM    9  C   UNL     1     -40.670  53.869 -54.230  1.00  0.00     0.063 C 
BRANCH   9  10
HETATM   10  C   UNL     1     -40.312  52.497 -53.702  1.00  0.00    -0.056 A 
HETATM   11  C   UNL     1     -39.903  52.334 -52.370  1.00  0.00     0.010 A 
HETATM   12  C   UNL     1     -39.559  51.071 -51.884  1.00  0.00     0.037 A 
HETATM   13  C   UNL     1     -39.620  49.970 -52.732  1.00  0.00     0.065 A 
HETATM   14  C   UNL     1     -40.016  50.113 -54.056  1.00  0.00     0.037 A 
HETATM   15  C   UNL     1     -40.358  51.376 -54.542  1.00  0.00     0.010 A 
BRANCH  13  16
HETATM   16  O   UNL     1     -39.290  48.721 -52.298  1.00  0.00    -0.361 OA
HETATM   17  H   UNL     1     -39.092  48.770 -51.349  1.00  0.00     0.217 HD
ENDBRANCH  13  16
ENDBRANCH   9  10
ENDBRANCH   7   9
ENDBRANCH   1   7
BRANCH   3  18
HETATM   18  C   UNL     1     -42.311  57.155 -50.981  1.00  0.00     0.153 A 
HETATM   19  N   UNL     1     -43.047  58.103 -51.576  1.00  0.00    -0.154 NA
HETATM   20  N   UNL     1     -42.276  59.211 -51.516  1.00  0.00    -0.275 N 
HETATM   21  C   UNL     1     -41.082  59.002 -50.887  1.00  0.00     0.116 A 
HETATM   22  C   UNL     1     -41.074  57.674 -50.531  1.00  0.00     0.071 A 
BRANCH  20  23
HETATM   23  C   UNL     1     -42.776  60.480 -52.029  1.00  0.00     0.189 C 
BRANCH  23  24
HETATM   24  C   UNL     1     -43.302  61.361 -50.925  1.00  0.00    -0.038 A 
HETATM   25  C   UNL     1     -42.889  62.699 -50.827  1.00  0.00     0.009 A 
HETATM   26  C   UNL     1     -43.369  63.516 -49.804  1.00  0.00     0.001 A 
HETATM   27  C   UNL     1     -44.271  63.009 -48.871  1.00  0.00     0.000 A 
HETATM   28  C   UNL     1     -44.690  61.682 -48.958  1.00  0.00     0.001 A 
HETATM   29  C   UNL     1     -44.208  60.861 -49.978  1.00  0.00     0.009 A 
ENDBRANCH  23  24
ENDBRANCH  20  23
ENDBRANCH   3  18
TORSDOF 7
ENDMDL
MODEL 4
REMARK VINA RESULT:      -8.1      2.708      7.858
REMARK  7 active torsions:
REMARK  status: ('A' for Active; 'I' for Inactive)
REMARK    1  A    between atoms: C_2  and  N_3 
REMARK    2  A    between atoms: C_2  and  C_19 
REMARK       I    between atoms: N_3  and  C_4 
REMARK       I    between atoms: C_4  and  N_5 
REMARK    3  A    between atoms: N_5  and  C_6 
REMARK    4  A    between atoms: N_8  and  C_9 
REMARK    5  A    between atoms: C_9  and  C_10 
REMARK    6  A    between atoms: C_19  and  C_20 
REMARK    7  A    between atoms: C_23  and  O_24 
ROOT
HETATM    1  N   UNL     1     -42.074  56.009 -53.604  1.00  0.00    -0.338 N 
HETATM    2  C   UNL     1     -41.904  57.254 -53.090  1.00  0.00     0.322 C 
HETATM    3  N   UNL     1     -42.298  58.299 -53.871  1.00  0.00    -0.292 N 
HETATM    4  O   UNL     1     -41.421  57.475 -51.981  1.00  0.00    -0.247 OA
HETATM    5  H   UNL     1     -42.472  55.983 -54.540  1.00  0.00     0.164 HD
HETATM    6  H   UNL     1     -42.134  59.202 -53.454  1.00  0.00     0.172 HD
ENDROOT
BRANCH   1   7
HETATM    7  C   UNL     1     -41.539  54.795 -53.007  1.00  0.00     0.086 C 
HETATM    8  C   UNL     1     -42.696  53.900 -52.568  1.00  0.00     0.032 C 
BRANCH   7   9
HETATM    9  C   UNL     1     -40.628  54.048 -54.002  1.00  0.00     0.063 C 
BRANCH   9  10
HETATM   10  C   UNL     1     -40.290  52.638 -53.572  1.00  0.00    -0.056 A 
HETATM   11  C   UNL     1     -39.806  52.387 -52.279  1.00  0.00     0.010 A 
HETATM   12  C   UNL     1     -39.480  51.088 -51.883  1.00  0.00     0.037 A 
HETATM   13  C   UNL     1     -39.634  50.039 -52.783  1.00  0.00     0.065 A 
HETATM   14  C   UNL     1     -40.105  50.268 -54.069  1.00  0.00     0.037 A 
HETATM   15  C   UNL     1     -40.429  51.566 -54.465  1.00  0.00     0.010 A 
BRANCH  13  16
HETATM   16  O   UNL     1     -39.325  48.757 -52.438  1.00  0.00    -0.361 OA
HETATM   17  H   UNL     1     -39.862  48.511 -51.667  1.00  0.00     0.217 HD
ENDBRANCH  13  16
ENDBRANCH   9  10
ENDBRANCH   7   9
ENDBRANCH   1   7
BRANCH   3  18
HETATM   18  C   UNL     1     -42.823  58.273 -55.144  1.00  0.00     0.153 A 
HETATM   19  N   UNL     1     -42.129  57.975 -56.250  1.00  0.00    -0.154 NA
HETATM   20  N   UNL     1     -43.031  58.084 -57.250  1.00  0.00    -0.275 N 
HETATM   21  C   UNL     1     -44.280  58.425 -56.812  1.00  0.00     0.116 A 
HETATM   22  C   UNL     1     -44.174  58.558 -55.448  1.00  0.00     0.071 A 
BRANCH  20  23
HETATM   23  C   UNL     1     -42.646  57.779 -58.622  1.00  0.00     0.189 C 
BRANCH  23  24
HETATM   24  C   UNL     1     -43.501  56.687 -59.212  1.00  0.00    -0.038 A 
HETATM   25  C   UNL     1     -43.417  55.375 -58.720  1.00  0.00     0.009 A 
HETATM   26  C   UNL     1     -44.203  54.360 -59.268  1.00  0.00     0.001 A 
HETATM   27  C   UNL     1     -45.084  54.645 -60.308  1.00  0.00     0.000 A 
HETATM   28  C   UNL     1     -45.178  55.944 -60.805  1.00  0.00     0.001 A 
HETATM   29  C   UNL     1     -44.390  56.960 -60.262  1.00  0.00     0.009 A 
ENDBRANCH  23  24
ENDBRANCH  20  23
ENDBRANCH   3  18
TORSDOF 7
ENDMDL
MODEL 5
REMARK VINA RESULT:      -8.0      2.615      3.928
REMARK  7 active torsions:
REMARK  status: ('A' for Active; 'I' for Inactive)
REMARK    1  A    between atoms: C_2  and  N_3 
REMARK    2  A    between atoms: C_2  and  C_19 
REMARK       I    between atoms: N_3  and  C_4 
REMARK       I    between atoms: C_4  and  N_5 
REMARK    3  A    between atoms: N_5  and  C_6 
REMARK    4  A    between atoms: N_8  and  C_9 
REMARK    5  A    between atoms: C_9  and  C_10 
REMARK    6  A    between atoms: C_19  and  C_20 
REMARK    7  A    between atoms: C_23  and  O_24 
ROOT
HETATM    1  N   UNL     1     -42.895  57.475 -51.848  1.00  0.00    -0.338 N 
HETATM    2  C   UNL     1     -43.908  56.677 -51.422  1.00  0.00     0.322 C 
HETATM    3  N   UNL     1     -43.989  55.437 -51.982  1.00  0.00    -0.292 N 
HETATM    4  O   UNL     1     -44.734  57.015 -50.576  1.00  0.00    -0.247 OA
HETATM    5  H   UNL     1     -42.299  57.064 -52.564  1.00  0.00     0.164 HD
HETATM    6  H   UNL     1     -44.768  54.891 -51.647  1.00  0.00     0.172 HD
ENDROOT
BRANCH   1   7
HETATM    7  C   UNL     1     -42.765  58.884 -51.514  1.00  0.00     0.086 C 
HETATM    8  C   UNL     1     -41.475  59.095 -50.724  1.00  0.00     0.032 C 
BRANCH   7   9
HETATM    9  C   UNL     1     -42.764  59.754 -52.787  1.00  0.00     0.063 C 
BRANCH   9  10
HETATM   10  C   UNL     1     -43.221  59.015 -54.025  1.00  0.00    -0.056 A 
HETATM   11  C   UNL     1     -44.588  58.895 -54.316  1.00  0.00     0.010 A 
HETATM   12  C   UNL     1     -45.013  58.201 -55.451  1.00  0.00     0.037 A 
HETATM   13  C   UNL     1     -44.070  57.623 -56.294  1.00  0.00     0.065 A 
HETATM   14  C   UNL     1     -42.713  57.725 -56.019  1.00  0.00     0.037 A 
HETATM   15  C   UNL     1     -42.288  58.416 -54.884  1.00  0.00     0.010 A 
BRANCH  13  16
HETATM   16  O   UNL     1     -44.443  56.935 -57.410  1.00  0.00    -0.361 OA
HETATM   17  H   UNL     1     -43.994  57.330 -58.176  1.00  0.00     0.217 HD
ENDBRANCH  13  16
ENDBRANCH   9  10
ENDBRANCH   7   9
ENDBRANCH   1   7
BRANCH   3  18
HETATM   18  C   UNL     1     -43.197  54.880 -52.961  1.00  0.00     0.153 A 
HETATM   19  N   UNL     1     -41.902  54.572 -52.813  1.00  0.00    -0.154 NA
HETATM   20  N   UNL     1     -41.538  54.072 -54.014  1.00  0.00    -0.275 N 
HETATM   21  C   UNL     1     -42.565  54.034 -54.914  1.00  0.00     0.116 A 
HETATM   22  C   UNL     1     -43.655  54.557 -54.260  1.00  0.00     0.071 A 
BRANCH  20  23
HETATM   23  C   UNL     1     -40.185  53.573 -54.221  1.00  0.00     0.189 C 
BRANCH  23  24
HETATM   24  C   UNL     1     -40.004  52.192 -53.646  1.00  0.00    -0.038 A 
HETATM   25  C   UNL     1     -39.706  52.023 -52.284  1.00  0.00     0.009 A 
HETATM   26  C   UNL     1     -39.533  50.746 -51.750  1.00  0.00     0.001 A 
HETATM   27  C   UNL     1     -39.659  49.625 -52.566  1.00  0.00     0.000 A 
HETATM   28  C   UNL     1     -39.956  49.779 -53.919  1.00  0.00     0.001 A 
HETATM   29  C   UNL     1     -40.125  51.055 -54.458  1.00  0.00     0.009 A 
ENDBRANCH  23  24
ENDBRANCH  20  23
ENDBRANCH   3  18
TORSDOF 7
ENDMDL
MODEL 6
REMARK VINA RESULT:      -7.9      3.757      7.722
REMARK  7 active torsions:
REMARK  status: ('A' for Active; 'I' for Inactive)
REMARK    1  A    between atoms: C_2  and  N_3 
REMARK    2  A    between atoms: C_2  and  C_19 
REMARK       I    between atoms: N_3  and  C_4 
REMARK       I    between atoms: C_4  and  N_5 
REMARK    3  A    between atoms: N_5  and  C_6 
REMARK    4  A    between atoms: N_8  and  C_9 
REMARK    5  A    between atoms: C_9  and  C_10 
REMARK    6  A    between atoms: C_19  and  C_20 
REMARK    7  A    between atoms: C_23  and  O_24 
ROOT
HETATM    1  N   UNL     1     -42.158  55.471 -52.173  1.00  0.00    -0.338 N 
HETATM    2  C   UNL     1     -41.997  55.387 -50.827  1.00  0.00     0.322 C 
HETATM    3  N   UNL     1     -41.775  56.556 -50.162  1.00  0.00    -0.292 N 
HETATM    4  O   UNL     1     -42.041  54.331 -50.199  1.00  0.00    -0.247 OA
HETATM    5  H   UNL     1     -42.081  56.411 -52.556  1.00  0.00     0.164 HD
HETATM    6  H   UNL     1     -41.644  56.439 -49.170  1.00  0.00     0.172 HD
ENDROOT
BRANCH   1   7
HETATM    7  C   UNL     1     -42.208  54.324 -53.066  1.00  0.00     0.086 C 
HETATM    8  C   UNL     1     -43.146  54.635 -54.230  1.00  0.00     0.032 C 
BRANCH   7   9
HETATM    9  C   UNL     1     -40.800  53.972 -53.589  1.00  0.00     0.063 C 
BRANCH   9  10
HETATM   10  C   UNL     1     -40.381  52.550 -53.288  1.00  0.00    -0.056 A 
HETATM   11  C   UNL     1     -39.938  52.197 -52.005  1.00  0.00     0.010 A 
HETATM   12  C   UNL     1     -39.537  50.888 -51.728  1.00  0.00     0.037 A 
HETATM   13  C   UNL     1     -39.575  49.932 -52.738  1.00  0.00     0.065 A 
HETATM   14  C   UNL     1     -40.004  50.265 -54.017  1.00  0.00     0.037 A 
HETATM   15  C   UNL     1     -40.403  51.573 -54.293  1.00  0.00     0.010 A 
BRANCH  13  16
HETATM   16  O   UNL     1     -39.189  48.644 -52.511  1.00  0.00    -0.361 OA
HETATM   17  H   UNL     1     -38.294  48.527 -52.869  1.00  0.00     0.217 HD
ENDBRANCH  13  16
ENDBRANCH   9  10
ENDBRANCH   7   9
ENDBRANCH   1   7
BRANCH   3  18
HETATM   18  C   UNL     1     -41.654  57.829 -50.674  1.00  0.00     0.153 A 
HETATM   19  N   UNL     1     -42.363  58.309 -51.703  1.00  0.00    -0.154 NA
HETATM   20  N   UNL     1     -41.910  59.572 -51.861  1.00  0.00    -0.275 N 
HETATM   21  C   UNL     1     -40.948  59.915 -50.954  1.00  0.00     0.116 A 
HETATM   22  C   UNL     1     -40.758  58.801 -50.172  1.00  0.00     0.071 A 
BRANCH  20  23
HETATM   23  C   UNL     1     -42.495  60.440 -52.875  1.00  0.00     0.189 C 
BRANCH  23  24
HETATM   24  C   UNL     1     -42.977  59.658 -54.070  1.00  0.00    -0.038 A 
HETATM   25  C   UNL     1     -44.340  59.360 -54.221  1.00  0.00     0.009 A 
HETATM   26  C   UNL     1     -44.789  58.632 -55.323  1.00  0.00     0.001 A 
HETATM   27  C   UNL     1     -43.883  58.198 -56.289  1.00  0.00     0.000 A 
HETATM   28  C   UNL     1     -42.527  58.489 -56.151  1.00  0.00     0.001 A 
HETATM   29  C   UNL     1     -42.074  59.213 -55.048  1.00  0.00     0.009 A 
ENDBRANCH  23  24
ENDBRANCH  20  23
ENDBRANCH   3  18
TORSDOF 7
ENDMDL
MODEL 7
REMARK VINA RESULT:      -7.7      2.756      5.226
REMARK  7 active torsions:
REMARK  status: ('A' for Active; 'I' for Inactive)
REMARK    1  A    between atoms: C_2  and  N_3 
REMARK    2  A    between atoms: C_2  and  C_19 
REMARK       I    between atoms: N_3  and  C_4 
REMARK       I    between atoms: C_4  and  N_5 
REMARK    3  A    between atoms: N_5  and  C_6 
REMARK    4  A    between atoms: N_8  and  C_9 
REMARK    5  A    between atoms: C_9  and  C_10 
REMARK    6  A    between atoms: C_19  and  C_20 
REMARK    7  A    between atoms: C_23  and  O_24 
ROOT
HETATM    1  N   UNL     1     -42.581  57.947 -55.915  1.00  0.00    -0.338 N 
HETATM    2  C   UNL     1     -42.478  57.117 -56.985  1.00  0.00     0.322 C 
HETATM    3  N   UNL     1     -42.329  55.789 -56.719  1.00  0.00    -0.292 N 
HETATM    4  O   UNL     1     -42.512  57.502 -58.152  1.00  0.00    -0.247 OA
HETATM    5  H   UNL     1     -42.520  57.486 -55.009  1.00  0.00     0.164 HD
HETATM    6  H   UNL     1     -42.239  55.218 -57.545  1.00  0.00     0.172 HD
ENDROOT
BRANCH   1   7
HETATM    7  C   UNL     1     -42.548  59.398 -55.996  1.00  0.00     0.086 C 
HETATM    8  C   UNL     1     -43.948  59.914 -56.327  1.00  0.00     0.032 C 
BRANCH   7   9
HETATM    9  C   UNL     1     -42.048  60.013 -54.673  1.00  0.00     0.063 C 
BRANCH   9  10
HETATM   10  C   UNL     1     -42.131  59.066 -53.496  1.00  0.00    -0.056 A 
HETATM   11  C   UNL     1     -43.335  58.915 -52.791  1.00  0.00     0.010 A 
HETATM   12  C   UNL     1     -43.411  58.052 -51.696  1.00  0.00     0.037 A 
HETATM   13  C   UNL     1     -42.281  57.343 -51.302  1.00  0.00     0.065 A 
HETATM   14  C   UNL     1     -41.079  57.485 -51.984  1.00  0.00     0.037 A 
HETATM   15  C   UNL     1     -41.003  58.348 -53.077  1.00  0.00     0.010 A 
BRANCH  13  16
HETATM   16  O   UNL     1     -42.311  56.493 -50.237  1.00  0.00    -0.361 OA
HETATM   17  H   UNL     1     -42.610  56.991 -49.458  1.00  0.00     0.217 HD
ENDBRANCH  13  16
ENDBRANCH   9  10
ENDBRANCH   7   9
ENDBRANCH   1   7
BRANCH   3  18
HETATM   18  C   UNL     1     -42.231  55.160 -55.498  1.00  0.00     0.153 A 
HETATM   19  N   UNL     1     -41.080  54.858 -54.884  1.00  0.00    -0.154 NA
HETATM   20  N   UNL     1     -41.461  54.250 -53.740  1.00  0.00    -0.275 N 
HETATM   21  C   UNL     1     -42.817  54.173 -53.598  1.00  0.00     0.116 A 
HETATM   22  C   UNL     1     -43.345  54.753 -54.727  1.00  0.00     0.071 A 
BRANCH  20  23
HETATM   23  C   UNL     1     -40.462  53.816 -52.772  1.00  0.00     0.189 C 
BRANCH  23  24
HETATM   24  C   UNL     1     -40.162  52.344 -52.898  1.00  0.00    -0.038 A 
HETATM   25  C   UNL     1     -40.280  51.700 -54.140  1.00  0.00     0.009 A 
HETATM   26  C   UNL     1     -40.010  50.337 -54.259  1.00  0.00     0.001 A 
HETATM   27  C   UNL     1     -39.614  49.604 -53.143  1.00  0.00     0.000 A 
HETATM   28  C   UNL     1     -39.491  50.232 -51.905  1.00  0.00     0.001 A 
HETATM   29  C   UNL     1     -39.766  51.594 -51.781  1.00  0.00     0.009 A 
ENDBRANCH  23  24
ENDBRANCH  20  23
ENDBRANCH   3  18
TORSDOF 7
ENDMDL
MODEL 8
REMARK VINA RESULT:      -7.4      3.294      7.498
REMARK  7 active torsions:
REMARK  status: ('A' for Active; 'I' for Inactive)
REMARK    1  A    between atoms: C_2  and  N_3 
REMARK    2  A    between atoms: C_2  and  C_19 
REMARK       I    between atoms: N_3  and  C_4 
REMARK       I    between atoms: C_4  and  N_5 
REMARK    3  A    between atoms: N_5  and  C_6 
REMARK    4  A    between atoms: N_8  and  C_9 
REMARK    5  A    between atoms: C_9  and  C_10 
REMARK    6  A    between atoms: C_19  and  C_20 
REMARK    7  A    between atoms: C_23  and  O_24 
ROOT
HETATM    1  N   UNL     1     -42.300  55.655 -55.573  1.00  0.00    -0.338 N 
HETATM    2  C   UNL     1     -43.080  55.822 -56.672  1.00  0.00     0.322 C 
HETATM    3  N   UNL     1     -43.867  56.934 -56.703  1.00  0.00    -0.292 N 
HETATM    4  O   UNL     1     -43.108  55.033 -57.615  1.00  0.00    -0.247 OA
HETATM    5  H   UNL     1     -42.395  56.382 -54.867  1.00  0.00     0.164 HD
HETATM    6  H   UNL     1     -44.440  57.002 -57.530  1.00  0.00     0.172 HD
ENDROOT
BRANCH   1   7
HETATM    7  C   UNL     1     -41.550  54.446 -55.275  1.00  0.00     0.086 C 
HETATM    8  C   UNL     1     -40.108  54.820 -54.937  1.00  0.00     0.032 C 
BRANCH   7   9
HETATM    9  C   UNL     1     -42.193  53.673 -54.106  1.00  0.00     0.063 C 
BRANCH   9  10
HETATM   10  C   UNL     1     -41.974  54.322 -52.758  1.00  0.00    -0.056 A 
HETATM   11  C   UNL     1     -42.729  55.442 -52.378  1.00  0.00     0.010 A 
HETATM   12  C   UNL     1     -42.519  56.053 -51.140  1.00  0.00     0.037 A 
HETATM   13  C   UNL     1     -41.550  55.545 -50.282  1.00  0.00     0.065 A 
HETATM   14  C   UNL     1     -40.788  54.441 -50.643  1.00  0.00     0.037 A 
HETATM   15  C   UNL     1     -40.997  53.833 -51.880  1.00  0.00     0.010 A 
BRANCH  13  16
HETATM   16  O   UNL     1     -41.311  56.112 -49.065  1.00  0.00    -0.361 OA
HETATM   17  H   UNL     1     -42.061  56.688 -48.845  1.00  0.00     0.217 HD
ENDBRANCH  13  16
ENDBRANCH   9  10
ENDBRANCH   7   9
ENDBRANCH   1   7
BRANCH   3  18
HETATM   18  C   UNL     1     -44.012  57.913 -55.746  1.00  0.00     0.153 A 
HETATM   19  N   UNL     1     -43.044  58.754 -55.359  1.00  0.00    -0.154 NA
HETATM   20  N   UNL     1     -43.624  59.518 -54.409  1.00  0.00    -0.275 N 
HETATM   21  C   UNL     1     -44.936  59.203 -54.193  1.00  0.00     0.116 A 
HETATM   22  C   UNL     1     -45.215  58.161 -55.044  1.00  0.00     0.071 A 
BRANCH  20  23
HETATM   23  C   UNL     1     -42.877  60.600 -53.780  1.00  0.00     0.189 C 
BRANCH  23  24
HETATM   24  C   UNL     1     -42.029  60.103 -52.638  1.00  0.00    -0.038 A 
HETATM   25  C   UNL     1     -40.917  59.283 -52.884  1.00  0.00     0.009 A 
HETATM   26  C   UNL     1     -40.132  58.816 -51.829  1.00  0.00     0.001 A 
HETATM   27  C   UNL     1     -40.446  59.168 -50.518  1.00  0.00     0.000 A 
HETATM   28  C   UNL     1     -41.547  59.983 -50.260  1.00  0.00     0.001 A 
HETATM   29  C   UNL     1     -42.336  60.447 -51.313  1.00  0.00     0.009 A 
ENDBRANCH  23  24
ENDBRANCH  20  23
ENDBRANCH   3  18
TORSDOF 7
ENDMDL
MODEL 9
REMARK VINA RESULT:      -7.3      2.560      4.769
REMARK  7 active torsions:
REMARK  status: ('A' for Active; 'I' for Inactive)
REMARK    1  A    between atoms: C_2  and  N_3 
REMARK    2  A    between atoms: C_2  and  C_19 
REMARK       I    between atoms: N_3  and  C_4 
REMARK       I    between atoms: C_4  and  N_5 
REMARK    3  A    between atoms: N_5  and  C_6 
REMARK    4  A    between atoms: N_8  and  C_9 
REMARK    5  A    between atoms: C_9  and  C_10 
REMARK    6  A    between atoms: C_19  and  C_20 
REMARK    7  A    between atoms: C_23  and  O_24 
ROOT
HETATM    1  N   UNL     1     -44.508  56.845 -58.660  1.00  0.00    -0.338 N 
HETATM    2  C   UNL     1     -43.393  56.240 -59.145  1.00  0.00     0.322 C 
HETATM    3  N   UNL     1     -42.522  55.733 -58.227  1.00  0.00    -0.292 N 
HETATM    4  O   UNL     1     -43.141  56.133 -60.344  1.00  0.00    -0.247 OA
HETATM    5  H   UNL     1     -44.573  56.872 -57.644  1.00  0.00     0.164 HD
HETATM    6  H   UNL     1     -41.702  55.311 -58.636  1.00  0.00     0.172 HD
ENDROOT
BRANCH   1   7
HETATM    7  C   UNL     1     -45.443  57.610 -59.469  1.00  0.00     0.086 C 
HETATM    8  C   UNL     1     -46.800  56.908 -59.463  1.00  0.00     0.032 C 
BRANCH   7   9
HETATM    9  C   UNL     1     -45.581  59.051 -58.938  1.00  0.00     0.063 C 
BRANCH   9  10
HETATM   10  C   UNL     1     -44.257  59.699 -58.597  1.00  0.00    -0.056 A 
HETATM   11  C   UNL     1     -43.973  60.082 -57.278  1.00  0.00     0.010 A 
HETATM   12  C   UNL     1     -42.757  60.694 -56.964  1.00  0.00     0.037 A 
HETATM   13  C   UNL     1     -41.827  60.927 -57.971  1.00  0.00     0.065 A 
HETATM   14  C   UNL     1     -42.093  60.561 -59.284  1.00  0.00     0.037 A 
HETATM   15  C   UNL     1     -43.308  59.952 -59.598  1.00  0.00     0.010 A 
BRANCH  13  16
HETATM   16  O   UNL     1     -40.630  61.523 -57.707  1.00  0.00    -0.361 OA
HETATM   17  H   UNL     1     -40.468  61.473 -56.751  1.00  0.00     0.217 HD
ENDBRANCH  13  16
ENDBRANCH   9  10
ENDBRANCH   7   9
ENDBRANCH   1   7
BRANCH   3  18
HETATM   18  C   UNL     1     -42.595  55.778 -56.853  1.00  0.00     0.153 A 
HETATM   19  N   UNL     1     -43.064  54.790 -56.080  1.00  0.00    -0.154 NA
HETATM   20  N   UNL     1     -42.959  55.271 -54.822  1.00  0.00    -0.275 N 
HETATM   21  C   UNL     1     -42.421  56.526 -54.770  1.00  0.00     0.116 A 
HETATM   22  C   UNL     1     -42.178  56.883 -56.075  1.00  0.00     0.071 A 
BRANCH  20  23
HETATM   23  C   UNL     1     -43.334  54.440 -53.685  1.00  0.00     0.189 C 
BRANCH  23  24
HETATM   24  C   UNL     1     -42.137  53.762 -53.069  1.00  0.00    -0.038 A 
HETATM   25  C   UNL     1     -41.273  52.990 -53.862  1.00  0.00     0.009 A 
HETATM   26  C   UNL     1     -40.167  52.356 -53.294  1.00  0.00     0.001 A 
HETATM   27  C   UNL     1     -39.909  52.491 -51.932  1.00  0.00     0.000 A 
HETATM   28  C   UNL     1     -40.758  53.257 -51.135  1.00  0.00     0.001 A 
HETATM   29  C   UNL     1     -41.868  53.888 -51.698  1.00  0.00     0.009 A 
ENDBRANCH  23  24
ENDBRANCH  20  23
ENDBRANCH   3  18
TORSDOF 7
ENDMDL
MODEL 10
REMARK VINA RESULT:      -7.3      1.964      2.216
REMARK  7 active torsions:
REMARK  status: ('A' for Active; 'I' for Inactive)
REMARK    1  A    between atoms: C_2  and  N_3 
REMARK    2  A    between atoms: C_2  and  C_19 
REMARK       I    between atoms: N_3  and  C_4 
REMARK       I    between atoms: C_4  and  N_5 
REMARK    3  A    between atoms: N_5  and  C_6 
REMARK    4  A    between atoms: N_8  and  C_9 
REMARK    5  A    between atoms: C_9  and  C_10 
REMARK    6  A    between atoms: C_19  and  C_20 
REMARK    7  A    between atoms: C_23  and  O_24 
ROOT
HETATM    1  N   UNL     1     -42.543  57.472 -53.451  1.00  0.00    -0.338 N 
HETATM    2  C   UNL     1     -42.967  57.979 -52.265  1.00  0.00     0.322 C 
HETATM    3  N   UNL     1     -42.845  57.171 -51.174  1.00  0.00    -0.292 N 
HETATM    4  O   UNL     1     -43.444  59.105 -52.136  1.00  0.00    -0.247 OA
HETATM    5  H   UNL     1     -42.185  56.520 -53.406  1.00  0.00     0.164 HD
HETATM    6  H   UNL     1     -43.191  57.586 -50.322  1.00  0.00     0.172 HD
ENDROOT
BRANCH   1   7
HETATM    7  C   UNL     1     -42.770  58.103 -54.741  1.00  0.00     0.086 C 
HETATM    8  C   UNL     1     -41.888  59.345 -54.855  1.00  0.00     0.032 C 
BRANCH   7   9
HETATM    9  C   UNL     1     -42.471  57.123 -55.894  1.00  0.00     0.063 C 
BRANCH   9  10
HETATM   10  C   UNL     1     -42.989  57.591 -57.236  1.00  0.00    -0.056 A 
HETATM   11  C   UNL     1     -44.369  57.646 -57.484  1.00  0.00     0.010 A 
HETATM   12  C   UNL     1     -44.850  58.064 -58.727  1.00  0.00     0.037 A 
HETATM   13  C   UNL     1     -43.949  58.424 -59.724  1.00  0.00     0.065 A 
HETATM   14  C   UNL     1     -42.580  58.369 -59.499  1.00  0.00     0.037 A 
HETATM   15  C   UNL     1     -42.100  57.950 -58.258  1.00  0.00     0.010 A 
BRANCH  13  16
HETATM   16  O   UNL     1     -44.377  58.835 -60.952  1.00  0.00    -0.361 OA
HETATM   17  H   UNL     1     -45.347  58.882 -60.937  1.00  0.00     0.217 HD
ENDBRANCH  13  16
ENDBRANCH   9  10
ENDBRANCH   7   9
ENDBRANCH   1   7
BRANCH   3  18
HETATM   18  C   UNL     1     -42.377  55.878 -51.107  1.00  0.00     0.153 A 
HETATM   19  N   UNL     1     -41.088  55.526 -51.201  1.00  0.00    -0.154 NA
HETATM   20  N   UNL     1     -41.101  54.179 -51.096  1.00  0.00    -0.275 N 
HETATM   21  C   UNL     1     -42.355  53.666 -50.920  1.00  0.00     0.116 A 
HETATM   22  C   UNL     1     -43.205  54.746 -50.927  1.00  0.00     0.071 A 
BRANCH  20  23
HETATM   23  C   UNL     1     -39.850  53.431 -51.104  1.00  0.00     0.189 C 
BRANCH  23  24
HETATM   24  C   UNL     1     -39.886  52.293 -52.091  1.00  0.00    -0.038 A 
HETATM   25  C   UNL     1     -40.219  52.528 -53.434  1.00  0.00     0.009 A 
HETATM   26  C   UNL     1     -40.259  51.476 -54.349  1.00  0.00     0.001 A 
HETATM   27  C   UNL     1     -39.961  50.179 -53.935  1.00  0.00     0.000 A 
HETATM   28  C   UNL     1     -39.627  49.933 -52.605  1.00  0.00     0.001 A 
HETATM   29  C   UNL     1     -39.592  50.982 -51.685  1.00  0.00     0.009 A 
ENDBRANCH  23  24
ENDBRANCH  20  23
ENDBRANCH   3  18
TORSDOF 7
ENDMDL
