MODEL 1
REMARK VINA RESULT:      -9.1      0.000      0.000
REMARK  2 active torsions:
REMARK  status: ('A' for Active; 'I' for Inactive)
REMARK    1  A    between atoms: N_4  and  C_5 
REMARK    2  A    between atoms: C_15  and  C_16 
REMARK       I    between atoms: C_16  and  N_17 
ROOT
HETATM    1  C   UNL     1     -41.911  60.468 -56.882  1.00  0.00     0.073 C 
HETATM    2  C   UNL     1     -42.770  59.263 -56.975  1.00  0.00     0.069 C 
HETATM    3  N   UNL     1     -43.583  59.087 -58.027  1.00  0.00    -0.170 NA
HETATM    4  N   UNL     1     -44.168  57.865 -57.828  1.00  0.00    -0.216 N 
HETATM    5  C   UNL     1     -43.891  57.415 -56.549  1.00  0.00     0.145 C 
HETATM    6  C   UNL     1     -42.917  58.231 -56.028  1.00  0.00     0.087 C 
HETATM    7  N   UNL     1     -44.440  56.395 -55.846  1.00  0.00    -0.349 N 
HETATM    8  C   UNL     1     -44.008  56.203 -54.546  1.00  0.00     0.111 C 
HETATM    9  C   UNL     1     -43.028  56.915 -53.943  1.00  0.00     0.099 C 
HETATM   10  C   UNL     1     -42.315  57.971 -54.734  1.00  0.00     0.205 C 
HETATM   11  O   UNL     1     -41.315  58.558 -54.339  1.00  0.00    -0.286 OA
HETATM   12  H   UNL     1     -45.286  55.902 -56.129  1.00  0.00     0.167 HD
ENDROOT
BRANCH   9  13
HETATM   13  C   UNL     1     -42.685  56.498 -52.561  1.00  0.00     0.264 C 
HETATM   14  N   UNL     1     -41.969  55.329 -52.361  1.00  0.00    -0.309 N 
HETATM   15  C   UNL     1     -41.517  54.315 -53.358  1.00  0.00     0.093 C 
HETATM   16  C   UNL     1     -41.453  54.926 -51.100  1.00  0.00     0.044 A 
HETATM   17  C   UNL     1     -40.362  54.837 -54.217  1.00  0.00     0.033 C 
HETATM   18  C   UNL     1     -41.083  53.072 -52.550  1.00  0.00     0.066 C 
HETATM   19  C   UNL     1     -40.892  53.651 -51.187  1.00  0.00    -0.029 A 
HETATM   20  C   UNL     1     -40.310  53.033 -50.090  1.00  0.00     0.009 A 
HETATM   21  C   UNL     1     -40.274  53.727 -48.882  1.00  0.00     0.001 A 
HETATM   22  C   UNL     1     -40.828  55.011 -48.787  1.00  0.00     0.002 A 
HETATM   23  C   UNL     1     -41.429  55.614 -49.898  1.00  0.00     0.030 A 
HETATM   24  O   UNL     1     -43.002  57.277 -51.656  1.00  0.00    -0.267 OA
ENDBRANCH   9  13
BRANCH   4  25
HETATM   25  C   UNL     1     -44.889  57.236 -58.881  1.00  0.00     0.060 A 
HETATM   26  C   UNL     1     -46.249  57.497 -59.094  1.00  0.00     0.031 A 
HETATM   27  C   UNL     1     -46.941  56.832 -60.112  1.00  0.00     0.002 A 
HETATM   28  C   UNL     1     -46.284  55.903 -60.916  1.00  0.00     0.000 A 
HETATM   29  C   UNL     1     -44.936  55.626 -60.700  1.00  0.00     0.002 A 
HETATM   30  C   UNL     1     -44.241  56.281 -59.681  1.00  0.00     0.031 A 
ENDBRANCH   4  25
TORSDOF 2
ENDMDL
MODEL 2
REMARK VINA RESULT:      -9.0      2.378      7.936
REMARK  2 active torsions:
REMARK  status: ('A' for Active; 'I' for Inactive)
REMARK    1  A    between atoms: N_4  and  C_5 
REMARK    2  A    between atoms: C_15  and  C_16 
REMARK       I    between atoms: C_16  and  N_17 
ROOT
HETATM    1  C   UNL     1     -41.316  55.294 -49.211  1.00  0.00     0.073 C 
HETATM    2  C   UNL     1     -41.012  54.755 -50.558  1.00  0.00     0.069 C 
HETATM    3  N   UNL     1     -40.451  53.544 -50.696  1.00  0.00    -0.170 NA
HETATM    4  N   UNL     1     -40.373  53.336 -52.047  1.00  0.00    -0.216 N 
HETATM    5  C   UNL     1     -40.665  54.510 -52.719  1.00  0.00     0.145 C 
HETATM    6  C   UNL     1     -41.180  55.393 -51.802  1.00  0.00     0.087 C 
HETATM    7  N   UNL     1     -40.487  54.834 -54.023  1.00  0.00    -0.349 N 
HETATM    8  C   UNL     1     -40.817  56.119 -54.418  1.00  0.00     0.111 C 
HETATM    9  C   UNL     1     -41.369  57.057 -53.614  1.00  0.00     0.099 C 
HETATM   10  C   UNL     1     -41.692  56.691 -52.196  1.00  0.00     0.205 C 
HETATM   11  O   UNL     1     -42.334  57.408 -51.438  1.00  0.00    -0.286 OA
HETATM   12  H   UNL     1     -39.936  54.277 -54.676  1.00  0.00     0.167 HD
ENDROOT
BRANCH   9  13
HETATM   13  C   UNL     1     -41.696  58.351 -54.264  1.00  0.00     0.264 C 
HETATM   14  N   UNL     1     -42.859  58.462 -55.009  1.00  0.00    -0.309 N 
HETATM   15  C   UNL     1     -43.868  57.416 -55.350  1.00  0.00     0.093 C 
HETATM   16  C   UNL     1     -43.345  59.689 -55.534  1.00  0.00     0.044 A 
HETATM   17  C   UNL     1     -44.719  57.029 -54.138  1.00  0.00     0.033 C 
HETATM   18  C   UNL     1     -44.747  58.008 -56.474  1.00  0.00     0.066 C 
HETATM   19  C   UNL     1     -44.461  59.467 -56.342  1.00  0.00    -0.029 A 
HETATM   20  C   UNL     1     -45.129  60.510 -56.967  1.00  0.00     0.009 A 
HETATM   21  C   UNL     1     -44.672  61.810 -56.755  1.00  0.00     0.001 A 
HETATM   22  C   UNL     1     -43.557  62.043 -55.939  1.00  0.00     0.002 A 
HETATM   23  C   UNL     1     -42.882  60.980 -55.329  1.00  0.00     0.030 A 
HETATM   24  O   UNL     1     -40.931  59.292 -54.034  1.00  0.00    -0.267 OA
ENDBRANCH   9  13
BRANCH   4  25
HETATM   25  C   UNL     1     -40.074  52.042 -52.557  1.00  0.00     0.060 A 
HETATM   26  C   UNL     1     -40.215  51.742 -53.918  1.00  0.00     0.031 A 
HETATM   27  C   UNL     1     -39.953  50.450 -54.384  1.00  0.00     0.002 A 
HETATM   28  C   UNL     1     -39.555  49.452 -53.496  1.00  0.00     0.000 A 
HETATM   29  C   UNL     1     -39.428  49.738 -52.139  1.00  0.00     0.002 A 
HETATM   30  C   UNL     1     -39.695  51.024 -51.667  1.00  0.00     0.031 A 
ENDBRANCH   4  25
TORSDOF 2
ENDMDL
MODEL 3
REMARK VINA RESULT:      -9.0      1.911      2.813
REMARK  2 active torsions:
REMARK  status: ('A' for Active; 'I' for Inactive)
REMARK    1  A    between atoms: N_4  and  C_5 
REMARK    2  A    between atoms: C_15  and  C_16 
REMARK       I    between atoms: C_16  and  N_17 
ROOT
HETATM    1  C   UNL     1     -42.297  59.917 -54.089  1.00  0.00     0.073 C 
HETATM    2  C   UNL     1     -42.824  58.980 -55.110  1.00  0.00     0.069 C 
HETATM    3  N   UNL     1     -43.813  59.357 -55.935  1.00  0.00    -0.170 NA
HETATM    4  N   UNL     1     -44.004  58.294 -56.776  1.00  0.00    -0.216 N 
HETATM    5  C   UNL     1     -43.300  57.196 -56.312  1.00  0.00     0.145 C 
HETATM    6  C   UNL     1     -42.458  57.636 -55.320  1.00  0.00     0.087 C 
HETATM    7  N   UNL     1     -43.377  55.894 -56.679  1.00  0.00    -0.349 N 
HETATM    8  C   UNL     1     -42.587  54.985 -55.996  1.00  0.00     0.111 C 
HETATM    9  C   UNL     1     -41.693  55.308 -55.033  1.00  0.00     0.099 C 
HETATM   10  C   UNL     1     -41.496  56.754 -54.689  1.00  0.00     0.205 C 
HETATM   11  O   UNL     1     -40.605  57.163 -53.953  1.00  0.00    -0.286 OA
HETATM   12  H   UNL     1     -44.118  55.513 -57.266  1.00  0.00     0.167 HD
ENDROOT
BRANCH   9  13
HETATM   13  C   UNL     1     -40.910  54.177 -54.476  1.00  0.00     0.264 C 
HETATM   14  N   UNL     1     -41.065  53.835 -53.143  1.00  0.00    -0.309 N 
HETATM   15  C   UNL     1     -41.882  54.498 -52.084  1.00  0.00     0.093 C 
HETATM   16  C   UNL     1     -40.490  52.677 -52.554  1.00  0.00     0.044 A 
HETATM   17  C   UNL     1     -43.380  54.254 -52.287  1.00  0.00     0.033 C 
HETATM   18  C   UNL     1     -41.407  53.914 -50.736  1.00  0.00     0.066 C 
HETATM   19  C   UNL     1     -40.713  52.668 -51.176  1.00  0.00    -0.029 A 
HETATM   20  C   UNL     1     -40.258  51.634 -50.370  1.00  0.00     0.009 A 
HETATM   21  C   UNL     1     -39.581  50.575 -50.971  1.00  0.00     0.001 A 
HETATM   22  C   UNL     1     -39.359  50.572 -52.355  1.00  0.00     0.002 A 
HETATM   23  C   UNL     1     -39.808  51.630 -53.153  1.00  0.00     0.030 A 
HETATM   24  O   UNL     1     -40.209  53.547 -55.274  1.00  0.00    -0.267 OA
ENDBRANCH   9  13
BRANCH   4  25
HETATM   25  C   UNL     1     -44.794  58.442 -57.950  1.00  0.00     0.060 A 
HETATM   26  C   UNL     1     -46.167  58.162 -57.947  1.00  0.00     0.031 A 
HETATM   27  C   UNL     1     -46.910  58.277 -59.126  1.00  0.00     0.002 A 
HETATM   28  C   UNL     1     -46.289  58.667 -60.311  1.00  0.00     0.000 A 
HETATM   29  C   UNL     1     -44.922  58.933 -60.325  1.00  0.00     0.002 A 
HETATM   30  C   UNL     1     -44.173  58.812 -59.153  1.00  0.00     0.031 A 
ENDBRANCH   4  25
TORSDOF 2
ENDMDL
MODEL 4
REMARK VINA RESULT:      -8.9      3.209      5.862
REMARK  2 active torsions:
REMARK  status: ('A' for Active; 'I' for Inactive)
REMARK    1  A    between atoms: N_4  and  C_5 
REMARK    2  A    between atoms: C_15  and  C_16 
REMARK       I    between atoms: C_16  and  N_17 
ROOT
HETATM    1  C   UNL     1     -45.521  57.958 -55.644  1.00  0.00     0.073 C 
HETATM    2  C   UNL     1     -44.471  58.356 -54.676  1.00  0.00     0.069 C 
HETATM    3  N   UNL     1     -44.407  59.616 -54.220  1.00  0.00    -0.170 NA
HETATM    4  N   UNL     1     -43.384  59.618 -53.311  1.00  0.00    -0.216 N 
HETATM    5  C   UNL     1     -42.682  58.428 -53.392  1.00  0.00     0.145 C 
HETATM    6  C   UNL     1     -43.418  57.568 -54.172  1.00  0.00     0.087 C 
HETATM    7  N   UNL     1     -41.481  58.087 -52.866  1.00  0.00    -0.349 N 
HETATM    8  C   UNL     1     -40.981  56.831 -53.160  1.00  0.00     0.111 C 
HETATM    9  C   UNL     1     -41.634  55.888 -53.880  1.00  0.00     0.099 C 
HETATM   10  C   UNL     1     -43.018  56.189 -54.373  1.00  0.00     0.205 C 
HETATM   11  O   UNL     1     -43.752  55.356 -54.891  1.00  0.00    -0.286 OA
HETATM   12  H   UNL     1     -40.832  58.757 -52.453  1.00  0.00     0.167 HD
ENDROOT
BRANCH   9  13
HETATM   13  C   UNL     1     -40.934  54.587 -54.022  1.00  0.00     0.264 C 
HETATM   14  N   UNL     1     -40.770  53.778 -52.910  1.00  0.00    -0.309 N 
HETATM   15  C   UNL     1     -41.136  54.041 -51.487  1.00  0.00     0.093 C 
HETATM   16  C   UNL     1     -40.262  52.452 -52.967  1.00  0.00     0.044 A 
HETATM   17  C   UNL     1     -42.650  53.978 -51.268  1.00  0.00     0.033 C 
HETATM   18  C   UNL     1     -40.414  52.966 -50.645  1.00  0.00     0.066 C 
HETATM   19  C   UNL     1     -40.093  51.939 -51.680  1.00  0.00    -0.029 A 
HETATM   20  C   UNL     1     -39.617  50.654 -51.464  1.00  0.00     0.009 A 
HETATM   21  C   UNL     1     -39.326  49.861 -52.573  1.00  0.00     0.001 A 
HETATM   22  C   UNL     1     -39.501  50.366 -53.869  1.00  0.00     0.002 A 
HETATM   23  C   UNL     1     -39.964  51.670 -54.071  1.00  0.00     0.030 A 
HETATM   24  O   UNL     1     -40.601  54.264 -55.166  1.00  0.00    -0.267 OA
ENDBRANCH   9  13
BRANCH   4  25
HETATM   25  C   UNL     1     -43.206  60.725 -52.435  1.00  0.00     0.060 A 
HETATM   26  C   UNL     1     -42.961  60.542 -51.067  1.00  0.00     0.031 A 
HETATM   27  C   UNL     1     -42.831  61.649 -50.223  1.00  0.00     0.002 A 
HETATM   28  C   UNL     1     -42.949  62.939 -50.735  1.00  0.00     0.000 A 
HETATM   29  C   UNL     1     -43.208  63.129 -52.090  1.00  0.00     0.002 A 
HETATM   30  C   UNL     1     -43.346  62.028 -52.937  1.00  0.00     0.031 A 
ENDBRANCH   4  25
TORSDOF 2
ENDMDL
MODEL 5
REMARK VINA RESULT:      -8.8      3.631      7.106
REMARK  2 active torsions:
REMARK  status: ('A' for Active; 'I' for Inactive)
REMARK    1  A    between atoms: N_4  and  C_5 
REMARK    2  A    between atoms: C_15  and  C_16 
REMARK       I    between atoms: C_16  and  N_17 
ROOT
HETATM    1  C   UNL     1     -42.807  55.683 -56.810  1.00  0.00     0.073 C 
HETATM    2  C   UNL     1     -42.235  55.291 -55.499  1.00  0.00     0.069 C 
HETATM    3  N   UNL     1     -41.980  54.003 -55.225  1.00  0.00    -0.170 NA
HETATM    4  N   UNL     1     -41.407  54.008 -53.982  1.00  0.00    -0.216 N 
HETATM    5  C   UNL     1     -41.532  55.263 -53.412  1.00  0.00     0.145 C 
HETATM    6  C   UNL     1     -41.955  56.122 -54.397  1.00  0.00     0.087 C 
HETATM    7  N   UNL     1     -41.330  55.663 -52.134  1.00  0.00    -0.349 N 
HETATM    8  C   UNL     1     -41.592  56.986 -51.823  1.00  0.00     0.111 C 
HETATM    9  C   UNL     1     -41.971  57.929 -52.717  1.00  0.00     0.099 C 
HETATM   10  C   UNL     1     -42.086  57.547 -54.163  1.00  0.00     0.205 C 
HETATM   11  O   UNL     1     -42.264  58.353 -55.067  1.00  0.00    -0.286 OA
HETATM   12  H   UNL     1     -41.207  55.021 -51.351  1.00  0.00     0.167 HD
ENDROOT
BRANCH   9  13
HETATM   13  C   UNL     1     -42.141  59.300 -52.174  1.00  0.00     0.264 C 
HETATM   14  N   UNL     1     -43.417  59.780 -51.928  1.00  0.00    -0.309 N 
HETATM   15  C   UNL     1     -44.738  59.141 -52.202  1.00  0.00     0.093 C 
HETATM   16  C   UNL     1     -43.683  61.007 -51.262  1.00  0.00     0.044 A 
HETATM   17  C   UNL     1     -45.022  57.987 -51.237  1.00  0.00     0.033 C 
HETATM   18  C   UNL     1     -45.799  60.254 -52.056  1.00  0.00     0.066 C 
HETATM   19  C   UNL     1     -45.051  61.283 -51.275  1.00  0.00    -0.029 A 
HETATM   20  C   UNL     1     -45.571  62.423 -50.680  1.00  0.00     0.009 A 
HETATM   21  C   UNL     1     -44.693  63.293 -50.037  1.00  0.00     0.001 A 
HETATM   22  C   UNL     1     -43.319  63.020 -50.012  1.00  0.00     0.002 A 
HETATM   23  C   UNL     1     -42.806  61.876 -50.633  1.00  0.00     0.030 A 
HETATM   24  O   UNL     1     -41.106  59.914 -51.897  1.00  0.00    -0.267 OA
ENDBRANCH   9  13
BRANCH   4  25
HETATM   25  C   UNL     1     -40.765  52.839 -53.485  1.00  0.00     0.060 A 
HETATM   26  C   UNL     1     -40.287  52.772 -52.169  1.00  0.00     0.031 A 
HETATM   27  C   UNL     1     -39.623  51.625 -51.721  1.00  0.00     0.002 A 
HETATM   28  C   UNL     1     -39.429  50.546 -52.581  1.00  0.00     0.000 A 
HETATM   29  C   UNL     1     -39.887  50.612 -53.895  1.00  0.00     0.002 A 
HETATM   30  C   UNL     1     -40.543  51.757 -54.350  1.00  0.00     0.031 A 
ENDBRANCH   4  25
TORSDOF 2
ENDMDL
MODEL 6
REMARK VINA RESULT:      -8.8      1.319      2.061
REMARK  2 active torsions:
REMARK  status: ('A' for Active; 'I' for Inactive)
REMARK    1  A    between atoms: N_4  and  C_5 
REMARK    2  A    between atoms: C_15  and  C_16 
REMARK       I    between atoms: C_16  and  N_17 
ROOT
HETATM    1  C   UNL     1     -42.130  59.738 -56.057  1.00  0.00     0.073 C 
HETATM    2  C   UNL     1     -42.715  58.451 -56.506  1.00  0.00     0.069 C 
HETATM    3  N   UNL     1     -43.609  58.422 -57.505  1.00  0.00    -0.170 NA
HETATM    4  N   UNL     1     -43.884  57.096 -57.702  1.00  0.00    -0.216 N 
HETATM    5  C   UNL     1     -43.340  56.346 -56.674  1.00  0.00     0.145 C 
HETATM    6  C   UNL     1     -42.502  57.170 -55.963  1.00  0.00     0.087 C 
HETATM    7  N   UNL     1     -43.553  55.052 -56.332  1.00  0.00    -0.349 N 
HETATM    8  C   UNL     1     -42.913  54.570 -55.204  1.00  0.00     0.111 C 
HETATM    9  C   UNL     1     -42.035  55.275 -54.453  1.00  0.00     0.099 C 
HETATM   10  C   UNL     1     -41.684  56.670 -54.875  1.00  0.00     0.205 C 
HETATM   11  O   UNL     1     -40.788  57.330 -54.362  1.00  0.00    -0.286 OA
HETATM   12  H   UNL     1     -44.305  54.481 -56.716  1.00  0.00     0.167 HD
ENDROOT
BRANCH   9  13
HETATM   13  C   UNL     1     -41.421  54.539 -53.320  1.00  0.00     0.264 C 
HETATM   14  N   UNL     1     -41.514  55.062 -52.040  1.00  0.00    -0.309 N 
HETATM   15  C   UNL     1     -42.100  56.358 -51.588  1.00  0.00     0.093 C 
HETATM   16  C   UNL     1     -41.106  54.364 -50.871  1.00  0.00     0.044 A 
HETATM   17  C   UNL     1     -43.629  56.346 -51.658  1.00  0.00     0.033 C 
HETATM   18  C   UNL     1     -41.618  56.571 -50.136  1.00  0.00     0.066 C 
HETATM   19  C   UNL     1     -41.202  55.190 -49.751  1.00  0.00    -0.029 A 
HETATM   20  C   UNL     1     -40.869  54.740 -48.481  1.00  0.00     0.009 A 
HETATM   21  C   UNL     1     -40.451  53.418 -48.337  1.00  0.00     0.001 A 
HETATM   22  C   UNL     1     -40.360  52.579 -49.455  1.00  0.00     0.002 A 
HETATM   23  C   UNL     1     -40.681  53.052 -50.732  1.00  0.00     0.030 A 
HETATM   24  O   UNL     1     -40.920  53.441 -53.582  1.00  0.00    -0.267 OA
ENDBRANCH   9  13
BRANCH   4  25
HETATM   25  C   UNL     1     -44.592  56.675 -58.863  1.00  0.00     0.060 A 
HETATM   26  C   UNL     1     -45.883  57.143 -59.141  1.00  0.00     0.031 A 
HETATM   27  C   UNL     1     -46.570  56.681 -60.268  1.00  0.00     0.002 A 
HETATM   28  C   UNL     1     -45.978  55.749 -61.117  1.00  0.00     0.000 A 
HETATM   29  C   UNL     1     -44.701  55.267 -60.839  1.00  0.00     0.002 A 
HETATM   30  C   UNL     1     -44.012  55.719 -59.712  1.00  0.00     0.031 A 
ENDBRANCH   4  25
TORSDOF 2
ENDMDL
MODEL 7
REMARK VINA RESULT:      -8.7      3.654      7.014
REMARK  2 active torsions:
REMARK  status: ('A' for Active; 'I' for Inactive)
REMARK    1  A    between atoms: N_4  and  C_5 
REMARK    2  A    between atoms: C_15  and  C_16 
REMARK       I    between atoms: C_16  and  N_17 
ROOT
HETATM    1  C   UNL     1     -43.220  55.715 -56.599  1.00  0.00     0.073 C 
HETATM    2  C   UNL     1     -42.801  55.193 -55.276  1.00  0.00     0.069 C 
HETATM    3  N   UNL     1     -42.205  53.995 -55.174  1.00  0.00    -0.170 NA
HETATM    4  N   UNL     1     -41.898  53.859 -53.848  1.00  0.00    -0.216 N 
HETATM    5  C   UNL     1     -42.516  54.859 -53.117  1.00  0.00     0.145 C 
HETATM    6  C   UNL     1     -43.004  55.780 -54.012  1.00  0.00     0.087 C 
HETATM    7  N   UNL     1     -42.686  54.982 -51.779  1.00  0.00    -0.349 N 
HETATM    8  C   UNL     1     -43.407  56.071 -51.318  1.00  0.00     0.111 C 
HETATM    9  C   UNL     1     -43.897  57.060 -52.101  1.00  0.00     0.099 C 
HETATM   10  C   UNL     1     -43.620  57.017 -53.574  1.00  0.00     0.205 C 
HETATM   11  O   UNL     1     -43.878  57.937 -54.342  1.00  0.00    -0.286 OA
HETATM   12  H   UNL     1     -42.509  54.231 -51.113  1.00  0.00     0.167 HD
ENDROOT
BRANCH   9  13
HETATM   13  C   UNL     1     -44.588  58.163 -51.387  1.00  0.00     0.264 C 
HETATM   14  N   UNL     1     -43.873  59.294 -51.029  1.00  0.00    -0.309 N 
HETATM   15  C   UNL     1     -42.416  59.581 -51.184  1.00  0.00     0.093 C 
HETATM   16  C   UNL     1     -44.469  60.467 -50.492  1.00  0.00     0.044 A 
HETATM   17  C   UNL     1     -42.041  59.846 -52.644  1.00  0.00     0.033 C 
HETATM   18  C   UNL     1     -42.120  60.817 -50.307  1.00  0.00     0.066 C 
HETATM   19  C   UNL     1     -43.488  61.384 -50.112  1.00  0.00    -0.029 A 
HETATM   20  C   UNL     1     -43.813  62.617 -49.566  1.00  0.00     0.009 A 
HETATM   21  C   UNL     1     -45.161  62.941 -49.420  1.00  0.00     0.001 A 
HETATM   22  C   UNL     1     -46.153  62.029 -49.806  1.00  0.00     0.002 A 
HETATM   23  C   UNL     1     -45.810  60.782 -50.338  1.00  0.00     0.030 A 
HETATM   24  O   UNL     1     -45.804  58.033 -51.220  1.00  0.00    -0.267 OA
ENDBRANCH   9  13
BRANCH   4  25
HETATM   25  C   UNL     1     -41.019  52.826 -53.418  1.00  0.00     0.060 A 
HETATM   26  C   UNL     1     -40.378  52.882 -52.173  1.00  0.00     0.031 A 
HETATM   27  C   UNL     1     -39.488  51.871 -51.795  1.00  0.00     0.002 A 
HETATM   28  C   UNL     1     -39.230  50.806 -52.655  1.00  0.00     0.000 A 
HETATM   29  C   UNL     1     -39.851  50.752 -53.901  1.00  0.00     0.002 A 
HETATM   30  C   UNL     1     -40.735  51.761 -54.287  1.00  0.00     0.031 A 
ENDBRANCH   4  25
TORSDOF 2
ENDMDL
MODEL 8
REMARK VINA RESULT:      -8.7      1.943      2.763
REMARK  2 active torsions:
REMARK  status: ('A' for Active; 'I' for Inactive)
REMARK    1  A    between atoms: N_4  and  C_5 
REMARK    2  A    between atoms: C_15  and  C_16 
REMARK       I    between atoms: C_16  and  N_17 
ROOT
HETATM    1  C   UNL     1     -41.749  59.859 -53.991  1.00  0.00     0.073 C 
HETATM    2  C   UNL     1     -42.626  58.858 -54.645  1.00  0.00     0.069 C 
HETATM    3  N   UNL     1     -43.546  59.241 -55.543  1.00  0.00    -0.170 NA
HETATM    4  N   UNL     1     -44.118  58.080 -55.987  1.00  0.00    -0.216 N 
HETATM    5  C   UNL     1     -43.714  57.022 -55.192  1.00  0.00     0.145 C 
HETATM    6  C   UNL     1     -42.683  57.472 -54.403  1.00  0.00     0.087 C 
HETATM    7  N   UNL     1     -44.196  55.759 -55.111  1.00  0.00    -0.349 N 
HETATM    8  C   UNL     1     -43.633  54.913 -54.171  1.00  0.00     0.111 C 
HETATM    9  C   UNL     1     -42.588  55.232 -53.372  1.00  0.00     0.099 C 
HETATM   10  C   UNL     1     -41.952  56.582 -53.522  1.00  0.00     0.205 C 
HETATM   11  O   UNL     1     -40.910  56.907 -52.966  1.00  0.00    -0.286 OA
HETATM   12  H   UNL     1     -45.073  55.458 -55.536  1.00  0.00     0.167 HD
ENDROOT
BRANCH   9  13
HETATM   13  C   UNL     1     -42.108  54.149 -52.478  1.00  0.00     0.264 C 
HETATM   14  N   UNL     1     -41.346  53.119 -53.007  1.00  0.00    -0.309 N 
HETATM   15  C   UNL     1     -40.963  52.858 -54.426  1.00  0.00     0.093 C 
HETATM   16  C   UNL     1     -40.705  52.127 -52.217  1.00  0.00     0.044 A 
HETATM   17  C   UNL     1     -39.907  53.850 -54.921  1.00  0.00     0.033 C 
HETATM   18  C   UNL     1     -40.424  51.412 -54.472  1.00  0.00     0.066 C 
HETATM   19  C   UNL     1     -40.121  51.156 -53.033  1.00  0.00    -0.029 A 
HETATM   20  C   UNL     1     -39.424  50.081 -52.502  1.00  0.00     0.009 A 
HETATM   21  C   UNL     1     -39.293  49.995 -51.117  1.00  0.00     0.001 A 
HETATM   22  C   UNL     1     -39.869  50.970 -50.291  1.00  0.00     0.002 A 
HETATM   23  C   UNL     1     -40.586  52.039 -50.840  1.00  0.00     0.030 A 
HETATM   24  O   UNL     1     -42.359  54.275 -51.276  1.00  0.00    -0.267 OA
ENDBRANCH   9  13
BRANCH   4  25
HETATM   25  C   UNL     1     -44.951  58.089 -57.141  1.00  0.00     0.060 A 
HETATM   26  C   UNL     1     -44.442  57.789 -58.412  1.00  0.00     0.031 A 
HETATM   27  C   UNL     1     -45.276  57.845 -59.533  1.00  0.00     0.002 A 
HETATM   28  C   UNL     1     -46.615  58.203 -59.395  1.00  0.00     0.000 A 
HETATM   29  C   UNL     1     -47.125  58.518 -58.137  1.00  0.00     0.002 A 
HETATM   30  C   UNL     1     -46.296  58.471 -57.014  1.00  0.00     0.031 A 
ENDBRANCH   4  25
TORSDOF 2
ENDMDL
MODEL 9
REMARK VINA RESULT:      -8.7      3.664      5.304
REMARK  2 active torsions:
REMARK  status: ('A' for Active; 'I' for Inactive)
REMARK    1  A    between atoms: N_4  and  C_5 
REMARK    2  A    between atoms: C_15  and  C_16 
REMARK       I    between atoms: C_16  and  N_17 
ROOT
HETATM    1  C   UNL     1     -41.585  60.293 -50.290  1.00  0.00     0.073 C 
HETATM    2  C   UNL     1     -42.636  59.968 -51.284  1.00  0.00     0.069 C 
HETATM    3  N   UNL     1     -43.771  60.682 -51.333  1.00  0.00    -0.170 NA
HETATM    4  N   UNL     1     -44.473  60.167 -52.388  1.00  0.00    -0.216 N 
HETATM    5  C   UNL     1     -43.875  58.997 -52.825  1.00  0.00     0.145 C 
HETATM    6  C   UNL     1     -42.649  58.909 -52.213  1.00  0.00     0.087 C 
HETATM    7  N   UNL     1     -44.340  58.043 -53.667  1.00  0.00    -0.349 N 
HETATM    8  C   UNL     1     -43.544  56.932 -53.884  1.00  0.00     0.111 C 
HETATM    9  C   UNL     1     -42.304  56.758 -53.370  1.00  0.00     0.099 C 
HETATM   10  C   UNL     1     -41.711  57.851 -52.532  1.00  0.00     0.205 C 
HETATM   11  O   UNL     1     -40.545  57.863 -52.156  1.00  0.00    -0.286 OA
HETATM   12  H   UNL     1     -45.309  57.985 -53.979  1.00  0.00     0.167 HD
ENDROOT
BRANCH   9  13
HETATM   13  C   UNL     1     -41.605  55.515 -53.783  1.00  0.00     0.264 C 
HETATM   14  N   UNL     1     -41.205  54.607 -52.816  1.00  0.00    -0.309 N 
HETATM   15  C   UNL     1     -41.298  54.706 -51.330  1.00  0.00     0.093 C 
HETATM   16  C   UNL     1     -40.677  53.321 -53.112  1.00  0.00     0.044 A 
HETATM   17  C   UNL     1     -42.739  54.544 -50.838  1.00  0.00     0.033 C 
HETATM   18  C   UNL     1     -40.395  53.589 -50.761  1.00  0.00     0.066 C 
HETATM   19  C   UNL     1     -40.249  52.689 -51.943  1.00  0.00    -0.029 A 
HETATM   20  C   UNL     1     -39.701  51.415 -51.962  1.00  0.00     0.009 A 
HETATM   21  C   UNL     1     -39.605  50.754 -53.186  1.00  0.00     0.001 A 
HETATM   22  C   UNL     1     -40.040  51.378 -54.363  1.00  0.00     0.002 A 
HETATM   23  C   UNL     1     -40.573  52.671 -54.331  1.00  0.00     0.030 A 
HETATM   24  O   UNL     1     -41.487  55.327 -54.998  1.00  0.00    -0.267 OA
ENDBRANCH   9  13
BRANCH   4  25
HETATM   25  C   UNL     1     -45.608  60.857 -52.899  1.00  0.00     0.060 A 
HETATM   26  C   UNL     1     -45.612  61.403 -54.189  1.00  0.00     0.031 A 
HETATM   27  C   UNL     1     -46.726  62.113 -54.649  1.00  0.00     0.002 A 
HETATM   28  C   UNL     1     -47.837  62.284 -53.825  1.00  0.00     0.000 A 
HETATM   29  C   UNL     1     -47.835  61.757 -52.536  1.00  0.00     0.002 A 
HETATM   30  C   UNL     1     -46.722  61.055 -52.068  1.00  0.00     0.031 A 
ENDBRANCH   4  25
TORSDOF 2
ENDMDL
MODEL 10
REMARK VINA RESULT:      -8.6      2.421      3.302
REMARK  2 active torsions:
REMARK  status: ('A' for Active; 'I' for Inactive)
REMARK    1  A    between atoms: N_4  and  C_5 
REMARK    2  A    between atoms: C_15  and  C_16 
REMARK       I    between atoms: C_16  and  N_17 
ROOT
HETATM    1  C   UNL     1     -44.167  53.771 -59.185  1.00  0.00     0.073 C 
HETATM    2  C   UNL     1     -43.695  55.159 -58.959  1.00  0.00     0.069 C 
HETATM    3  N   UNL     1     -43.500  55.988 -59.995  1.00  0.00    -0.170 NA
HETATM    4  N   UNL     1     -43.138  57.183 -59.435  1.00  0.00    -0.216 N 
HETATM    5  C   UNL     1     -42.886  57.011 -58.085  1.00  0.00     0.145 C 
HETATM    6  C   UNL     1     -43.338  55.761 -57.738  1.00  0.00     0.087 C 
HETATM    7  N   UNL     1     -42.287  57.841 -57.198  1.00  0.00    -0.349 N 
HETATM    8  C   UNL     1     -42.109  57.383 -55.904  1.00  0.00     0.111 C 
HETATM    9  C   UNL     1     -42.550  56.190 -55.439  1.00  0.00     0.099 C 
HETATM   10  C   UNL     1     -43.324  55.299 -56.364  1.00  0.00     0.205 C 
HETATM   11  O   UNL     1     -43.900  54.280 -56.001  1.00  0.00    -0.286 OA
HETATM   12  H   UNL     1     -41.774  58.682 -57.464  1.00  0.00     0.167 HD
ENDROOT
BRANCH   9  13
HETATM   13  C   UNL     1     -42.300  55.928 -54.000  1.00  0.00     0.264 C 
HETATM   14  N   UNL     1     -41.554  54.821 -53.630  1.00  0.00    -0.309 N 
HETATM   15  C   UNL     1     -40.983  53.737 -54.483  1.00  0.00     0.093 C 
HETATM   16  C   UNL     1     -41.123  54.569 -52.300  1.00  0.00     0.044 A 
HETATM   17  C   UNL     1     -39.786  54.229 -55.302  1.00  0.00     0.033 C 
HETATM   18  C   UNL     1     -40.563  52.603 -53.523  1.00  0.00     0.066 C 
HETATM   19  C   UNL     1     -40.503  53.321 -52.215  1.00  0.00    -0.029 A 
HETATM   20  C   UNL     1     -39.985  52.843 -51.021  1.00  0.00     0.009 A 
HETATM   21  C   UNL     1     -40.073  53.654 -49.890  1.00  0.00     0.001 A 
HETATM   22  C   UNL     1     -40.686  54.911 -49.967  1.00  0.00     0.002 A 
HETATM   23  C   UNL     1     -41.221  55.373 -51.175  1.00  0.00     0.030 A 
HETATM   24  O   UNL     1     -42.719  56.775 -53.205  1.00  0.00    -0.267 OA
ENDBRANCH   9  13
BRANCH   4  25
HETATM   25  C   UNL     1     -43.112  58.367 -60.224  1.00  0.00     0.060 A 
HETATM   26  C   UNL     1     -41.903  58.935 -60.648  1.00  0.00     0.031 A 
HETATM   27  C   UNL     1     -41.907  60.122 -61.389  1.00  0.00     0.002 A 
HETATM   28  C   UNL     1     -43.111  60.747 -61.705  1.00  0.00     0.000 A 
HETATM   29  C   UNL     1     -44.316  60.196 -61.274  1.00  0.00     0.002 A 
HETATM   30  C   UNL     1     -44.318  59.016 -60.528  1.00  0.00     0.031 A 
ENDBRANCH   4  25
TORSDOF 2
ENDMDL
