MODEL 1
REMARK VINA RESULT:      -7.7      0.000      0.000
REMARK  7 active torsions:
REMARK  status: ('A' for Active; 'I' for Inactive)
REMARK    1  A    between atoms: C_2  and  N_3 
REMARK    2  A    between atoms: C_2  and  C_17 
REMARK       I    between atoms: N_3  and  C_4 
REMARK    3  A    between atoms: C_4  and  C_5 
REMARK    4  A    between atoms: C_7  and  N_8 
REMARK    5  A    between atoms: C_17  and  O_18 
REMARK    6  A    between atoms: C_17  and  C_19 
REMARK    7  A    between atoms: C_22  and  O_23 
ROOT
HETATM    1  N   UNL     1     -42.227  55.527 -55.727  1.00  0.00    -0.349 N 
HETATM    2  C   UNL     1     -42.796  54.571 -54.917  1.00  0.00     0.270 C 
HETATM    3  O   UNL     1     -43.998  54.334 -54.876  1.00  0.00    -0.266 OA
HETATM    4  H   UNL     1     -41.240  55.723 -55.576  1.00  0.00     0.163 HD
ENDROOT
BRANCH   1   5
HETATM    5  C   UNL     1     -43.003  56.466 -56.540  1.00  0.00     0.114 C 
HETATM    6  C   UNL     1     -42.809  57.883 -55.994  1.00  0.00     0.035 C 
BRANCH   5   7
HETATM    7  C   UNL     1     -42.596  56.314 -58.031  1.00  0.00     0.173 C 
BRANCH   7   8
HETATM    8  O   UNL     1     -41.769  57.412 -58.440  1.00  0.00    -0.389 OA
HETATM    9  H   UNL     1     -41.503  57.231 -59.360  1.00  0.00     0.210 HD
ENDBRANCH   7   8
BRANCH   7  10
HETATM   10  C   UNL     1     -43.761  56.133 -58.984  1.00  0.00    -0.028 A 
HETATM   11  C   UNL     1     -44.635  57.201 -59.225  1.00  0.00     0.012 A 
HETATM   12  C   UNL     1     -45.711  57.054 -60.104  1.00  0.00     0.037 A 
HETATM   13  C   UNL     1     -45.931  55.846 -60.767  1.00  0.00     0.068 A 
HETATM   14  C   UNL     1     -45.066  54.778 -60.536  1.00  0.00     0.037 A 
HETATM   15  C   UNL     1     -43.991  54.920 -59.650  1.00  0.00     0.012 A 
BRANCH  13  16
HETATM   16  O   UNL     1     -47.015  55.840 -61.600  1.00  0.00    -0.356 OA
HETATM   17  C   UNL     1     -47.893  56.955 -61.520  1.00  0.00     0.210 C 
ENDBRANCH  13  16
ENDBRANCH   7  10
ENDBRANCH   5   7
ENDBRANCH   1   5
BRANCH   2  18
HETATM   18  C   UNL     1     -41.820  53.826 -54.057  1.00  0.00     0.126 A 
HETATM   19  N   UNL     1     -41.824  54.140 -52.731  1.00  0.00    -0.224 NA
HETATM   20  C   UNL     1     -40.930  53.482 -51.944  1.00  0.00     0.151 A 
HETATM   21  C   UNL     1     -40.057  52.512 -52.439  1.00  0.00     0.052 A 
HETATM   22  C   UNL     1     -40.089  52.209 -53.799  1.00  0.00     0.006 A 
HETATM   23  C   UNL     1     -40.980  52.880 -54.628  1.00  0.00     0.037 A 
BRANCH  20  24
HETATM   24  N   UNL     1     -40.878  53.817 -50.557  1.00  0.00    -0.227 N 
HETATM   25  N   UNL     1     -40.320  52.995 -49.625  1.00  0.00    -0.179 NA
HETATM   26  C   UNL     1     -40.447  53.662 -48.476  1.00  0.00     0.141 A 
HETATM   27  C   UNL     1     -41.082  54.903 -48.637  1.00  0.00     0.040 A 
HETATM   28  C   UNL     1     -41.352  54.978 -49.982  1.00  0.00     0.122 A 
ENDBRANCH  20  24
ENDBRANCH   2  18
TORSDOF 7
ENDMDL
MODEL 2
REMARK VINA RESULT:      -7.6      2.184      3.721
REMARK  7 active torsions:
REMARK  status: ('A' for Active; 'I' for Inactive)
REMARK    1  A    between atoms: C_2  and  N_3 
REMARK    2  A    between atoms: C_2  and  C_17 
REMARK       I    between atoms: N_3  and  C_4 
REMARK    3  A    between atoms: C_4  and  C_5 
REMARK    4  A    between atoms: C_7  and  N_8 
REMARK    5  A    between atoms: C_17  and  O_18 
REMARK    6  A    between atoms: C_17  and  C_19 
REMARK    7  A    between atoms: C_22  and  O_23 
ROOT
HETATM    1  N   UNL     1     -42.742  55.882 -53.430  1.00  0.00    -0.349 N 
HETATM    2  C   UNL     1     -41.578  56.143 -52.742  1.00  0.00     0.270 C 
HETATM    3  O   UNL     1     -40.999  57.223 -52.760  1.00  0.00    -0.266 OA
HETATM    4  H   UNL     1     -43.055  54.914 -53.446  1.00  0.00     0.163 HD
ENDROOT
BRANCH   1   5
HETATM    5  C   UNL     1     -43.355  56.824 -54.369  1.00  0.00     0.114 C 
HETATM    6  C   UNL     1     -44.010  57.964 -53.583  1.00  0.00     0.035 C 
BRANCH   5   7
HETATM    7  C   UNL     1     -42.286  57.306 -55.386  1.00  0.00     0.173 C 
BRANCH   7   8
HETATM    8  O   UNL     1     -41.995  58.697 -55.188  1.00  0.00    -0.389 OA
HETATM    9  H   UNL     1     -41.335  58.743 -54.474  1.00  0.00     0.210 HD
ENDBRANCH   7   8
BRANCH   7  10
HETATM   10  C   UNL     1     -42.629  57.029 -56.837  1.00  0.00    -0.028 A 
HETATM   11  C   UNL     1     -43.083  55.759 -57.213  1.00  0.00     0.012 A 
HETATM   12  C   UNL     1     -43.409  55.487 -58.544  1.00  0.00     0.037 A 
HETATM   13  C   UNL     1     -43.299  56.476 -59.523  1.00  0.00     0.068 A 
HETATM   14  C   UNL     1     -42.850  57.745 -59.157  1.00  0.00     0.037 A 
HETATM   15  C   UNL     1     -42.516  58.018 -57.825  1.00  0.00     0.012 A 
BRANCH  13  16
HETATM   16  O   UNL     1     -43.654  56.078 -60.781  1.00  0.00    -0.356 OA
HETATM   17  C   UNL     1     -44.814  55.264 -60.895  1.00  0.00     0.210 C 
ENDBRANCH  13  16
ENDBRANCH   7  10
ENDBRANCH   5   7
ENDBRANCH   1   5
BRANCH   2  18
HETATM   18  C   UNL     1     -41.048  54.981 -51.959  1.00  0.00     0.126 A 
HETATM   19  N   UNL     1     -40.748  53.859 -52.672  1.00  0.00    -0.224 NA
HETATM   20  C   UNL     1     -40.282  52.792 -51.968  1.00  0.00     0.151 A 
HETATM   21  C   UNL     1     -40.088  52.825 -50.586  1.00  0.00     0.052 A 
HETATM   22  C   UNL     1     -40.395  53.992 -49.890  1.00  0.00     0.006 A 
HETATM   23  C   UNL     1     -40.890  55.091 -50.584  1.00  0.00     0.037 A 
BRANCH  20  24
HETATM   24  N   UNL     1     -39.998  51.587 -52.680  1.00  0.00    -0.227 N 
HETATM   25  N   UNL     1     -39.607  50.442 -52.054  1.00  0.00    -0.179 NA
HETATM   26  C   UNL     1     -39.464  49.557 -53.042  1.00  0.00     0.141 A 
HETATM   27  C   UNL     1     -39.751  50.101 -54.303  1.00  0.00     0.040 A 
HETATM   28  C   UNL     1     -40.089  51.407 -54.044  1.00  0.00     0.122 A 
ENDBRANCH  20  24
ENDBRANCH   2  18
TORSDOF 7
ENDMDL
MODEL 3
REMARK VINA RESULT:      -7.5      2.172      4.305
REMARK  7 active torsions:
REMARK  status: ('A' for Active; 'I' for Inactive)
REMARK    1  A    between atoms: C_2  and  N_3 
REMARK    2  A    between atoms: C_2  and  C_17 
REMARK       I    between atoms: N_3  and  C_4 
REMARK    3  A    between atoms: C_4  and  C_5 
REMARK    4  A    between atoms: C_7  and  N_8 
REMARK    5  A    between atoms: C_17  and  O_18 
REMARK    6  A    between atoms: C_17  and  C_19 
REMARK    7  A    between atoms: C_22  and  O_23 
ROOT
HETATM    1  N   UNL     1     -42.183  56.772 -52.394  1.00  0.00    -0.349 N 
HETATM    2  C   UNL     1     -41.516  56.759 -51.190  1.00  0.00     0.270 C 
HETATM    3  O   UNL     1     -41.276  57.761 -50.527  1.00  0.00    -0.266 OA
HETATM    4  H   UNL     1     -42.203  55.898 -52.914  1.00  0.00     0.163 HD
ENDROOT
BRANCH   1   5
HETATM    5  C   UNL     1     -42.571  58.001 -53.090  1.00  0.00     0.114 C 
HETATM    6  C   UNL     1     -41.389  58.500 -53.927  1.00  0.00     0.035 C 
BRANCH   5   7
HETATM    7  C   UNL     1     -43.853  57.736 -53.926  1.00  0.00     0.173 C 
BRANCH   7   8
HETATM    8  O   UNL     1     -44.781  56.935 -53.181  1.00  0.00    -0.389 OA
HETATM    9  H   UNL     1     -45.453  56.627 -53.816  1.00  0.00     0.210 HD
ENDBRANCH   7   8
BRANCH   7  10
HETATM   10  C   UNL     1     -43.598  57.132 -55.293  1.00  0.00    -0.028 A 
HETATM   11  C   UNL     1     -43.815  57.901 -56.444  1.00  0.00     0.012 A 
HETATM   12  C   UNL     1     -43.580  57.363 -57.711  1.00  0.00     0.037 A 
HETATM   13  C   UNL     1     -43.115  56.054 -57.857  1.00  0.00     0.068 A 
HETATM   14  C   UNL     1     -42.894  55.283 -56.718  1.00  0.00     0.037 A 
HETATM   15  C   UNL     1     -43.135  55.817 -55.446  1.00  0.00     0.012 A 
BRANCH  13  16
HETATM   16  O   UNL     1     -42.924  55.656 -59.151  1.00  0.00    -0.356 OA
HETATM   17  C   UNL     1     -44.033  55.058 -59.810  1.00  0.00     0.210 C 
ENDBRANCH  13  16
ENDBRANCH   7  10
ENDBRANCH   5   7
ENDBRANCH   1   5
BRANCH   2  18
HETATM   18  C   UNL     1     -41.080  55.398 -50.739  1.00  0.00     0.126 A 
HETATM   19  N   UNL     1     -40.809  54.495 -51.724  1.00  0.00    -0.224 NA
HETATM   20  C   UNL     1     -40.429  53.250 -51.324  1.00  0.00     0.151 A 
HETATM   21  C   UNL     1     -40.291  52.896 -49.982  1.00  0.00     0.052 A 
HETATM   22  C   UNL     1     -40.566  53.848 -49.002  1.00  0.00     0.006 A 
HETATM   23  C   UNL     1     -40.974  55.122 -49.383  1.00  0.00     0.037 A 
BRANCH  20  24
HETATM   24  N   UNL     1     -40.178  52.267 -52.330  1.00  0.00    -0.227 N 
HETATM   25  N   UNL     1     -39.580  51.075 -52.054  1.00  0.00    -0.179 NA
HETATM   26  C   UNL     1     -39.546  50.443 -53.229  1.00  0.00     0.141 A 
HETATM   27  C   UNL     1     -40.107  51.200 -54.268  1.00  0.00     0.040 A 
HETATM   28  C   UNL     1     -40.503  52.369 -53.666  1.00  0.00     0.122 A 
ENDBRANCH  20  24
ENDBRANCH   2  18
TORSDOF 7
ENDMDL
MODEL 4
REMARK VINA RESULT:      -7.5      1.477      2.692
REMARK  7 active torsions:
REMARK  status: ('A' for Active; 'I' for Inactive)
REMARK    1  A    between atoms: C_2  and  N_3 
REMARK    2  A    between atoms: C_2  and  C_17 
REMARK       I    between atoms: N_3  and  C_4 
REMARK    3  A    between atoms: C_4  and  C_5 
REMARK    4  A    between atoms: C_7  and  N_8 
REMARK    5  A    between atoms: C_17  and  O_18 
REMARK    6  A    between atoms: C_17  and  C_19 
REMARK    7  A    between atoms: C_22  and  O_23 
ROOT
HETATM    1  N   UNL     1     -43.067  56.499 -55.344  1.00  0.00    -0.349 N 
HETATM    2  C   UNL     1     -43.810  56.480 -54.185  1.00  0.00     0.270 C 
HETATM    3  O   UNL     1     -44.867  57.082 -54.039  1.00  0.00    -0.266 OA
HETATM    4  H   UNL     1     -42.144  56.073 -55.300  1.00  0.00     0.163 HD
ENDROOT
BRANCH   1   5
HETATM    5  C   UNL     1     -43.385  57.345 -56.496  1.00  0.00     0.114 C 
HETATM    6  C   UNL     1     -42.817  58.748 -56.262  1.00  0.00     0.035 C 
BRANCH   5   7
HETATM    7  C   UNL     1     -42.857  56.670 -57.791  1.00  0.00     0.173 C 
BRANCH   7   8
HETATM    8  O   UNL     1     -41.786  57.439 -58.357  1.00  0.00    -0.389 OA
HETATM    9  H   UNL     1     -41.099  56.802 -58.623  1.00  0.00     0.210 HD
ENDBRANCH   7   8
BRANCH   7  10
HETATM   10  C   UNL     1     -43.924  56.386 -58.830  1.00  0.00    -0.028 A 
HETATM   11  C   UNL     1     -44.911  57.344 -59.093  1.00  0.00     0.012 A 
HETATM   12  C   UNL     1     -45.899  57.101 -60.051  1.00  0.00     0.037 A 
HETATM   13  C   UNL     1     -45.917  55.906 -60.771  1.00  0.00     0.068 A 
HETATM   14  C   UNL     1     -44.937  54.947 -60.518  1.00  0.00     0.037 A 
HETATM   15  C   UNL     1     -43.950  55.185 -59.554  1.00  0.00     0.012 A 
BRANCH  13  16
HETATM   16  O   UNL     1     -46.934  55.800 -61.679  1.00  0.00    -0.356 OA
HETATM   17  C   UNL     1     -47.958  56.784 -61.613  1.00  0.00     0.210 C 
ENDBRANCH  13  16
ENDBRANCH   7  10
ENDBRANCH   5   7
ENDBRANCH   1   5
BRANCH   2  18
HETATM   18  C   UNL     1     -43.214  55.662 -53.080  1.00  0.00     0.126 A 
HETATM   19  N   UNL     1     -42.328  54.697 -53.456  1.00  0.00    -0.224 NA
HETATM   20  C   UNL     1     -41.794  53.936 -52.461  1.00  0.00     0.151 A 
HETATM   21  C   UNL     1     -42.101  54.129 -51.114  1.00  0.00     0.052 A 
HETATM   22  C   UNL     1     -43.003  55.132 -50.765  1.00  0.00     0.006 A 
HETATM   23  C   UNL     1     -43.577  55.911 -51.764  1.00  0.00     0.037 A 
BRANCH  20  24
HETATM   24  N   UNL     1     -40.894  52.888 -52.824  1.00  0.00    -0.227 N 
HETATM   25  N   UNL     1     -40.087  52.269 -51.917  1.00  0.00    -0.179 NA
HETATM   26  C   UNL     1     -39.429  51.354 -52.630  1.00  0.00     0.141 A 
HETATM   27  C   UNL     1     -39.786  51.364 -53.987  1.00  0.00     0.040 A 
HETATM   28  C   UNL     1     -40.726  52.360 -54.087  1.00  0.00     0.122 A 
ENDBRANCH  20  24
ENDBRANCH   2  18
TORSDOF 7
ENDMDL
MODEL 5
REMARK VINA RESULT:      -7.5      3.555      9.317
REMARK  7 active torsions:
REMARK  status: ('A' for Active; 'I' for Inactive)
REMARK    1  A    between atoms: C_2  and  N_3 
REMARK    2  A    between atoms: C_2  and  C_17 
REMARK       I    between atoms: N_3  and  C_4 
REMARK    3  A    between atoms: C_4  and  C_5 
REMARK    4  A    between atoms: C_7  and  N_8 
REMARK    5  A    between atoms: C_17  and  O_18 
REMARK    6  A    between atoms: C_17  and  C_19 
REMARK    7  A    between atoms: C_22  and  O_23 
ROOT
HETATM    1  N   UNL     1     -42.031  55.994 -56.278  1.00  0.00    -0.349 N 
HETATM    2  C   UNL     1     -42.966  56.968 -56.546  1.00  0.00     0.270 C 
HETATM    3  O   UNL     1     -43.830  57.325 -55.754  1.00  0.00    -0.266 OA
HETATM    4  H   UNL     1     -41.452  55.690 -57.058  1.00  0.00     0.163 HD
ENDROOT
BRANCH   1   5
HETATM    5  C   UNL     1     -42.039  55.176 -55.063  1.00  0.00     0.114 C 
HETATM    6  C   UNL     1     -43.008  54.005 -55.252  1.00  0.00     0.035 C 
BRANCH   5   7
HETATM    7  C   UNL     1     -40.589  54.733 -54.731  1.00  0.00     0.173 C 
BRANCH   7   8
HETATM    8  O   UNL     1     -39.958  54.167 -55.889  1.00  0.00    -0.389 OA
HETATM    9  H   UNL     1     -40.280  54.675 -56.656  1.00  0.00     0.210 HD
ENDBRANCH   7   8
BRANCH   7  10
HETATM   10  C   UNL     1     -40.475  53.795 -53.545  1.00  0.00    -0.028 A 
HETATM   11  C   UNL     1     -40.063  52.471 -53.742  1.00  0.00     0.012 A 
HETATM   12  C   UNL     1     -39.948  51.594 -52.660  1.00  0.00     0.037 A 
HETATM   13  C   UNL     1     -40.231  52.022 -51.362  1.00  0.00     0.068 A 
HETATM   14  C   UNL     1     -40.640  53.338 -51.155  1.00  0.00     0.037 A 
HETATM   15  C   UNL     1     -40.762  54.217 -52.239  1.00  0.00     0.012 A 
BRANCH  13  16
HETATM   16  O   UNL     1     -40.074  51.065 -50.398  1.00  0.00    -0.356 OA
HETATM   17  C   UNL     1     -39.546  49.813 -50.816  1.00  0.00     0.210 C 
ENDBRANCH  13  16
ENDBRANCH   7  10
ENDBRANCH   5   7
ENDBRANCH   1   5
BRANCH   2  18
HETATM   18  C   UNL     1     -42.858  57.570 -57.914  1.00  0.00     0.126 A 
HETATM   19  N   UNL     1     -42.253  58.789 -57.991  1.00  0.00    -0.224 NA
HETATM   20  C   UNL     1     -42.166  59.351 -59.227  1.00  0.00     0.151 A 
HETATM   21  C   UNL     1     -42.642  58.724 -60.379  1.00  0.00     0.052 A 
HETATM   22  C   UNL     1     -43.244  57.473 -60.264  1.00  0.00     0.006 A 
HETATM   23  C   UNL     1     -43.363  56.884 -59.011  1.00  0.00     0.037 A 
BRANCH  20  24
HETATM   24  N   UNL     1     -41.576  60.647 -59.337  1.00  0.00    -0.227 N 
HETATM   25  N   UNL     1     -41.431  61.287 -60.531  1.00  0.00    -0.179 NA
HETATM   26  C   UNL     1     -40.869  62.455 -60.215  1.00  0.00     0.141 A 
HETATM   27  C   UNL     1     -40.641  62.592 -58.837  1.00  0.00     0.040 A 
HETATM   28  C   UNL     1     -41.100  61.416 -58.295  1.00  0.00     0.122 A 
ENDBRANCH  20  24
ENDBRANCH   2  18
TORSDOF 7
ENDMDL
MODEL 6
REMARK VINA RESULT:      -7.4      3.138      8.506
REMARK  7 active torsions:
REMARK  status: ('A' for Active; 'I' for Inactive)
REMARK    1  A    between atoms: C_2  and  N_3 
REMARK    2  A    between atoms: C_2  and  C_17 
REMARK       I    between atoms: N_3  and  C_4 
REMARK    3  A    between atoms: C_4  and  C_5 
REMARK    4  A    between atoms: C_7  and  N_8 
REMARK    5  A    between atoms: C_17  and  O_18 
REMARK    6  A    between atoms: C_17  and  C_19 
REMARK    7  A    between atoms: C_22  and  O_23 
ROOT
HETATM    1  N   UNL     1     -43.206  56.764 -53.656  1.00  0.00    -0.349 N 
HETATM    2  C   UNL     1     -42.146  57.188 -54.426  1.00  0.00     0.270 C 
HETATM    3  O   UNL     1     -40.974  57.116 -54.077  1.00  0.00    -0.266 OA
HETATM    4  H   UNL     1     -44.137  56.998 -53.994  1.00  0.00     0.163 HD
ENDROOT
BRANCH   1   5
HETATM    5  C   UNL     1     -43.068  56.296 -52.276  1.00  0.00     0.114 C 
HETATM    6  C   UNL     1     -43.945  57.157 -51.363  1.00  0.00     0.035 C 
BRANCH   5   7
HETATM    7  C   UNL     1     -43.403  54.781 -52.209  1.00  0.00     0.173 C 
BRANCH   7   8
HETATM    8  O   UNL     1     -43.971  54.447 -50.935  1.00  0.00    -0.389 OA
HETATM    9  H   UNL     1     -43.543  53.620 -50.650  1.00  0.00     0.210 HD
ENDBRANCH   7   8
BRANCH   7  10
HETATM   10  C   UNL     1     -42.239  53.866 -52.536  1.00  0.00    -0.028 A 
HETATM   11  C   UNL     1     -42.050  53.424 -53.852  1.00  0.00     0.012 A 
HETATM   12  C   UNL     1     -40.980  52.585 -54.172  1.00  0.00     0.037 A 
HETATM   13  C   UNL     1     -40.073  52.178 -53.191  1.00  0.00     0.068 A 
HETATM   14  C   UNL     1     -40.252  52.614 -51.879  1.00  0.00     0.037 A 
HETATM   15  C   UNL     1     -41.328  53.450 -51.555  1.00  0.00     0.012 A 
BRANCH  13  16
HETATM   16  O   UNL     1     -39.073  51.362 -53.641  1.00  0.00    -0.356 OA
HETATM   17  C   UNL     1     -39.457  50.083 -54.130  1.00  0.00     0.210 C 
ENDBRANCH  13  16
ENDBRANCH   7  10
ENDBRANCH   5   7
ENDBRANCH   1   5
BRANCH   2  18
HETATM   18  C   UNL     1     -42.537  57.771 -55.750  1.00  0.00     0.126 A 
HETATM   19  N   UNL     1     -43.190  56.937 -56.607  1.00  0.00    -0.224 NA
HETATM   20  C   UNL     1     -43.534  57.452 -57.819  1.00  0.00     0.151 A 
HETATM   21  C   UNL     1     -43.266  58.772 -58.183  1.00  0.00     0.052 A 
HETATM   22  C   UNL     1     -42.607  59.600 -57.277  1.00  0.00     0.006 A 
HETATM   23  C   UNL     1     -42.228  59.093 -56.039  1.00  0.00     0.037 A 
BRANCH  20  24
HETATM   24  N   UNL     1     -44.182  56.592 -58.757  1.00  0.00    -0.227 N 
HETATM   25  N   UNL     1     -45.395  56.885 -59.303  1.00  0.00    -0.179 NA
HETATM   26  C   UNL     1     -45.642  55.866 -60.128  1.00  0.00     0.141 A 
HETATM   27  C   UNL     1     -44.615  54.910 -60.131  1.00  0.00     0.040 A 
HETATM   28  C   UNL     1     -43.690  55.396 -59.240  1.00  0.00     0.122 A 
ENDBRANCH  20  24
ENDBRANCH   2  18
TORSDOF 7
ENDMDL
MODEL 7
REMARK VINA RESULT:      -7.2      3.664      8.580
REMARK  7 active torsions:
REMARK  status: ('A' for Active; 'I' for Inactive)
REMARK    1  A    between atoms: C_2  and  N_3 
REMARK    2  A    between atoms: C_2  and  C_17 
REMARK       I    between atoms: N_3  and  C_4 
REMARK    3  A    between atoms: C_4  and  C_5 
REMARK    4  A    between atoms: C_7  and  N_8 
REMARK    5  A    between atoms: C_17  and  O_18 
REMARK    6  A    between atoms: C_17  and  C_19 
REMARK    7  A    between atoms: C_22  and  O_23 
ROOT
HETATM    1  N   UNL     1     -41.602  57.456 -52.872  1.00  0.00    -0.349 N 
HETATM    2  C   UNL     1     -41.010  58.491 -53.559  1.00  0.00     0.270 C 
HETATM    3  O   UNL     1     -39.943  59.004 -53.242  1.00  0.00    -0.266 OA
HETATM    4  H   UNL     1     -42.548  57.205 -53.151  1.00  0.00     0.163 HD
ENDROOT
BRANCH   1   5
HETATM    5  C   UNL     1     -41.093  56.931 -51.603  1.00  0.00     0.114 C 
HETATM    6  C   UNL     1     -41.267  57.993 -50.513  1.00  0.00     0.035 C 
BRANCH   5   7
HETATM    7  C   UNL     1     -41.803  55.589 -51.279  1.00  0.00     0.173 C 
BRANCH   7   8
HETATM    8  O   UNL     1     -41.929  55.416 -49.860  1.00  0.00    -0.389 OA
HETATM    9  H   UNL     1     -42.880  55.470 -49.658  1.00  0.00     0.210 HD
ENDBRANCH   7   8
BRANCH   7  10
HETATM   10  C   UNL     1     -41.162  54.370 -51.915  1.00  0.00    -0.028 A 
HETATM   11  C   UNL     1     -40.347  53.531 -51.144  1.00  0.00     0.012 A 
HETATM   12  C   UNL     1     -39.753  52.402 -51.712  1.00  0.00     0.037 A 
HETATM   13  C   UNL     1     -39.966  52.081 -53.054  1.00  0.00     0.068 A 
HETATM   14  C   UNL     1     -40.777  52.909 -53.829  1.00  0.00     0.037 A 
HETATM   15  C   UNL     1     -41.369  54.045 -53.263  1.00  0.00     0.012 A 
BRANCH  13  16
HETATM   16  O   UNL     1     -39.329  50.949 -53.480  1.00  0.00    -0.356 OA
HETATM   17  C   UNL     1     -40.069  50.074 -54.321  1.00  0.00     0.210 C 
ENDBRANCH  13  16
ENDBRANCH   7  10
ENDBRANCH   5   7
ENDBRANCH   1   5
BRANCH   2  18
HETATM   18  C   UNL     1     -41.786  58.968 -54.749  1.00  0.00     0.126 A 
HETATM   19  N   UNL     1     -41.987  58.057 -55.743  1.00  0.00    -0.224 NA
HETATM   20  C   UNL     1     -42.677  58.486 -56.835  1.00  0.00     0.151 A 
HETATM   21  C   UNL     1     -43.186  59.780 -56.948  1.00  0.00     0.052 A 
HETATM   22  C   UNL     1     -42.971  60.682 -55.907  1.00  0.00     0.006 A 
HETATM   23  C   UNL     1     -42.254  60.275 -54.788  1.00  0.00     0.037 A 
BRANCH  20  24
HETATM   24  N   UNL     1     -42.868  57.569 -57.913  1.00  0.00    -0.227 N 
HETATM   25  N   UNL     1     -43.201  56.263 -57.713  1.00  0.00    -0.179 NA
HETATM   26  C   UNL     1     -43.307  55.756 -58.942  1.00  0.00     0.141 A 
HETATM   27  C   UNL     1     -43.047  56.704 -59.944  1.00  0.00     0.040 A 
HETATM   28  C   UNL     1     -42.765  57.860 -59.258  1.00  0.00     0.122 A 
ENDBRANCH  20  24
ENDBRANCH   2  18
TORSDOF 7
ENDMDL
MODEL 8
REMARK VINA RESULT:      -7.1     14.710     16.334
REMARK  7 active torsions:
REMARK  status: ('A' for Active; 'I' for Inactive)
REMARK    1  A    between atoms: C_2  and  N_3 
REMARK    2  A    between atoms: C_2  and  C_17 
REMARK       I    between atoms: N_3  and  C_4 
REMARK    3  A    between atoms: C_4  and  C_5 
REMARK    4  A    between atoms: C_7  and  N_8 
REMARK    5  A    between atoms: C_17  and  O_18 
REMARK    6  A    between atoms: C_17  and  C_19 
REMARK    7  A    between atoms: C_22  and  O_23 
ROOT
HETATM    1  N   UNL     1     -36.177  41.367 -54.290  1.00  0.00    -0.349 N 
HETATM    2  C   UNL     1     -35.854  41.806 -53.026  1.00  0.00     0.270 C 
HETATM    3  O   UNL     1     -35.524  42.957 -52.763  1.00  0.00    -0.266 OA
HETATM    4  H   UNL     1     -36.303  40.364 -54.405  1.00  0.00     0.163 HD
ENDROOT
BRANCH   1   5
HETATM    5  C   UNL     1     -36.038  42.190 -55.493  1.00  0.00     0.114 C 
HETATM    6  C   UNL     1     -34.910  41.626 -56.361  1.00  0.00     0.035 C 
BRANCH   5   7
HETATM    7  C   UNL     1     -37.405  42.266 -56.225  1.00  0.00     0.173 C 
BRANCH   7   8
HETATM    8  O   UNL     1     -38.464  41.836 -55.358  1.00  0.00    -0.389 OA
HETATM    9  H   UNL     1     -39.296  42.131 -55.770  1.00  0.00     0.210 HD
ENDBRANCH   7   8
BRANCH   7  10
HETATM   10  C   UNL     1     -37.453  41.519 -57.544  1.00  0.00    -0.028 A 
HETATM   11  C   UNL     1     -37.168  42.195 -58.737  1.00  0.00     0.012 A 
HETATM   12  C   UNL     1     -37.202  41.521 -59.960  1.00  0.00     0.037 A 
HETATM   13  C   UNL     1     -37.511  40.161 -60.018  1.00  0.00     0.068 A 
HETATM   14  C   UNL     1     -37.794  39.479 -58.836  1.00  0.00     0.037 A 
HETATM   15  C   UNL     1     -37.767  40.153 -57.609  1.00  0.00     0.012 A 
BRANCH  13  16
HETATM   16  O   UNL     1     -37.504  39.626 -61.276  1.00  0.00    -0.356 OA
HETATM   17  C   UNL     1     -38.422  38.570 -61.529  1.00  0.00     0.210 C 
ENDBRANCH  13  16
ENDBRANCH   7  10
ENDBRANCH   5   7
ENDBRANCH   1   5
BRANCH   2  18
HETATM   18  C   UNL     1     -35.924  40.749 -51.966  1.00  0.00     0.126 A 
HETATM   19  N   UNL     1     -34.808  40.589 -51.199  1.00  0.00    -0.224 NA
HETATM   20  C   UNL     1     -34.856  39.619 -50.245  1.00  0.00     0.151 A 
HETATM   21  C   UNL     1     -35.985  38.831 -50.024  1.00  0.00     0.052 A 
HETATM   22  C   UNL     1     -37.112  39.030 -50.819  1.00  0.00     0.006 A 
HETATM   23  C   UNL     1     -37.084  40.001 -51.814  1.00  0.00     0.037 A 
BRANCH  20  24
HETATM   24  N   UNL     1     -33.689  39.397 -49.453  1.00  0.00    -0.227 N 
HETATM   25  N   UNL     1     -32.557  40.142 -49.591  1.00  0.00    -0.179 NA
HETATM   26  C   UNL     1     -31.721  39.648 -48.677  1.00  0.00     0.141 A 
HETATM   27  C   UNL     1     -32.282  38.591 -47.944  1.00  0.00     0.040 A 
HETATM   28  C   UNL     1     -33.545  38.446 -48.464  1.00  0.00     0.122 A 
ENDBRANCH  20  24
ENDBRANCH   2  18
TORSDOF 7
ENDMDL
MODEL 9
REMARK VINA RESULT:      -7.1      3.433      9.444
REMARK  7 active torsions:
REMARK  status: ('A' for Active; 'I' for Inactive)
REMARK    1  A    between atoms: C_2  and  N_3 
REMARK    2  A    between atoms: C_2  and  C_17 
REMARK       I    between atoms: N_3  and  C_4 
REMARK    3  A    between atoms: C_4  and  C_5 
REMARK    4  A    between atoms: C_7  and  N_8 
REMARK    5  A    between atoms: C_17  and  O_18 
REMARK    6  A    between atoms: C_17  and  C_19 
REMARK    7  A    between atoms: C_22  and  O_23 
ROOT
HETATM    1  N   UNL     1     -42.556  57.711 -55.628  1.00  0.00    -0.349 N 
HETATM    2  C   UNL     1     -42.181  58.877 -56.256  1.00  0.00     0.270 C 
HETATM    3  O   UNL     1     -41.671  59.832 -55.683  1.00  0.00    -0.266 OA
HETATM    4  H   UNL     1     -43.089  57.045 -56.183  1.00  0.00     0.163 HD
ENDROOT
BRANCH   1   5
HETATM    5  C   UNL     1     -42.512  57.524 -54.176  1.00  0.00     0.114 C 
HETATM    6  C   UNL     1     -43.850  56.949 -53.702  1.00  0.00     0.035 C 
BRANCH   5   7
HETATM    7  C   UNL     1     -41.291  56.637 -53.808  1.00  0.00     0.173 C 
BRANCH   7   8
HETATM    8  O   UNL     1     -41.099  55.613 -54.794  1.00  0.00    -0.389 OA
HETATM    9  H   UNL     1     -40.961  56.069 -55.644  1.00  0.00     0.210 HD
ENDBRANCH   7   8
BRANCH   7  10
HETATM   10  C   UNL     1     -41.346  56.041 -52.415  1.00  0.00    -0.028 A 
HETATM   11  C   UNL     1     -41.463  54.654 -52.257  1.00  0.00     0.012 A 
HETATM   12  C   UNL     1     -41.510  54.087 -50.981  1.00  0.00     0.037 A 
HETATM   13  C   UNL     1     -41.431  54.887 -49.840  1.00  0.00     0.068 A 
HETATM   14  C   UNL     1     -41.312  56.268 -49.988  1.00  0.00     0.037 A 
HETATM   15  C   UNL     1     -41.271  56.840 -51.265  1.00  0.00     0.012 A 
BRANCH  13  16
HETATM   16  O   UNL     1     -41.484  54.204 -48.657  1.00  0.00    -0.356 OA
HETATM   17  C   UNL     1     -40.244  53.922 -48.022  1.00  0.00     0.210 C 
ENDBRANCH  13  16
ENDBRANCH   7  10
ENDBRANCH   5   7
ENDBRANCH   1   5
BRANCH   2  18
HETATM   18  C   UNL     1     -42.456  58.902 -57.729  1.00  0.00     0.126 A 
HETATM   19  N   UNL     1     -43.327  57.964 -58.196  1.00  0.00    -0.224 NA
HETATM   20  C   UNL     1     -43.571  57.968 -59.535  1.00  0.00     0.151 A 
HETATM   21  C   UNL     1     -42.991  58.891 -60.407  1.00  0.00     0.052 A 
HETATM   22  C   UNL     1     -42.114  59.844 -59.893  1.00  0.00     0.006 A 
HETATM   23  C   UNL     1     -41.833  59.850 -58.531  1.00  0.00     0.037 A 
BRANCH  20  24
HETATM   24  N   UNL     1     -44.446  56.970 -60.063  1.00  0.00    -0.227 N 
HETATM   25  N   UNL     1     -43.997  55.927 -60.816  1.00  0.00    -0.179 NA
HETATM   26  C   UNL     1     -45.095  55.222 -61.093  1.00  0.00     0.141 A 
HETATM   27  C   UNL     1     -46.255  55.785 -60.539  1.00  0.00     0.040 A 
HETATM   28  C   UNL     1     -45.812  56.909 -59.885  1.00  0.00     0.122 A 
ENDBRANCH  20  24
ENDBRANCH   2  18
TORSDOF 7
ENDMDL
MODEL 10
REMARK VINA RESULT:      -7.0      4.640      9.005
REMARK  7 active torsions:
REMARK  status: ('A' for Active; 'I' for Inactive)
REMARK    1  A    between atoms: C_2  and  N_3 
REMARK    2  A    between atoms: C_2  and  C_17 
REMARK       I    between atoms: N_3  and  C_4 
REMARK    3  A    between atoms: C_4  and  C_5 
REMARK    4  A    between atoms: C_7  and  N_8 
REMARK    5  A    between atoms: C_17  and  O_18 
REMARK    6  A    between atoms: C_17  and  C_19 
REMARK    7  A    between atoms: C_22  and  O_23 
ROOT
HETATM    1  N   UNL     1     -41.918  57.354 -52.884  1.00  0.00    -0.349 N 
HETATM    2  C   UNL     1     -41.340  58.386 -53.589  1.00  0.00     0.270 C 
HETATM    3  O   UNL     1     -40.186  58.764 -53.428  1.00  0.00    -0.266 OA
HETATM    4  H   UNL     1     -42.919  57.221 -53.009  1.00  0.00     0.163 HD
ENDROOT
BRANCH   1   5
HETATM    5  C   UNL     1     -41.264  56.671 -51.766  1.00  0.00     0.114 C 
HETATM    6  C   UNL     1     -41.264  57.594 -50.543  1.00  0.00     0.035 C 
BRANCH   5   7
HETATM    7  C   UNL     1     -41.964  55.309 -51.514  1.00  0.00     0.173 C 
BRANCH   7   8
HETATM    8  O   UNL     1     -42.188  55.110 -50.111  1.00  0.00    -0.389 OA
HETATM    9  H   UNL     1     -42.764  55.839 -49.816  1.00  0.00     0.210 HD
ENDBRANCH   7   8
BRANCH   7  10
HETATM   10  C   UNL     1     -41.251  54.115 -52.119  1.00  0.00    -0.028 A 
HETATM   11  C   UNL     1     -40.403  53.335 -51.323  1.00  0.00     0.012 A 
HETATM   12  C   UNL     1     -39.742  52.229 -51.862  1.00  0.00     0.037 A 
HETATM   13  C   UNL     1     -39.920  51.873 -53.200  1.00  0.00     0.068 A 
HETATM   14  C   UNL     1     -40.764  52.642 -54.000  1.00  0.00     0.037 A 
HETATM   15  C   UNL     1     -41.422  53.755 -53.464  1.00  0.00     0.012 A 
BRANCH  13  16
HETATM   16  O   UNL     1     -39.218  50.769 -53.597  1.00  0.00    -0.356 OA
HETATM   17  C   UNL     1     -39.867  49.887 -54.504  1.00  0.00     0.210 C 
ENDBRANCH  13  16
ENDBRANCH   7  10
ENDBRANCH   5   7
ENDBRANCH   1   5
BRANCH   2  18
HETATM   18  C   UNL     1     -42.248  59.040 -54.585  1.00  0.00     0.126 A 
HETATM   19  N   UNL     1     -41.656  59.882 -55.479  1.00  0.00    -0.224 NA
HETATM   20  C   UNL     1     -42.475  60.494 -56.377  1.00  0.00     0.151 A 
HETATM   21  C   UNL     1     -43.852  60.271 -56.420  1.00  0.00     0.052 A 
HETATM   22  C   UNL     1     -44.421  59.394 -55.499  1.00  0.00     0.006 A 
HETATM   23  C   UNL     1     -43.610  58.770 -54.558  1.00  0.00     0.037 A 
BRANCH  20  24
HETATM   24  N   UNL     1     -41.893  61.416 -57.300  1.00  0.00    -0.227 N 
HETATM   25  N   UNL     1     -40.706  61.175 -57.924  1.00  0.00    -0.179 NA
HETATM   26  C   UNL     1     -40.520  62.240 -58.704  1.00  0.00     0.141 A 
HETATM   27  C   UNL     1     -41.561  63.176 -58.602  1.00  0.00     0.040 A 
HETATM   28  C   UNL     1     -42.429  62.625 -57.691  1.00  0.00     0.122 A 
ENDBRANCH  20  24
ENDBRANCH   2  18
TORSDOF 7
ENDMDL
