MODEL 1
REMARK VINA RESULT:      -7.9      0.000      0.000
REMARK  4 active torsions:
REMARK  status: ('A' for Active; 'I' for Inactive)
REMARK    1  A    between atoms: O_2  and  C_3 
REMARK    2  A    between atoms: N_9  and  N_10 
REMARK       I    between atoms: N_10  and  C_11 
REMARK    3  A    between atoms: C_11  and  C_12 
REMARK    4  A    between atoms: C_13  and  O_14 
ROOT
HETATM    1  C   UNL     1     -40.633  54.085 -53.951  1.00  0.00     0.069 A 
HETATM    2  C   UNL     1     -41.001  54.801 -52.807  1.00  0.00     0.053 A 
HETATM    3  C   UNL     1     -40.924  54.154 -51.583  1.00  0.00     0.029 A 
HETATM    4  C   UNL     1     -41.224  54.582 -50.207  1.00  0.00     0.157 A 
HETATM    5  C   UNL     1     -40.747  53.425 -49.301  1.00  0.00     0.277 A 
HETATM    6  O   UNL     1     -40.762  53.397 -48.091  1.00  0.00    -0.266 OA
HETATM    7  N   UNL     1     -41.781  55.637 -49.706  1.00  0.00    -0.166 NA
HETATM    8  C   UNL     1     -40.423  52.854 -51.484  1.00  0.00     0.048 A 
HETATM    9  N   UNL     1     -40.330  52.437 -50.163  1.00  0.00    -0.321 N 
HETATM   10  C   UNL     1     -40.045  52.132 -52.595  1.00  0.00     0.033 A 
HETATM   11  C   UNL     1     -40.167  52.758 -53.837  1.00  0.00     0.039 A 
HETATM   12  H   UNL     1     -39.964  51.554 -49.838  1.00  0.00     0.169 HD
ENDROOT
BRANCH   7  13
HETATM   13  N   UNL     1     -42.363  56.545 -50.534  1.00  0.00    -0.242 N 
HETATM   14  C   UNL     1     -43.714  56.445 -50.828  1.00  0.00     0.274 C 
HETATM   15  O   UNL     1     -44.504  55.674 -50.283  1.00  0.00    -0.266 OA
HETATM   16  H   UNL     1     -41.763  57.178 -51.038  1.00  0.00     0.192 HD
BRANCH  14  17
HETATM   17  C   UNL     1     -44.256  57.409 -51.829  1.00  0.00     0.068 A 
HETATM   18  C   UNL     1     -45.051  58.479 -51.386  1.00  0.00     0.081 A 
HETATM   19  C   UNL     1     -45.536  59.430 -52.283  1.00  0.00     0.039 A 
HETATM   20  C   UNL     1     -45.244  59.319 -53.642  1.00  0.00     0.022 A 
HETATM   21  C   UNL     1     -44.480  58.245 -54.093  1.00  0.00     0.012 A 
HETATM   22 BR   UNL     1     -44.090  58.085 -55.936  1.00  0.00    -0.051 Br
HETATM   23  C   UNL     1     -43.991  57.286 -53.202  1.00  0.00     0.039 A 
BRANCH  18  24
HETATM   24  O   UNL     1     -45.396  58.666 -50.074  1.00  0.00    -0.360 OA
HETATM   25  H   UNL     1     -45.782  59.568 -49.984  1.00  0.00     0.217 HD
ENDBRANCH  18  24
ENDBRANCH  14  17
ENDBRANCH   7  13
BRANCH   1  26
HETATM   26  O   UNL     1     -40.665  54.560 -55.234  1.00  0.00    -0.356 OA
HETATM   27  C   UNL     1     -41.927  54.971 -55.748  1.00  0.00     0.210 C 
ENDBRANCH   1  26
TORSDOF 4
ENDMDL
MODEL 2
REMARK VINA RESULT:      -7.8      2.952      4.746
REMARK  4 active torsions:
REMARK  status: ('A' for Active; 'I' for Inactive)
REMARK    1  A    between atoms: O_2  and  C_3 
REMARK    2  A    between atoms: N_9  and  N_10 
REMARK       I    between atoms: N_10  and  C_11 
REMARK    3  A    between atoms: C_11  and  C_12 
REMARK    4  A    between atoms: C_13  and  O_14 
ROOT
HETATM    1  C   UNL     1     -41.215  55.485 -50.905  1.00  0.00     0.069 A 
HETATM    2  C   UNL     1     -41.211  55.020 -52.224  1.00  0.00     0.053 A 
HETATM    3  C   UNL     1     -40.564  53.823 -52.488  1.00  0.00     0.029 A 
HETATM    4  C   UNL     1     -40.361  53.048 -53.723  1.00  0.00     0.157 A 
HETATM    5  C   UNL     1     -39.709  51.721 -53.277  1.00  0.00     0.277 A 
HETATM    6  O   UNL     1     -39.425  50.778 -53.981  1.00  0.00    -0.266 OA
HETATM    7  N   UNL     1     -40.593  53.292 -54.973  1.00  0.00    -0.166 NA
HETATM    8  C   UNL     1     -39.999  53.065 -51.459  1.00  0.00     0.048 A 
HETATM    9  N   UNL     1     -39.501  51.855 -51.924  1.00  0.00    -0.321 N 
HETATM   10  C   UNL     1     -39.999  53.498 -50.151  1.00  0.00     0.033 A 
HETATM   11  C   UNL     1     -40.604  54.728 -49.884  1.00  0.00     0.039 A 
HETATM   12  H   UNL     1     -39.081  51.127 -51.365  1.00  0.00     0.169 HD
ENDROOT
BRANCH   7  13
HETATM   13  N   UNL     1     -40.985  54.538 -55.352  1.00  0.00    -0.242 N 
HETATM   14  C   UNL     1     -42.306  54.767 -55.707  1.00  0.00     0.274 C 
HETATM   15  O   UNL     1     -43.226  53.962 -55.574  1.00  0.00    -0.266 OA
HETATM   16  H   UNL     1     -40.271  55.229 -55.514  1.00  0.00     0.192 HD
BRANCH  14  17
HETATM   17  C   UNL     1     -42.635  56.130 -56.216  1.00  0.00     0.068 A 
HETATM   18  C   UNL     1     -43.320  56.257 -57.436  1.00  0.00     0.081 A 
HETATM   19  C   UNL     1     -43.690  57.510 -57.923  1.00  0.00     0.039 A 
HETATM   20  C   UNL     1     -43.368  58.660 -57.203  1.00  0.00     0.022 A 
HETATM   21  C   UNL     1     -42.664  58.545 -56.006  1.00  0.00     0.012 A 
HETATM   22 BR   UNL     1     -42.217  60.102 -55.031  1.00  0.00    -0.051 Br
HETATM   23  C   UNL     1     -42.287  57.293 -55.512  1.00  0.00     0.039 A 
BRANCH  18  24
HETATM   24  O   UNL     1     -43.672  55.187 -58.215  1.00  0.00    -0.360 OA
HETATM   25  H   UNL     1     -44.619  55.290 -58.468  1.00  0.00     0.217 HD
ENDBRANCH  18  24
ENDBRANCH  14  17
ENDBRANCH   7  13
BRANCH   1  26
HETATM   26  O   UNL     1     -41.787  56.650 -50.473  1.00  0.00    -0.356 OA
HETATM   27  C   UNL     1     -41.033  57.847 -50.628  1.00  0.00     0.210 C 
ENDBRANCH   1  26
TORSDOF 4
ENDMDL
MODEL 3
REMARK VINA RESULT:      -7.7      2.255      3.501
REMARK  4 active torsions:
REMARK  status: ('A' for Active; 'I' for Inactive)
REMARK    1  A    between atoms: O_2  and  C_3 
REMARK    2  A    between atoms: N_9  and  N_10 
REMARK       I    between atoms: N_10  and  C_11 
REMARK    3  A    between atoms: C_11  and  C_12 
REMARK    4  A    between atoms: C_13  and  O_14 
ROOT
HETATM    1  C   UNL     1     -39.694  51.571 -52.821  1.00  0.00     0.069 A 
HETATM    2  C   UNL     1     -40.051  52.899 -52.568  1.00  0.00     0.053 A 
HETATM    3  C   UNL     1     -40.400  53.242 -51.271  1.00  0.00     0.029 A 
HETATM    4  C   UNL     1     -40.820  54.509 -50.651  1.00  0.00     0.157 A 
HETATM    5  C   UNL     1     -40.879  54.228 -49.133  1.00  0.00     0.277 A 
HETATM    6  O   UNL     1     -41.133  55.023 -48.256  1.00  0.00    -0.266 OA
HETATM    7  N   UNL     1     -41.133  55.671 -51.128  1.00  0.00    -0.166 NA
HETATM    8  C   UNL     1     -40.325  52.310 -50.233  1.00  0.00     0.048 A 
HETATM    9  N   UNL     1     -40.610  52.885 -49.002  1.00  0.00    -0.321 N 
HETATM   10  C   UNL     1     -39.966  50.998 -50.456  1.00  0.00     0.033 A 
HETATM   11  C   UNL     1     -39.663  50.632 -51.769  1.00  0.00     0.039 A 
HETATM   12  H   UNL     1     -40.584  52.423 -48.105  1.00  0.00     0.169 HD
ENDROOT
BRANCH   7  13
HETATM   13  N   UNL     1     -41.258  55.832 -52.473  1.00  0.00    -0.242 N 
HETATM   14  C   UNL     1     -42.467  56.251 -53.008  1.00  0.00     0.274 C 
HETATM   15  O   UNL     1     -43.433  56.646 -52.356  1.00  0.00    -0.266 OA
HETATM   16  H   UNL     1     -40.515  55.492 -53.061  1.00  0.00     0.192 HD
BRANCH  14  17
HETATM   17  C   UNL     1     -42.560  56.297 -54.496  1.00  0.00     0.068 A 
HETATM   18  C   UNL     1     -42.700  55.095 -55.210  1.00  0.00     0.081 A 
HETATM   19  C   UNL     1     -42.839  55.098 -56.597  1.00  0.00     0.039 A 
HETATM   20  C   UNL     1     -42.827  56.304 -57.296  1.00  0.00     0.022 A 
HETATM   21  C   UNL     1     -42.659  57.499 -56.599  1.00  0.00     0.012 A 
HETATM   22 BR   UNL     1     -42.630  59.136 -57.544  1.00  0.00    -0.051 Br
HETATM   23  C   UNL     1     -42.516  57.505 -55.209  1.00  0.00     0.039 A 
BRANCH  18  24
HETATM   24  O   UNL     1     -42.717  53.864 -54.610  1.00  0.00    -0.360 OA
HETATM   25  H   UNL     1     -42.632  53.996 -53.637  1.00  0.00     0.217 HD
ENDBRANCH  18  24
ENDBRANCH  14  17
ENDBRANCH   7  13
BRANCH   1  26
HETATM   26  O   UNL     1     -39.343  51.059 -54.041  1.00  0.00    -0.356 OA
HETATM   27  C   UNL     1     -39.895  49.799 -54.405  1.00  0.00     0.210 C 
ENDBRANCH   1  26
TORSDOF 4
ENDMDL
MODEL 4
REMARK VINA RESULT:      -7.7      2.219      2.470
REMARK  4 active torsions:
REMARK  status: ('A' for Active; 'I' for Inactive)
REMARK    1  A    between atoms: O_2  and  C_3 
REMARK    2  A    between atoms: N_9  and  N_10 
REMARK       I    between atoms: N_10  and  C_11 
REMARK    3  A    between atoms: C_11  and  C_12 
REMARK    4  A    between atoms: C_13  and  O_14 
ROOT
HETATM    1  C   UNL     1     -40.611  53.925 -53.804  1.00  0.00     0.069 A 
HETATM    2  C   UNL     1     -40.923  54.779 -52.741  1.00  0.00     0.053 A 
HETATM    3  C   UNL     1     -40.858  54.266 -51.455  1.00  0.00     0.029 A 
HETATM    4  C   UNL     1     -41.111  54.856 -50.130  1.00  0.00     0.157 A 
HETATM    5  C   UNL     1     -40.677  53.781 -49.109  1.00  0.00     0.277 A 
HETATM    6  O   UNL     1     -40.672  53.885 -47.903  1.00  0.00    -0.266 OA
HETATM    7  N   UNL     1     -41.605  55.987 -49.741  1.00  0.00    -0.166 NA
HETATM    8  C   UNL     1     -40.421  52.960 -51.220  1.00  0.00     0.048 A 
HETATM    9  N   UNL     1     -40.325  52.685 -49.862  1.00  0.00    -0.321 N 
HETATM   10  C   UNL     1     -40.099  52.102 -52.250  1.00  0.00     0.033 A 
HETATM   11  C   UNL     1     -40.211  52.596 -53.552  1.00  0.00     0.039 A 
HETATM   12  H   UNL     1     -39.999  51.825 -49.447  1.00  0.00     0.169 HD
ENDROOT
BRANCH   7  13
HETATM   13  N   UNL     1     -42.155  56.829 -50.657  1.00  0.00    -0.242 N 
HETATM   14  C   UNL     1     -41.501  58.004 -50.994  1.00  0.00     0.274 C 
HETATM   15  O   UNL     1     -40.361  58.307 -50.644  1.00  0.00    -0.266 OA
HETATM   16  H   UNL     1     -43.101  56.653 -50.952  1.00  0.00     0.192 HD
BRANCH  14  17
HETATM   17  C   UNL     1     -42.217  58.927 -51.921  1.00  0.00     0.068 A 
HETATM   18  C   UNL     1     -41.522  59.476 -53.012  1.00  0.00     0.081 A 
HETATM   19  C   UNL     1     -42.167  60.304 -53.929  1.00  0.00     0.039 A 
HETATM   20  C   UNL     1     -43.518  60.609 -53.763  1.00  0.00     0.022 A 
HETATM   21  C   UNL     1     -44.208  60.092 -52.668  1.00  0.00     0.012 A 
HETATM   22 BR   UNL     1     -46.036  60.510 -52.433  1.00  0.00    -0.051 Br
HETATM   23  C   UNL     1     -43.568  59.263 -51.742  1.00  0.00     0.039 A 
BRANCH  18  24
HETATM   24  O   UNL     1     -40.195  59.240 -53.252  1.00  0.00    -0.360 OA
HETATM   25  H   UNL     1     -40.066  59.182 -54.228  1.00  0.00     0.217 HD
ENDBRANCH  18  24
ENDBRANCH  14  17
ENDBRANCH   7  13
BRANCH   1  26
HETATM   26  O   UNL     1     -40.643  54.258 -55.131  1.00  0.00    -0.356 OA
HETATM   27  C   UNL     1     -41.709  55.091 -55.571  1.00  0.00     0.210 C 
ENDBRANCH   1  26
TORSDOF 4
ENDMDL
MODEL 5
REMARK VINA RESULT:      -7.5      3.849      7.380
REMARK  4 active torsions:
REMARK  status: ('A' for Active; 'I' for Inactive)
REMARK    1  A    between atoms: O_2  and  C_3 
REMARK    2  A    between atoms: N_9  and  N_10 
REMARK       I    between atoms: N_10  and  C_11 
REMARK    3  A    between atoms: C_11  and  C_12 
REMARK    4  A    between atoms: C_13  and  O_14 
ROOT
HETATM    1  C   UNL     1     -41.686  59.047 -54.563  1.00  0.00     0.069 A 
HETATM    2  C   UNL     1     -41.806  57.685 -54.860  1.00  0.00     0.053 A 
HETATM    3  C   UNL     1     -42.471  57.330 -56.023  1.00  0.00     0.029 A 
HETATM    4  C   UNL     1     -42.781  56.030 -56.640  1.00  0.00     0.157 A 
HETATM    5  C   UNL     1     -43.387  56.361 -58.021  1.00  0.00     0.277 A 
HETATM    6  O   UNL     1     -43.730  55.571 -58.872  1.00  0.00    -0.266 OA
HETATM    7  N   UNL     1     -42.661  54.805 -56.238  1.00  0.00    -0.166 NA
HETATM    8  C   UNL     1     -42.940  58.301 -56.911  1.00  0.00     0.048 A 
HETATM    9  N   UNL     1     -43.474  57.734 -58.060  1.00  0.00    -0.321 N 
HETATM   10  C   UNL     1     -42.825  59.649 -56.646  1.00  0.00     0.033 A 
HETATM   11  C   UNL     1     -42.202  60.014 -55.451  1.00  0.00     0.039 A 
HETATM   12  H   UNL     1     -43.841  58.231 -58.859  1.00  0.00     0.169 HD
ENDROOT
BRANCH   7  13
HETATM   13  N   UNL     1     -42.307  54.554 -54.949  1.00  0.00    -0.242 N 
HETATM   14  C   UNL     1     -41.050  54.042 -54.666  1.00  0.00     0.274 C 
HETATM   15  O   UNL     1     -40.134  53.922 -55.478  1.00  0.00    -0.266 OA
HETATM   16  H   UNL     1     -43.025  54.600 -54.245  1.00  0.00     0.192 HD
BRANCH  14  17
HETATM   17  C   UNL     1     -40.776  53.690 -53.243  1.00  0.00     0.068 A 
HETATM   18  C   UNL     1     -40.155  52.463 -52.951  1.00  0.00     0.081 A 
HETATM   19  C   UNL     1     -39.837  52.116 -51.638  1.00  0.00     0.039 A 
HETATM   20  C   UNL     1     -40.147  52.986 -50.594  1.00  0.00     0.022 A 
HETATM   21  C   UNL     1     -40.787  54.192 -50.872  1.00  0.00     0.012 A 
HETATM   22 BR   UNL     1     -41.218  55.370 -49.457  1.00  0.00    -0.051 Br
HETATM   23  C   UNL     1     -41.112  54.546 -52.184  1.00  0.00     0.039 A 
BRANCH  18  24
HETATM   24  O   UNL     1     -39.821  51.543 -53.909  1.00  0.00    -0.360 OA
HETATM   25  H   UNL     1     -38.862  51.336 -53.813  1.00  0.00     0.217 HD
ENDBRANCH  18  24
ENDBRANCH  14  17
ENDBRANCH   7  13
BRANCH   1  26
HETATM   26  O   UNL     1     -41.081  59.571 -53.453  1.00  0.00    -0.356 OA
HETATM   27  C   UNL     1     -40.219  58.715 -52.712  1.00  0.00     0.210 C 
ENDBRANCH   1  26
TORSDOF 4
ENDMDL
MODEL 6
REMARK VINA RESULT:      -7.3      3.427      7.006
REMARK  4 active torsions:
REMARK  status: ('A' for Active; 'I' for Inactive)
REMARK    1  A    between atoms: O_2  and  C_3 
REMARK    2  A    between atoms: N_9  and  N_10 
REMARK       I    between atoms: N_10  and  C_11 
REMARK    3  A    between atoms: C_11  and  C_12 
REMARK    4  A    between atoms: C_13  and  O_14 
ROOT
HETATM    1  C   UNL     1     -41.541  58.642 -51.292  1.00  0.00     0.069 A 
HETATM    2  C   UNL     1     -41.987  57.666 -52.190  1.00  0.00     0.053 A 
HETATM    3  C   UNL     1     -43.125  57.940 -52.933  1.00  0.00     0.029 A 
HETATM    4  C   UNL     1     -43.865  57.170 -53.946  1.00  0.00     0.157 A 
HETATM    5  C   UNL     1     -44.933  58.138 -54.502  1.00  0.00     0.277 A 
HETATM    6  O   UNL     1     -45.721  57.916 -55.394  1.00  0.00    -0.266 OA
HETATM    7  N   UNL     1     -43.784  55.950 -54.369  1.00  0.00    -0.166 NA
HETATM    8  C   UNL     1     -43.762  59.180 -52.847  1.00  0.00     0.048 A 
HETATM    9  N   UNL     1     -44.811  59.284 -53.751  1.00  0.00    -0.321 N 
HETATM   10  C   UNL     1     -43.336  60.161 -51.978  1.00  0.00     0.033 A 
HETATM   11  C   UNL     1     -42.220  59.873 -51.187  1.00  0.00     0.039 A 
HETATM   12  H   UNL     1     -45.394  60.095 -53.901  1.00  0.00     0.169 HD
ENDROOT
BRANCH   7  13
HETATM   13  N   UNL     1     -42.969  55.071 -53.727  1.00  0.00    -0.242 N 
HETATM   14  C   UNL     1     -41.804  54.635 -54.342  1.00  0.00     0.274 C 
HETATM   15  O   UNL     1     -41.342  55.088 -55.388  1.00  0.00    -0.266 OA
HETATM   16  H   UNL     1     -43.310  54.637 -52.885  1.00  0.00     0.192 HD
BRANCH  14  17
HETATM   17  C   UNL     1     -41.019  53.589 -53.624  1.00  0.00     0.068 A 
HETATM   18  C   UNL     1     -40.645  53.812 -52.288  1.00  0.00     0.081 A 
HETATM   19  C   UNL     1     -39.953  52.841 -51.567  1.00  0.00     0.039 A 
HETATM   20  C   UNL     1     -39.612  51.633 -52.174  1.00  0.00     0.022 A 
HETATM   21  C   UNL     1     -39.955  51.415 -53.507  1.00  0.00     0.012 A 
HETATM   22 BR   UNL     1     -39.485  49.783 -54.338  1.00  0.00    -0.051 Br
HETATM   23  C   UNL     1     -40.646  52.384 -54.239  1.00  0.00     0.039 A 
BRANCH  18  24
HETATM   24  O   UNL     1     -40.930  54.969 -51.612  1.00  0.00    -0.360 OA
HETATM   25  H   UNL     1     -41.831  55.265 -51.878  1.00  0.00     0.217 HD
ENDBRANCH  18  24
ENDBRANCH  14  17
ENDBRANCH   7  13
BRANCH   1  26
HETATM   26  O   UNL     1     -40.452  58.530 -50.470  1.00  0.00    -0.356 OA
HETATM   27  C   UNL     1     -39.370  59.427 -50.692  1.00  0.00     0.210 C 
ENDBRANCH   1  26
TORSDOF 4
ENDMDL
MODEL 7
REMARK VINA RESULT:      -7.3      2.896      4.622
REMARK  4 active torsions:
REMARK  status: ('A' for Active; 'I' for Inactive)
REMARK    1  A    between atoms: O_2  and  C_3 
REMARK    2  A    between atoms: N_9  and  N_10 
REMARK       I    between atoms: N_10  and  C_11 
REMARK    3  A    between atoms: C_11  and  C_12 
REMARK    4  A    between atoms: C_13  and  O_14 
ROOT
HETATM    1  C   UNL     1     -40.351  52.794 -53.456  1.00  0.00     0.069 A 
HETATM    2  C   UNL     1     -40.611  54.150 -53.683  1.00  0.00     0.053 A 
HETATM    3  C   UNL     1     -40.932  54.940 -52.591  1.00  0.00     0.029 A 
HETATM    4  C   UNL     1     -41.260  56.369 -52.453  1.00  0.00     0.157 A 
HETATM    5  C   UNL     1     -41.337  56.632 -50.933  1.00  0.00     0.277 A 
HETATM    6  O   UNL     1     -41.531  57.695 -50.388  1.00  0.00    -0.266 OA
HETATM    7  N   UNL     1     -41.490  57.314 -53.307  1.00  0.00    -0.166 NA
HETATM    8  C   UNL     1     -40.922  54.419 -51.294  1.00  0.00     0.048 A 
HETATM    9  N   UNL     1     -41.163  55.401 -50.342  1.00  0.00    -0.321 N 
HETATM   10  C   UNL     1     -40.658  53.090 -51.045  1.00  0.00     0.033 A 
HETATM   11  C   UNL     1     -40.384  52.275 -52.145  1.00  0.00     0.039 A 
HETATM   12  H   UNL     1     -41.169  55.275 -49.341  1.00  0.00     0.169 HD
ENDROOT
BRANCH   7  13
HETATM   13  N   UNL     1     -41.606  57.010 -54.628  1.00  0.00    -0.242 N 
HETATM   14  C   UNL     1     -42.407  57.791 -55.448  1.00  0.00     0.274 C 
HETATM   15  O   UNL     1     -42.931  58.855 -55.123  1.00  0.00    -0.266 OA
HETATM   16  H   UNL     1     -41.230  56.132 -54.945  1.00  0.00     0.192 HD
BRANCH  14  17
HETATM   17  C   UNL     1     -42.572  57.331 -56.857  1.00  0.00     0.068 A 
HETATM   18  C   UNL     1     -43.101  56.052 -57.101  1.00  0.00     0.081 A 
HETATM   19  C   UNL     1     -43.316  55.603 -58.403  1.00  0.00     0.039 A 
HETATM   20  C   UNL     1     -42.993  56.421 -59.485  1.00  0.00     0.022 A 
HETATM   21  C   UNL     1     -42.441  57.679 -59.252  1.00  0.00     0.012 A 
HETATM   22 BR   UNL     1     -41.991  58.788 -60.716  1.00  0.00    -0.051 Br
HETATM   23  C   UNL     1     -42.219  58.137 -57.950  1.00  0.00     0.039 A 
BRANCH  18  24
HETATM   24  O   UNL     1     -43.441  55.177 -56.104  1.00  0.00    -0.360 OA
HETATM   25  H   UNL     1     -43.723  54.330 -56.522  1.00  0.00     0.217 HD
ENDBRANCH  18  24
ENDBRANCH  14  17
ENDBRANCH   7  13
BRANCH   1  26
HETATM   26  O   UNL     1     -40.038  51.871 -54.417  1.00  0.00    -0.356 OA
HETATM   27  C   UNL     1     -39.715  50.556 -53.981  1.00  0.00     0.210 C 
ENDBRANCH   1  26
TORSDOF 4
ENDMDL
MODEL 8
REMARK VINA RESULT:      -7.1      3.439      5.680
REMARK  4 active torsions:
REMARK  status: ('A' for Active; 'I' for Inactive)
REMARK    1  A    between atoms: O_2  and  C_3 
REMARK    2  A    between atoms: N_9  and  N_10 
REMARK       I    between atoms: N_10  and  C_11 
REMARK    3  A    between atoms: C_11  and  C_12 
REMARK    4  A    between atoms: C_13  and  O_14 
ROOT
HETATM    1  C   UNL     1     -42.233  54.167 -53.359  1.00  0.00     0.069 A 
HETATM    2  C   UNL     1     -42.945  55.258 -53.868  1.00  0.00     0.053 A 
HETATM    3  C   UNL     1     -43.594  56.086 -52.966  1.00  0.00     0.029 A 
HETATM    4  C   UNL     1     -44.418  57.295 -53.133  1.00  0.00     0.157 A 
HETATM    5  C   UNL     1     -44.677  57.821 -51.704  1.00  0.00     0.277 A 
HETATM    6  O   UNL     1     -45.272  58.830 -51.398  1.00  0.00    -0.266 OA
HETATM    7  N   UNL     1     -44.917  57.894 -54.167  1.00  0.00    -0.166 NA
HETATM    8  C   UNL     1     -43.479  55.885 -51.588  1.00  0.00     0.048 A 
HETATM    9  N   UNL     1     -44.113  56.887 -50.866  1.00  0.00    -0.321 N 
HETATM   10  C   UNL     1     -42.775  54.824 -51.063  1.00  0.00     0.033 A 
HETATM   11  C   UNL     1     -42.160  53.954 -51.967  1.00  0.00     0.039 A 
HETATM   12  H   UNL     1     -44.135  56.978 -49.861  1.00  0.00     0.169 HD
ENDROOT
BRANCH   7  13
HETATM   13  N   UNL     1     -44.835  57.302 -55.389  1.00  0.00    -0.242 N 
HETATM   14  C   UNL     1     -44.291  57.999 -56.457  1.00  0.00     0.274 C 
HETATM   15  O   UNL     1     -43.721  59.087 -56.379  1.00  0.00    -0.266 OA
HETATM   16  H   UNL     1     -45.315  56.428 -55.524  1.00  0.00     0.192 HD
BRANCH  14  17
HETATM   17  C   UNL     1     -44.336  57.326 -57.788  1.00  0.00     0.068 A 
HETATM   18  C   UNL     1     -43.172  56.714 -58.284  1.00  0.00     0.081 A 
HETATM   19  C   UNL     1     -43.184  56.033 -59.500  1.00  0.00     0.039 A 
HETATM   20  C   UNL     1     -44.358  55.964 -60.248  1.00  0.00     0.022 A 
HETATM   21  C   UNL     1     -45.510  56.591 -59.777  1.00  0.00     0.012 A 
HETATM   22 BR   UNL     1     -47.102  56.509 -60.793  1.00  0.00    -0.051 Br
HETATM   23  C   UNL     1     -45.506  57.279 -58.560  1.00  0.00     0.039 A 
BRANCH  18  24
HETATM   24  O   UNL     1     -41.972  56.736 -57.624  1.00  0.00    -0.360 OA
HETATM   25  H   UNL     1     -41.256  56.842 -58.293  1.00  0.00     0.217 HD
ENDBRANCH  18  24
ENDBRANCH  14  17
ENDBRANCH   7  13
BRANCH   1  26
HETATM   26  O   UNL     1     -41.553  53.241 -54.104  1.00  0.00    -0.356 OA
HETATM   27  C   UNL     1     -40.389  53.683 -54.793  1.00  0.00     0.210 C 
ENDBRANCH   1  26
TORSDOF 4
ENDMDL
MODEL 9
REMARK VINA RESULT:      -6.9      5.184      7.951
REMARK  4 active torsions:
REMARK  status: ('A' for Active; 'I' for Inactive)
REMARK    1  A    between atoms: O_2  and  C_3 
REMARK    2  A    between atoms: N_9  and  N_10 
REMARK       I    between atoms: N_10  and  C_11 
REMARK    3  A    between atoms: C_11  and  C_12 
REMARK    4  A    between atoms: C_13  and  O_14 
ROOT
HETATM    1  C   UNL     1     -41.865  59.555 -58.481  1.00  0.00     0.069 A 
HETATM    2  C   UNL     1     -42.050  58.208 -58.155  1.00  0.00     0.053 A 
HETATM    3  C   UNL     1     -42.920  57.464 -58.938  1.00  0.00     0.029 A 
HETATM    4  C   UNL     1     -43.351  56.057 -58.893  1.00  0.00     0.157 A 
HETATM    5  C   UNL     1     -44.197  55.842 -60.167  1.00  0.00     0.277 A 
HETATM    6  O   UNL     1     -44.697  54.805 -60.541  1.00  0.00    -0.266 OA
HETATM    7  N   UNL     1     -43.171  55.100 -58.040  1.00  0.00    -0.166 NA
HETATM    8  C   UNL     1     -43.535  58.021 -60.062  1.00  0.00     0.048 A 
HETATM    9  N   UNL     1     -44.277  57.080 -60.763  1.00  0.00    -0.321 N 
HETATM   10  C   UNL     1     -43.361  59.343 -60.409  1.00  0.00     0.033 A 
HETATM   11  C   UNL     1     -42.525  60.113 -59.596  1.00  0.00     0.039 A 
HETATM   12  H   UNL     1     -44.779  57.234 -61.626  1.00  0.00     0.169 HD
ENDROOT
BRANCH   7  13
HETATM   13  N   UNL     1     -42.590  55.371 -56.841  1.00  0.00    -0.242 N 
HETATM   14  C   UNL     1     -42.903  54.599 -55.732  1.00  0.00     0.274 C 
HETATM   15  O   UNL     1     -43.568  53.565 -55.753  1.00  0.00    -0.266 OA
HETATM   16  H   UNL     1     -42.064  56.225 -56.753  1.00  0.00     0.192 HD
BRANCH  14  17
HETATM   17  C   UNL     1     -42.311  55.025 -54.431  1.00  0.00     0.068 A 
HETATM   18  C   UNL     1     -42.445  56.364 -54.025  1.00  0.00     0.081 A 
HETATM   19  C   UNL     1     -41.950  56.792 -52.795  1.00  0.00     0.039 A 
HETATM   20  C   UNL     1     -41.298  55.891 -51.954  1.00  0.00     0.022 A 
HETATM   21  C   UNL     1     -41.135  54.568 -52.361  1.00  0.00     0.012 A 
HETATM   22 BR   UNL     1     -40.243  53.345 -51.229  1.00  0.00    -0.051 Br
HETATM   23  C   UNL     1     -41.627  54.131 -53.594  1.00  0.00     0.039 A 
BRANCH  18  24
HETATM   24  O   UNL     1     -43.063  57.321 -54.786  1.00  0.00    -0.360 OA
HETATM   25  H   UNL     1     -42.455  57.566 -55.523  1.00  0.00     0.217 HD
ENDBRANCH  18  24
ENDBRANCH  14  17
ENDBRANCH   7  13
BRANCH   1  26
HETATM   26  O   UNL     1     -41.062  60.435 -57.808  1.00  0.00    -0.356 OA
HETATM   27  C   UNL     1     -40.996  61.769 -58.299  1.00  0.00     0.210 C 
ENDBRANCH   1  26
TORSDOF 4
ENDMDL
MODEL 10
REMARK VINA RESULT:      -6.9      3.704      7.187
REMARK  4 active torsions:
REMARK  status: ('A' for Active; 'I' for Inactive)
REMARK    1  A    between atoms: O_2  and  C_3 
REMARK    2  A    between atoms: N_9  and  N_10 
REMARK       I    between atoms: N_10  and  C_11 
REMARK    3  A    between atoms: C_11  and  C_12 
REMARK    4  A    between atoms: C_13  and  O_14 
ROOT
HETATM    1  C   UNL     1     -40.963  58.760 -51.920  1.00  0.00     0.069 A 
HETATM    2  C   UNL     1     -41.001  57.795 -52.932  1.00  0.00     0.053 A 
HETATM    3  C   UNL     1     -41.829  58.027 -54.019  1.00  0.00     0.029 A 
HETATM    4  C   UNL     1     -42.118  57.254 -55.238  1.00  0.00     0.157 A 
HETATM    5  C   UNL     1     -42.996  58.174 -56.114  1.00  0.00     0.277 A 
HETATM    6  O   UNL     1     -43.410  57.939 -57.227  1.00  0.00    -0.266 OA
HETATM    7  N   UNL     1     -41.808  56.058 -55.627  1.00  0.00    -0.166 NA
HETATM    8  C   UNL     1     -42.546  59.220 -54.139  1.00  0.00     0.048 A 
HETATM    9  N   UNL     1     -43.223  59.295 -55.349  1.00  0.00    -0.321 N 
HETATM   10  C   UNL     1     -42.517  60.190 -53.161  1.00  0.00     0.033 A 
HETATM   11  C   UNL     1     -41.725  59.941 -52.038  1.00  0.00     0.039 A 
HETATM   12  H   UNL     1     -43.777  60.072 -55.678  1.00  0.00     0.169 HD
ENDROOT
BRANCH   7  13
HETATM   13  N   UNL     1     -41.201  55.207 -54.756  1.00  0.00    -0.242 N 
HETATM   14  C   UNL     1     -41.970  54.429 -53.904  1.00  0.00     0.274 C 
HETATM   15  O   UNL     1     -43.194  54.319 -53.953  1.00  0.00    -0.266 OA
HETATM   16  H   UNL     1     -40.203  55.278 -54.644  1.00  0.00     0.192 HD
BRANCH  14  17
HETATM   17  C   UNL     1     -41.232  53.604 -52.904  1.00  0.00     0.068 A 
HETATM   18  C   UNL     1     -40.470  52.510 -53.349  1.00  0.00     0.081 A 
HETATM   19  C   UNL     1     -39.727  51.743 -52.453  1.00  0.00     0.039 A 
HETATM   20  C   UNL     1     -39.745  52.049 -51.093  1.00  0.00     0.022 A 
HETATM   21  C   UNL     1     -40.520  53.114 -50.639  1.00  0.00     0.012 A 
HETATM   22 BR   UNL     1     -40.556  53.525 -48.794  1.00  0.00    -0.051 Br
HETATM   23  C   UNL     1     -41.270  53.887 -51.530  1.00  0.00     0.039 A 
BRANCH  18  24
HETATM   24  O   UNL     1     -40.398  52.131 -54.663  1.00  0.00    -0.360 OA
HETATM   25  H   UNL     1     -39.696  52.669 -55.099  1.00  0.00     0.217 HD
ENDBRANCH  18  24
ENDBRANCH  14  17
ENDBRANCH   7  13
BRANCH   1  26
HETATM   26  O   UNL     1     -40.219  58.684 -50.774  1.00  0.00    -0.356 OA
HETATM   27  C   UNL     1     -39.432  59.818 -50.429  1.00  0.00     0.210 C 
ENDBRANCH   1  26
TORSDOF 4
ENDMDL
