MODEL 1
REMARK VINA RESULT:      -9.3      0.000      0.000
REMARK  9 active torsions:
REMARK  status: ('A' for Active; 'I' for Inactive)
REMARK    1  A    between atoms: C_2  and  C_3 
REMARK    2  A    between atoms: C_3  and  O_4 
REMARK    3  A    between atoms: O_4  and  C_5 
REMARK    4  A    between atoms: C_8  and  C_9 
REMARK       I    between atoms: C_9  and  N_10 
REMARK    5  A    between atoms: N_10  and  C_11 
REMARK    6  A    between atoms: C_11  and  N_12 
REMARK    7  A    between atoms: N_12  and  C_13 
REMARK    8  A    between atoms: C_15  and  C_16 
REMARK    9  A    between atoms: C_27  and  O_28 
ROOT
HETATM    1  C   UNL     1     -42.973  58.950 -52.160  1.00  0.00     0.035 A 
HETATM    2  C   UNL     1     -42.281  57.739 -52.273  1.00  0.00     0.048 A 
HETATM    3  C   UNL     1     -42.811  56.668 -53.021  1.00  0.00     0.052 A 
HETATM    4  C   UNL     1     -44.054  56.843 -53.652  1.00  0.00     0.080 A 
HETATM    5  C   UNL     1     -44.749  58.041 -53.545  1.00  0.00     0.040 A 
HETATM    6  C   UNL     1     -44.213  59.087 -52.796  1.00  0.00     0.032 A 
ENDROOT
BRANCH   1   7
HETATM    7  N   UNL     1     -42.559  60.036 -51.362  1.00  0.00    -0.333 N 
HETATM    8  H   UNL     1     -41.573  60.275 -51.438  1.00  0.00     0.168 HD
BRANCH   7   9
HETATM    9  C   UNL     1     -43.265  60.981 -50.669  1.00  0.00     0.179 C 
HETATM   10  S   UNL     1     -43.401  62.489 -51.389  1.00  0.00    -0.040 SA
BRANCH   9  11
HETATM   11  N   UNL     1     -43.703  60.640 -49.412  1.00  0.00    -0.299 N 
HETATM   12  C   UNL     1     -44.913  61.062 -48.888  1.00  0.00     0.257 C 
HETATM   13  O   UNL     1     -45.987  60.768 -49.410  1.00  0.00    -0.267 OA
HETATM   14  H   UNL     1     -42.933  60.520 -48.774  1.00  0.00     0.171 HD
BRANCH  12  15
HETATM   15  C   UNL     1     -44.913  61.809 -47.592  1.00  0.00     0.032 A 
HETATM   16  C   UNL     1     -44.764  61.048 -46.421  1.00  0.00     0.020 A 
HETATM   17  C   UNL     1     -44.812  61.644 -45.157  1.00  0.00     0.038 A 
HETATM   18  C   UNL     1     -45.006  63.017 -45.041  1.00  0.00     0.068 A 
HETATM   19  C   UNL     1     -45.146  63.783 -46.203  1.00  0.00     0.038 A 
HETATM   20  C   UNL     1     -45.107  63.188 -47.473  1.00  0.00     0.020 A 
BRANCH  18  21
HETATM   21  O   UNL     1     -45.080  63.721 -43.869  1.00  0.00    -0.351 OA
BRANCH  21  22
HETATM   22  C   UNL     1     -43.963  64.552 -43.546  1.00  0.00     0.175 C 
BRANCH  22  23
HETATM   23  C   UNL     1     -43.057  63.787 -42.587  1.00  0.00     0.022 C 
HETATM   24  C   UNL     1     -43.662  63.696 -41.196  1.00  0.00     0.007 C 
ENDBRANCH  22  23
ENDBRANCH  21  22
ENDBRANCH  18  21
ENDBRANCH  12  15
ENDBRANCH   9  11
ENDBRANCH   7   9
ENDBRANCH   1   7
BRANCH   3  25
HETATM   25  C   UNL     1     -42.116  55.387 -53.118  1.00  0.00     0.183 A 
HETATM   26  O   UNL     1     -41.602  54.853 -51.965  1.00  0.00    -0.289 OA
HETATM   27  C   UNL     1     -41.042  53.677 -52.372  1.00  0.00     0.107 A 
HETATM   28  C   UNL     1     -41.235  53.564 -53.735  1.00  0.00     0.094 A 
HETATM   29  C   UNL     1     -40.394  52.735 -51.584  1.00  0.00     0.047 A 
HETATM   30  N   UNL     1     -41.906  54.664 -54.206  1.00  0.00    -0.221 NA
HETATM   31  C   UNL     1     -40.759  52.424 -54.395  1.00  0.00     0.041 A 
HETATM   32  C   UNL     1     -40.090  51.431 -53.645  1.00  0.00    -0.054 A 
HETATM   33  C   UNL     1     -39.918  51.584 -52.247  1.00  0.00    -0.053 A 
HETATM   34  C   UNL     1     -39.619  50.192 -54.362  1.00  0.00     0.049 C 
HETATM   35  C   UNL     1     -39.213  50.530 -51.431  1.00  0.00     0.049 C 
ENDBRANCH   3  25
BRANCH   4  36
HETATM   36  O   UNL     1     -44.666  55.860 -54.385  1.00  0.00    -0.360 OA
HETATM   37  H   UNL     1     -43.982  55.372 -54.892  1.00  0.00     0.217 HD
ENDBRANCH   4  36
TORSDOF 9
ENDMDL
MODEL 2
REMARK VINA RESULT:      -9.2      5.330      9.855
REMARK  9 active torsions:
REMARK  status: ('A' for Active; 'I' for Inactive)
REMARK    1  A    between atoms: C_2  and  C_3 
REMARK    2  A    between atoms: C_3  and  O_4 
REMARK    3  A    between atoms: O_4  and  C_5 
REMARK    4  A    between atoms: C_8  and  C_9 
REMARK       I    between atoms: C_9  and  N_10 
REMARK    5  A    between atoms: N_10  and  C_11 
REMARK    6  A    between atoms: C_11  and  N_12 
REMARK    7  A    between atoms: N_12  and  C_13 
REMARK    8  A    between atoms: C_15  and  C_16 
REMARK    9  A    between atoms: C_27  and  O_28 
ROOT
HETATM    1  C   UNL     1     -44.124  56.792 -53.928  1.00  0.00     0.035 A 
HETATM    2  C   UNL     1     -43.702  57.796 -54.806  1.00  0.00     0.048 A 
HETATM    3  C   UNL     1     -43.039  57.476 -56.009  1.00  0.00     0.052 A 
HETATM    4  C   UNL     1     -42.810  56.124 -56.307  1.00  0.00     0.080 A 
HETATM    5  C   UNL     1     -43.224  55.118 -55.442  1.00  0.00     0.040 A 
HETATM    6  C   UNL     1     -43.871  55.453 -54.254  1.00  0.00     0.032 A 
ENDROOT
BRANCH   1   7
HETATM    7  N   UNL     1     -44.711  57.026 -52.668  1.00  0.00    -0.333 N 
HETATM    8  H   UNL     1     -45.586  56.535 -52.503  1.00  0.00     0.168 HD
BRANCH   7   9
HETATM    9  C   UNL     1     -44.226  57.610 -51.529  1.00  0.00     0.179 C 
HETATM   10  S   UNL     1     -44.546  59.244 -51.333  1.00  0.00    -0.040 SA
BRANCH   9  11
HETATM   11  N   UNL     1     -43.440  56.834 -50.713  1.00  0.00    -0.299 N 
HETATM   12  C   UNL     1     -42.065  56.736 -50.851  1.00  0.00     0.257 C 
HETATM   13  O   UNL     1     -41.328  57.713 -50.737  1.00  0.00    -0.267 OA
HETATM   14  H   UNL     1     -43.937  56.020 -50.389  1.00  0.00     0.171 HD
BRANCH  12  15
HETATM   15  C   UNL     1     -41.457  55.382 -51.040  1.00  0.00     0.032 A 
HETATM   16  C   UNL     1     -41.133  54.664 -49.878  1.00  0.00     0.020 A 
HETATM   17  C   UNL     1     -40.505  53.416 -49.948  1.00  0.00     0.038 A 
HETATM   18  C   UNL     1     -40.193  52.861 -51.185  1.00  0.00     0.068 A 
HETATM   19  C   UNL     1     -40.521  53.566 -52.347  1.00  0.00     0.038 A 
HETATM   20  C   UNL     1     -41.144  54.822 -52.283  1.00  0.00     0.020 A 
BRANCH  18  21
HETATM   21  O   UNL     1     -39.575  51.657 -51.391  1.00  0.00    -0.351 OA
BRANCH  21  22
HETATM   22  C   UNL     1     -39.182  51.358 -52.732  1.00  0.00     0.175 C 
BRANCH  22  23
HETATM   23  C   UNL     1     -39.782  50.009 -53.119  1.00  0.00     0.022 C 
HETATM   24  C   UNL     1     -39.789  49.810 -54.625  1.00  0.00     0.007 C 
ENDBRANCH  22  23
ENDBRANCH  21  22
ENDBRANCH  18  21
ENDBRANCH  12  15
ENDBRANCH   9  11
ENDBRANCH   7   9
ENDBRANCH   1   7
BRANCH   3  25
HETATM   25  C   UNL     1     -42.562  58.517 -56.916  1.00  0.00     0.183 A 
HETATM   26  O   UNL     1     -42.865  58.389 -58.247  1.00  0.00    -0.289 OA
HETATM   27  C   UNL     1     -42.307  59.498 -58.816  1.00  0.00     0.107 A 
HETATM   28  C   UNL     1     -41.695  60.227 -57.814  1.00  0.00     0.094 A 
HETATM   29  C   UNL     1     -42.336  59.864 -60.154  1.00  0.00     0.047 A 
HETATM   30  N   UNL     1     -41.848  59.588 -56.609  1.00  0.00    -0.221 NA
HETATM   31  C   UNL     1     -41.057  61.429 -58.144  1.00  0.00     0.041 A 
HETATM   32  C   UNL     1     -41.054  61.852 -59.492  1.00  0.00    -0.054 A 
HETATM   33  C   UNL     1     -41.698  61.076 -60.487  1.00  0.00    -0.053 A 
HETATM   34  C   UNL     1     -40.397  63.167 -59.825  1.00  0.00     0.049 C 
HETATM   35  C   UNL     1     -41.710  61.518 -61.929  1.00  0.00     0.049 C 
ENDBRANCH   3  25
BRANCH   4  36
HETATM   36  O   UNL     1     -42.158  55.707 -57.439  1.00  0.00    -0.360 OA
HETATM   37  H   UNL     1     -41.336  55.239 -57.175  1.00  0.00     0.217 HD
ENDBRANCH   4  36
TORSDOF 9
ENDMDL
MODEL 3
REMARK VINA RESULT:      -9.0      4.838      8.407
REMARK  9 active torsions:
REMARK  status: ('A' for Active; 'I' for Inactive)
REMARK    1  A    between atoms: C_2  and  C_3 
REMARK    2  A    between atoms: C_3  and  O_4 
REMARK    3  A    between atoms: O_4  and  C_5 
REMARK    4  A    between atoms: C_8  and  C_9 
REMARK       I    between atoms: C_9  and  N_10 
REMARK    5  A    between atoms: N_10  and  C_11 
REMARK    6  A    between atoms: C_11  and  N_12 
REMARK    7  A    between atoms: N_12  and  C_13 
REMARK    8  A    between atoms: C_15  and  C_16 
REMARK    9  A    between atoms: C_27  and  O_28 
ROOT
HETATM    1  C   UNL     1     -42.688  58.954 -52.214  1.00  0.00     0.035 A 
HETATM    2  C   UNL     1     -42.045  57.744 -52.500  1.00  0.00     0.048 A 
HETATM    3  C   UNL     1     -42.602  56.514 -52.096  1.00  0.00     0.052 A 
HETATM    4  C   UNL     1     -43.819  56.528 -51.395  1.00  0.00     0.080 A 
HETATM    5  C   UNL     1     -44.465  57.724 -51.106  1.00  0.00     0.040 A 
HETATM    6  C   UNL     1     -43.897  58.931 -51.507  1.00  0.00     0.032 A 
ENDROOT
BRANCH   1   7
HETATM    7  N   UNL     1     -42.159  60.228 -52.502  1.00  0.00    -0.333 N 
HETATM    8  H   UNL     1     -41.210  60.386 -52.171  1.00  0.00     0.168 HD
BRANCH   7   9
HETATM    9  C   UNL     1     -42.583  61.225 -53.338  1.00  0.00     0.179 C 
HETATM   10  S   UNL     1     -43.278  62.565 -52.609  1.00  0.00    -0.040 SA
BRANCH   9  11
HETATM   11  N   UNL     1     -42.497  60.990 -54.689  1.00  0.00    -0.299 N 
HETATM   12  C   UNL     1     -43.563  60.545 -55.452  1.00  0.00     0.257 C 
HETATM   13  O   UNL     1     -44.599  61.198 -55.569  1.00  0.00    -0.267 OA
HETATM   14  H   UNL     1     -41.574  60.685 -54.950  1.00  0.00     0.171 HD
BRANCH  12  15
HETATM   15  C   UNL     1     -43.404  59.284 -56.240  1.00  0.00     0.032 A 
HETATM   16  C   UNL     1     -43.848  58.097 -55.635  1.00  0.00     0.020 A 
HETATM   17  C   UNL     1     -43.687  56.858 -56.263  1.00  0.00     0.038 A 
HETATM   18  C   UNL     1     -43.082  56.784 -57.514  1.00  0.00     0.068 A 
HETATM   19  C   UNL     1     -42.646  57.962 -58.127  1.00  0.00     0.038 A 
HETATM   20  C   UNL     1     -42.797  59.207 -57.497  1.00  0.00     0.020 A 
BRANCH  18  21
HETATM   21  O   UNL     1     -42.859  55.639 -58.230  1.00  0.00    -0.351 OA
BRANCH  21  22
HETATM   22  C   UNL     1     -43.120  55.698 -59.635  1.00  0.00     0.175 C 
BRANCH  22  23
HETATM   23  C   UNL     1     -44.360  54.857 -59.928  1.00  0.00     0.022 C 
HETATM   24  C   UNL     1     -45.600  55.721 -60.077  1.00  0.00     0.007 C 
ENDBRANCH  22  23
ENDBRANCH  21  22
ENDBRANCH  18  21
ENDBRANCH  12  15
ENDBRANCH   9  11
ENDBRANCH   7   9
ENDBRANCH   1   7
BRANCH   3  25
HETATM   25  C   UNL     1     -41.923  55.247 -52.356  1.00  0.00     0.183 A 
HETATM   26  O   UNL     1     -41.483  54.526 -51.277  1.00  0.00    -0.289 OA
HETATM   27  C   UNL     1     -40.920  53.415 -51.835  1.00  0.00     0.107 A 
HETATM   28  C   UNL     1     -41.037  53.522 -53.207  1.00  0.00     0.094 A 
HETATM   29  C   UNL     1     -40.332  52.345 -51.173  1.00  0.00     0.047 A 
HETATM   30  N   UNL     1     -41.663  54.699 -53.533  1.00  0.00    -0.221 NA
HETATM   31  C   UNL     1     -40.543  52.489 -54.013  1.00  0.00     0.041 A 
HETATM   32  C   UNL     1     -39.933  51.374 -53.395  1.00  0.00    -0.054 A 
HETATM   33  C   UNL     1     -39.838  51.302 -51.983  1.00  0.00    -0.053 A 
HETATM   34  C   UNL     1     -39.442  50.253 -54.274  1.00  0.00     0.049 C 
HETATM   35  C   UNL     1     -39.197  50.115 -51.309  1.00  0.00     0.049 C 
ENDBRANCH   3  25
BRANCH   4  36
HETATM   36  O   UNL     1     -44.434  55.391 -50.940  1.00  0.00    -0.360 OA
HETATM   37  H   UNL     1     -44.180  54.641 -51.521  1.00  0.00     0.217 HD
ENDBRANCH   4  36
TORSDOF 9
ENDMDL
MODEL 4
REMARK VINA RESULT:      -8.9      4.985      9.407
REMARK  9 active torsions:
REMARK  status: ('A' for Active; 'I' for Inactive)
REMARK    1  A    between atoms: C_2  and  C_3 
REMARK    2  A    between atoms: C_3  and  O_4 
REMARK    3  A    between atoms: O_4  and  C_5 
REMARK    4  A    between atoms: C_8  and  C_9 
REMARK       I    between atoms: C_9  and  N_10 
REMARK    5  A    between atoms: N_10  and  C_11 
REMARK    6  A    between atoms: C_11  and  N_12 
REMARK    7  A    between atoms: N_12  and  C_13 
REMARK    8  A    between atoms: C_15  and  C_16 
REMARK    9  A    between atoms: C_27  and  O_28 
ROOT
HETATM    1  C   UNL     1     -43.343  59.155 -52.989  1.00  0.00     0.035 A 
HETATM    2  C   UNL     1     -42.659  57.935 -53.029  1.00  0.00     0.048 A 
HETATM    3  C   UNL     1     -43.091  56.837 -52.258  1.00  0.00     0.052 A 
HETATM    4  C   UNL     1     -44.224  56.994 -51.444  1.00  0.00     0.080 A 
HETATM    5  C   UNL     1     -44.911  58.201 -51.397  1.00  0.00     0.040 A 
HETATM    6  C   UNL     1     -44.466  59.279 -52.161  1.00  0.00     0.032 A 
ENDROOT
BRANCH   1   7
HETATM    7  N   UNL     1     -42.930  60.326 -53.657  1.00  0.00    -0.333 N 
HETATM    8  H   UNL     1     -42.548  61.052 -53.056  1.00  0.00     0.168 HD
BRANCH   7   9
HETATM    9  C   UNL     1     -42.732  60.598 -54.983  1.00  0.00     0.179 C 
HETATM   10  S   UNL     1     -43.501  61.958 -55.590  1.00  0.00    -0.040 SA
BRANCH   9  11
HETATM   11  N   UNL     1     -42.012  59.681 -55.711  1.00  0.00    -0.299 N 
HETATM   12  C   UNL     1     -41.821  59.778 -57.079  1.00  0.00     0.257 C 
HETATM   13  O   UNL     1     -41.239  60.733 -57.590  1.00  0.00    -0.267 OA
HETATM   14  H   UNL     1     -42.082  58.759 -55.312  1.00  0.00     0.171 HD
BRANCH  12  15
HETATM   15  C   UNL     1     -42.245  58.635 -57.945  1.00  0.00     0.032 A 
HETATM   16  C   UNL     1     -42.765  57.504 -57.295  1.00  0.00     0.020 A 
HETATM   17  C   UNL     1     -43.131  56.359 -58.011  1.00  0.00     0.038 A 
HETATM   18  C   UNL     1     -42.988  56.328 -59.395  1.00  0.00     0.068 A 
HETATM   19  C   UNL     1     -42.480  57.453 -60.051  1.00  0.00     0.038 A 
HETATM   20  C   UNL     1     -42.102  58.601 -59.336  1.00  0.00     0.020 A 
BRANCH  18  21
HETATM   21  O   UNL     1     -43.300  55.272 -60.209  1.00  0.00    -0.351 OA
BRANCH  21  22
HETATM   22  C   UNL     1     -44.614  54.725 -60.078  1.00  0.00     0.175 C 
BRANCH  22  23
HETATM   23  C   UNL     1     -45.548  55.490 -61.011  1.00  0.00     0.022 C 
HETATM   24  C   UNL     1     -46.606  56.258 -60.238  1.00  0.00     0.007 C 
ENDBRANCH  22  23
ENDBRANCH  21  22
ENDBRANCH  18  21
ENDBRANCH  12  15
ENDBRANCH   9  11
ENDBRANCH   7   9
ENDBRANCH   1   7
BRANCH   3  25
HETATM   25  C   UNL     1     -42.364  55.569 -52.263  1.00  0.00     0.183 A 
HETATM   26  O   UNL     1     -42.181  54.945 -53.469  1.00  0.00    -0.289 OA
HETATM   27  C   UNL     1     -41.473  53.822 -53.152  1.00  0.00     0.107 A 
HETATM   28  C   UNL     1     -41.273  53.819 -51.784  1.00  0.00     0.094 A 
HETATM   29  C   UNL     1     -41.012  52.842 -54.020  1.00  0.00     0.047 A 
HETATM   30  N   UNL     1     -41.857  54.927 -51.223  1.00  0.00    -0.221 NA
HETATM   31  C   UNL     1     -40.551  52.767 -51.207  1.00  0.00     0.041 A 
HETATM   32  C   UNL     1     -40.058  51.739 -52.042  1.00  0.00    -0.054 A 
HETATM   33  C   UNL     1     -40.281  51.784 -53.440  1.00  0.00    -0.053 A 
HETATM   34  C   UNL     1     -39.250  50.635 -51.411  1.00  0.00     0.049 C 
HETATM   35  C   UNL     1     -39.755  50.699 -54.345  1.00  0.00     0.049 C 
ENDBRANCH   3  25
BRANCH   4  36
HETATM   36  O   UNL     1     -44.714  55.996 -50.641  1.00  0.00    -0.360 OA
HETATM   37  H   UNL     1     -44.742  56.322 -49.716  1.00  0.00     0.217 HD
ENDBRANCH   4  36
TORSDOF 9
ENDMDL
MODEL 5
REMARK VINA RESULT:      -8.9      5.415     10.177
REMARK  9 active torsions:
REMARK  status: ('A' for Active; 'I' for Inactive)
REMARK    1  A    between atoms: C_2  and  C_3 
REMARK    2  A    between atoms: C_3  and  O_4 
REMARK    3  A    between atoms: O_4  and  C_5 
REMARK    4  A    between atoms: C_8  and  C_9 
REMARK       I    between atoms: C_9  and  N_10 
REMARK    5  A    between atoms: N_10  and  C_11 
REMARK    6  A    between atoms: C_11  and  N_12 
REMARK    7  A    between atoms: N_12  and  C_13 
REMARK    8  A    between atoms: C_15  and  C_16 
REMARK    9  A    between atoms: C_27  and  O_28 
ROOT
HETATM    1  C   UNL     1     -42.597  57.815 -54.310  1.00  0.00     0.035 A 
HETATM    2  C   UNL     1     -42.329  58.761 -55.306  1.00  0.00     0.048 A 
HETATM    3  C   UNL     1     -42.292  58.391 -56.666  1.00  0.00     0.052 A 
HETATM    4  C   UNL     1     -42.528  57.048 -57.001  1.00  0.00     0.080 A 
HETATM    5  C   UNL     1     -42.795  56.101 -56.020  1.00  0.00     0.040 A 
HETATM    6  C   UNL     1     -42.821  56.482 -54.680  1.00  0.00     0.032 A 
ENDROOT
BRANCH   1   7
HETATM    7  N   UNL     1     -42.565  58.080 -52.926  1.00  0.00    -0.333 N 
HETATM    8  H   UNL     1     -41.850  58.740 -52.630  1.00  0.00     0.168 HD
BRANCH   7   9
HETATM    9  C   UNL     1     -43.452  57.799 -51.922  1.00  0.00     0.179 C 
HETATM   10  S   UNL     1     -44.890  58.659 -51.933  1.00  0.00    -0.040 SA
BRANCH   9  11
HETATM   11  N   UNL     1     -43.038  56.921 -50.949  1.00  0.00    -0.299 N 
HETATM   12  C   UNL     1     -41.706  56.711 -50.632  1.00  0.00     0.257 C 
HETATM   13  O   UNL     1     -40.987  57.614 -50.211  1.00  0.00    -0.267 OA
HETATM   14  H   UNL     1     -43.668  56.140 -50.867  1.00  0.00     0.171 HD
BRANCH  12  15
HETATM   15  C   UNL     1     -41.163  55.319 -50.705  1.00  0.00     0.032 A 
HETATM   16  C   UNL     1     -41.197  54.689 -51.960  1.00  0.00     0.020 A 
HETATM   17  C   UNL     1     -40.769  53.368 -52.120  1.00  0.00     0.038 A 
HETATM   18  C   UNL     1     -40.294  52.652 -51.026  1.00  0.00     0.068 A 
HETATM   19  C   UNL     1     -40.248  53.275 -49.776  1.00  0.00     0.038 A 
HETATM   20  C   UNL     1     -40.684  54.598 -49.607  1.00  0.00     0.020 A 
BRANCH  18  21
HETATM   21  O   UNL     1     -39.854  51.355 -51.046  1.00  0.00    -0.351 OA
BRANCH  21  22
HETATM   22  C   UNL     1     -39.078  50.957 -52.178  1.00  0.00     0.175 C 
BRANCH  22  23
HETATM   23  C   UNL     1     -39.801  49.808 -52.876  1.00  0.00     0.022 C 
HETATM   24  C   UNL     1     -40.181  50.170 -54.302  1.00  0.00     0.007 C 
ENDBRANCH  22  23
ENDBRANCH  21  22
ENDBRANCH  18  21
ENDBRANCH  12  15
ENDBRANCH   9  11
ENDBRANCH   7   9
ENDBRANCH   1   7
BRANCH   3  25
HETATM   25  C   UNL     1     -41.978  59.362 -57.712  1.00  0.00     0.183 A 
HETATM   26  O   UNL     1     -41.183  60.427 -57.375  1.00  0.00    -0.289 OA
HETATM   27  C   UNL     1     -41.063  61.125 -58.541  1.00  0.00     0.107 A 
HETATM   28  C   UNL     1     -41.789  60.462 -59.511  1.00  0.00     0.094 A 
HETATM   29  C   UNL     1     -40.343  62.293 -58.754  1.00  0.00     0.047 A 
HETATM   30  N   UNL     1     -42.382  59.347 -58.972  1.00  0.00    -0.221 NA
HETATM   31  C   UNL     1     -41.812  60.977 -60.812  1.00  0.00     0.041 A 
HETATM   32  C   UNL     1     -41.098  62.165 -61.089  1.00  0.00    -0.054 A 
HETATM   33  C   UNL     1     -40.361  62.811 -60.065  1.00  0.00    -0.053 A 
HETATM   34  C   UNL     1     -41.099  62.685 -62.503  1.00  0.00     0.049 C 
HETATM   35  C   UNL     1     -39.587  64.074 -60.346  1.00  0.00     0.049 C 
ENDBRANCH   3  25
BRANCH   4  36
HETATM   36  O   UNL     1     -42.495  56.581 -58.290  1.00  0.00    -0.360 OA
HETATM   37  H   UNL     1     -42.706  57.321 -58.899  1.00  0.00     0.217 HD
ENDBRANCH   4  36
TORSDOF 9
ENDMDL
MODEL 6
REMARK VINA RESULT:      -8.7      1.473      2.216
REMARK  9 active torsions:
REMARK  status: ('A' for Active; 'I' for Inactive)
REMARK    1  A    between atoms: C_2  and  C_3 
REMARK    2  A    between atoms: C_3  and  O_4 
REMARK    3  A    between atoms: O_4  and  C_5 
REMARK    4  A    between atoms: C_8  and  C_9 
REMARK       I    between atoms: C_9  and  N_10 
REMARK    5  A    between atoms: N_10  and  C_11 
REMARK    6  A    between atoms: C_11  and  N_12 
REMARK    7  A    between atoms: N_12  and  C_13 
REMARK    8  A    between atoms: C_15  and  C_16 
REMARK    9  A    between atoms: C_27  and  O_28 
ROOT
HETATM    1  C   UNL     1     -45.002  59.555 -51.070  1.00  0.00     0.035 A 
HETATM    2  C   UNL     1     -44.220  58.410 -51.258  1.00  0.00     0.048 A 
HETATM    3  C   UNL     1     -44.006  57.882 -52.548  1.00  0.00     0.052 A 
HETATM    4  C   UNL     1     -44.597  58.532 -53.643  1.00  0.00     0.080 A 
HETATM    5  C   UNL     1     -45.375  59.670 -53.467  1.00  0.00     0.040 A 
HETATM    6  C   UNL     1     -45.582  60.173 -52.184  1.00  0.00     0.032 A 
ENDROOT
BRANCH   1   7
HETATM    7  N   UNL     1     -45.338  60.095 -49.812  1.00  0.00    -0.333 N 
HETATM    8  H   UNL     1     -46.092  59.616 -49.326  1.00  0.00     0.168 HD
BRANCH   7   9
HETATM    9  C   UNL     1     -44.703  61.003 -49.009  1.00  0.00     0.179 C 
HETATM   10  S   UNL     1     -44.038  62.339 -49.772  1.00  0.00    -0.040 SA
BRANCH   9  11
HETATM   11  N   UNL     1     -44.580  60.684 -47.678  1.00  0.00    -0.299 N 
HETATM   12  C   UNL     1     -45.522  61.032 -46.723  1.00  0.00     0.257 C 
HETATM   13  O   UNL     1     -46.683  60.630 -46.777  1.00  0.00    -0.267 OA
HETATM   14  H   UNL     1     -43.615  60.654 -47.394  1.00  0.00     0.171 HD
BRANCH  12  15
HETATM   15  C   UNL     1     -45.081  61.832 -45.539  1.00  0.00     0.032 A 
HETATM   16  C   UNL     1     -45.488  63.175 -45.494  1.00  0.00     0.020 A 
HETATM   17  C   UNL     1     -45.077  64.024 -44.461  1.00  0.00     0.038 A 
HETATM   18  C   UNL     1     -44.253  63.541 -43.449  1.00  0.00     0.068 A 
HETATM   19  C   UNL     1     -43.851  62.202 -43.482  1.00  0.00     0.038 A 
HETATM   20  C   UNL     1     -44.253  61.349 -44.521  1.00  0.00     0.020 A 
BRANCH  18  21
HETATM   21  O   UNL     1     -43.775  64.265 -42.390  1.00  0.00    -0.351 OA
BRANCH  21  22
HETATM   22  C   UNL     1     -43.906  63.673 -41.095  1.00  0.00     0.175 C 
BRANCH  22  23
HETATM   23  C   UNL     1     -45.364  63.788 -40.660  1.00  0.00     0.022 C 
HETATM   24  C   UNL     1     -45.553  63.353 -39.216  1.00  0.00     0.007 C 
ENDBRANCH  22  23
ENDBRANCH  21  22
ENDBRANCH  18  21
ENDBRANCH  12  15
ENDBRANCH   9  11
ENDBRANCH   7   9
ENDBRANCH   1   7
BRANCH   3  25
HETATM   25  C   UNL     1     -43.222  56.667 -52.754  1.00  0.00     0.183 A 
HETATM   26  O   UNL     1     -42.440  56.229 -51.717  1.00  0.00    -0.289 OA
HETATM   27  C   UNL     1     -41.860  55.094 -52.203  1.00  0.00     0.107 A 
HETATM   28  C   UNL     1     -42.307  54.908 -53.497  1.00  0.00     0.094 A 
HETATM   29  C   UNL     1     -40.980  54.247 -51.542  1.00  0.00     0.047 A 
HETATM   30  N   UNL     1     -43.162  55.923 -53.847  1.00  0.00    -0.221 NA
HETATM   31  C   UNL     1     -41.863  53.791 -54.214  1.00  0.00     0.041 A 
HETATM   32  C   UNL     1     -40.965  52.894 -53.593  1.00  0.00    -0.054 A 
HETATM   33  C   UNL     1     -40.535  53.119 -52.261  1.00  0.00    -0.053 A 
HETATM   34  C   UNL     1     -40.526  51.676 -54.364  1.00  0.00     0.049 C 
HETATM   35  C   UNL     1     -39.583  52.167 -51.582  1.00  0.00     0.049 C 
ENDBRANCH   3  25
BRANCH   4  36
HETATM   36  O   UNL     1     -44.468  58.090 -54.935  1.00  0.00    -0.360 OA
HETATM   37  H   UNL     1     -43.859  58.692 -55.414  1.00  0.00     0.217 HD
ENDBRANCH   4  36
TORSDOF 9
ENDMDL
MODEL 7
REMARK VINA RESULT:      -8.7      5.244     10.042
REMARK  9 active torsions:
REMARK  status: ('A' for Active; 'I' for Inactive)
REMARK    1  A    between atoms: C_2  and  C_3 
REMARK    2  A    between atoms: C_3  and  O_4 
REMARK    3  A    between atoms: O_4  and  C_5 
REMARK    4  A    between atoms: C_8  and  C_9 
REMARK       I    between atoms: C_9  and  N_10 
REMARK    5  A    between atoms: N_10  and  C_11 
REMARK    6  A    between atoms: C_11  and  N_12 
REMARK    7  A    between atoms: N_12  and  C_13 
REMARK    8  A    between atoms: C_15  and  C_16 
REMARK    9  A    between atoms: C_27  and  O_28 
ROOT
HETATM    1  C   UNL     1     -41.771  58.829 -53.853  1.00  0.00     0.035 A 
HETATM    2  C   UNL     1     -41.438  57.471 -53.779  1.00  0.00     0.048 A 
HETATM    3  C   UNL     1     -41.393  56.802 -52.539  1.00  0.00     0.052 A 
HETATM    4  C   UNL     1     -41.688  57.530 -51.375  1.00  0.00     0.080 A 
HETATM    5  C   UNL     1     -42.020  58.878 -51.437  1.00  0.00     0.040 A 
HETATM    6  C   UNL     1     -42.053  59.525 -52.670  1.00  0.00     0.032 A 
ENDROOT
BRANCH   1   7
HETATM    7  N   UNL     1     -41.753  59.593 -55.037  1.00  0.00    -0.333 N 
HETATM    8  H   UNL     1     -40.997  60.270 -55.101  1.00  0.00     0.168 HD
BRANCH   7   9
HETATM    9  C   UNL     1     -42.421  59.454 -56.223  1.00  0.00     0.179 C 
HETATM   10  S   UNL     1     -42.131  60.627 -57.385  1.00  0.00    -0.040 SA
BRANCH   9  11
HETATM   11  N   UNL     1     -43.338  58.435 -56.310  1.00  0.00    -0.299 N 
HETATM   12  C   UNL     1     -43.186  57.346 -57.154  1.00  0.00     0.257 C 
HETATM   13  O   UNL     1     -42.239  56.570 -57.051  1.00  0.00    -0.267 OA
HETATM   14  H   UNL     1     -44.273  58.765 -56.136  1.00  0.00     0.171 HD
BRANCH  12  15
HETATM   15  C   UNL     1     -44.264  57.053 -58.148  1.00  0.00     0.032 A 
HETATM   16  C   UNL     1     -44.056  55.963 -59.009  1.00  0.00     0.020 A 
HETATM   17  C   UNL     1     -44.975  55.646 -60.013  1.00  0.00     0.038 A 
HETATM   18  C   UNL     1     -46.126  56.412 -60.172  1.00  0.00     0.068 A 
HETATM   19  C   UNL     1     -46.345  57.493 -59.314  1.00  0.00     0.038 A 
HETATM   20  C   UNL     1     -45.421  57.822 -58.310  1.00  0.00     0.020 A 
BRANCH  18  21
HETATM   21  O   UNL     1     -47.097  56.213 -61.116  1.00  0.00    -0.351 OA
BRANCH  21  22
HETATM   22  C   UNL     1     -47.863  57.357 -61.501  1.00  0.00     0.175 C 
BRANCH  22  23
HETATM   23  C   UNL     1     -48.773  56.958 -62.660  1.00  0.00     0.022 C 
HETATM   24  C   UNL     1     -49.670  58.107 -63.089  1.00  0.00     0.007 C 
ENDBRANCH  22  23
ENDBRANCH  21  22
ENDBRANCH  18  21
ENDBRANCH  12  15
ENDBRANCH   9  11
ENDBRANCH   7   9
ENDBRANCH   1   7
BRANCH   3  25
HETATM   25  C   UNL     1     -41.012  55.395 -52.446  1.00  0.00     0.183 A 
HETATM   26  O   UNL     1     -40.829  54.705 -53.616  1.00  0.00    -0.289 OA
HETATM   27  C   UNL     1     -40.473  53.454 -53.205  1.00  0.00     0.107 A 
HETATM   28  C   UNL     1     -40.467  53.446 -51.823  1.00  0.00     0.094 A 
HETATM   29  C   UNL     1     -40.158  52.362 -54.002  1.00  0.00     0.047 A 
HETATM   30  N   UNL     1     -40.826  54.682 -51.346  1.00  0.00    -0.221 NA
HETATM   31  C   UNL     1     -40.115  52.268 -51.153  1.00  0.00     0.041 A 
HETATM   32  C   UNL     1     -39.786  51.123 -51.912  1.00  0.00    -0.054 A 
HETATM   33  C   UNL     1     -39.799  51.176 -53.328  1.00  0.00    -0.053 A 
HETATM   34  C   UNL     1     -39.371  49.875 -51.177  1.00  0.00     0.049 C 
HETATM   35  C   UNL     1     -39.443  49.965 -54.153  1.00  0.00     0.049 C 
ENDBRANCH   3  25
BRANCH   4  36
HETATM   36  O   UNL     1     -41.653  56.980 -50.119  1.00  0.00    -0.360 OA
HETATM   37  H   UNL     1     -41.946  57.656 -49.471  1.00  0.00     0.217 HD
ENDBRANCH   4  36
TORSDOF 9
ENDMDL
MODEL 8
REMARK VINA RESULT:      -8.7     19.209     22.339
REMARK  9 active torsions:
REMARK  status: ('A' for Active; 'I' for Inactive)
REMARK    1  A    between atoms: C_2  and  C_3 
REMARK    2  A    between atoms: C_3  and  O_4 
REMARK    3  A    between atoms: O_4  and  C_5 
REMARK    4  A    between atoms: C_8  and  C_9 
REMARK       I    between atoms: C_9  and  N_10 
REMARK    5  A    between atoms: N_10  and  C_11 
REMARK    6  A    between atoms: C_11  and  N_12 
REMARK    7  A    between atoms: N_12  and  C_13 
REMARK    8  A    between atoms: C_15  and  C_16 
REMARK    9  A    between atoms: C_27  and  O_28 
ROOT
HETATM    1  C   UNL     1     -35.438  39.490 -51.031  1.00  0.00     0.035 A 
HETATM    2  C   UNL     1     -35.795  39.558 -52.383  1.00  0.00     0.048 A 
HETATM    3  C   UNL     1     -35.719  40.774 -53.093  1.00  0.00     0.052 A 
HETATM    4  C   UNL     1     -35.278  41.920 -52.412  1.00  0.00     0.080 A 
HETATM    5  C   UNL     1     -34.921  41.864 -51.070  1.00  0.00     0.040 A 
HETATM    6  C   UNL     1     -35.009  40.655 -50.382  1.00  0.00     0.032 A 
ENDROOT
BRANCH   1   7
HETATM    7  N   UNL     1     -35.568  38.340 -50.227  1.00  0.00    -0.333 N 
HETATM    8  H   UNL     1     -36.499  37.931 -50.208  1.00  0.00     0.168 HD
BRANCH   7   9
HETATM    9  C   UNL     1     -34.637  37.528 -49.638  1.00  0.00     0.179 C 
HETATM   10  S   UNL     1     -34.851  37.208 -48.007  1.00  0.00    -0.040 SA
BRANCH   9  11
HETATM   11  N   UNL     1     -33.567  37.141 -50.408  1.00  0.00    -0.299 N 
HETATM   12  C   UNL     1     -32.426  37.911 -50.565  1.00  0.00     0.257 C 
HETATM   13  O   UNL     1     -31.711  38.217 -49.613  1.00  0.00    -0.267 OA
HETATM   14  H   UNL     1     -33.860  36.574 -51.186  1.00  0.00     0.171 HD
BRANCH  12  15
HETATM   15  C   UNL     1     -32.000  38.288 -51.948  1.00  0.00     0.032 A 
HETATM   16  C   UNL     1     -32.141  39.638 -52.311  1.00  0.00     0.020 A 
HETATM   17  C   UNL     1     -31.830  40.079 -53.600  1.00  0.00     0.038 A 
HETATM   18  C   UNL     1     -31.365  39.177 -54.553  1.00  0.00     0.068 A 
HETATM   19  C   UNL     1     -31.213  37.834 -54.197  1.00  0.00     0.038 A 
HETATM   20  C   UNL     1     -31.533  37.383 -52.907  1.00  0.00     0.020 A 
BRANCH  18  21
HETATM   21  O   UNL     1     -31.034  39.477 -55.846  1.00  0.00    -0.351 OA
BRANCH  21  22
HETATM   22  C   UNL     1     -32.076  40.002 -56.672  1.00  0.00     0.175 C 
BRANCH  22  23
HETATM   23  C   UNL     1     -32.719  38.843 -57.429  1.00  0.00     0.022 C 
HETATM   24  C   UNL     1     -34.015  38.397 -56.774  1.00  0.00     0.007 C 
ENDBRANCH  22  23
ENDBRANCH  21  22
ENDBRANCH  18  21
ENDBRANCH  12  15
ENDBRANCH   9  11
ENDBRANCH   7   9
ENDBRANCH   1   7
BRANCH   3  25
HETATM   25  C   UNL     1     -36.124  40.866 -54.493  1.00  0.00     0.183 A 
HETATM   26  O   UNL     1     -36.877  39.842 -55.007  1.00  0.00    -0.289 OA
HETATM   27  C   UNL     1     -37.101  40.219 -56.300  1.00  0.00     0.107 A 
HETATM   28  C   UNL     1     -36.473  41.433 -56.503  1.00  0.00     0.094 A 
HETATM   29  C   UNL     1     -37.831  39.537 -57.263  1.00  0.00     0.047 A 
HETATM   30  N   UNL     1     -35.839  41.831 -55.353  1.00  0.00    -0.221 NA
HETATM   31  C   UNL     1     -36.569  42.044 -57.759  1.00  0.00     0.041 A 
HETATM   32  C   UNL     1     -37.298  41.395 -58.780  1.00  0.00    -0.054 A 
HETATM   33  C   UNL     1     -37.932  40.153 -58.527  1.00  0.00    -0.053 A 
HETATM   34  C   UNL     1     -37.425  42.084 -60.114  1.00  0.00     0.049 C 
HETATM   35  C   UNL     1     -38.721  39.451 -59.604  1.00  0.00     0.049 C 
ENDBRANCH   3  25
BRANCH   4  36
HETATM   36  O   UNL     1     -35.187  43.154 -53.003  1.00  0.00    -0.360 OA
HETATM   37  H   UNL     1     -34.464  43.658 -52.571  1.00  0.00     0.217 HD
ENDBRANCH   4  36
TORSDOF 9
ENDMDL
MODEL 9
REMARK VINA RESULT:      -8.6      5.479      8.539
REMARK  9 active torsions:
REMARK  status: ('A' for Active; 'I' for Inactive)
REMARK    1  A    between atoms: C_2  and  C_3 
REMARK    2  A    between atoms: C_3  and  O_4 
REMARK    3  A    between atoms: O_4  and  C_5 
REMARK    4  A    between atoms: C_8  and  C_9 
REMARK       I    between atoms: C_9  and  N_10 
REMARK    5  A    between atoms: N_10  and  C_11 
REMARK    6  A    between atoms: C_11  and  N_12 
REMARK    7  A    between atoms: N_12  and  C_13 
REMARK    8  A    between atoms: C_15  and  C_16 
REMARK    9  A    between atoms: C_27  and  O_28 
ROOT
HETATM    1  C   UNL     1     -42.897  58.732 -53.451  1.00  0.00     0.035 A 
HETATM    2  C   UNL     1     -42.197  57.543 -53.214  1.00  0.00     0.048 A 
HETATM    3  C   UNL     1     -42.754  56.294 -53.554  1.00  0.00     0.052 A 
HETATM    4  C   UNL     1     -44.032  56.267 -54.136  1.00  0.00     0.080 A 
HETATM    5  C   UNL     1     -44.735  57.441 -54.376  1.00  0.00     0.040 A 
HETATM    6  C   UNL     1     -44.172  58.667 -54.027  1.00  0.00     0.032 A 
ENDROOT
BRANCH   1   7
HETATM    7  N   UNL     1     -42.454  60.012 -53.062  1.00  0.00    -0.333 N 
HETATM    8  H   UNL     1     -41.637  60.019 -52.456  1.00  0.00     0.168 HD
BRANCH   7   9
HETATM    9  C   UNL     1     -42.767  61.264 -53.517  1.00  0.00     0.179 C 
HETATM   10  S   UNL     1     -43.591  62.261 -52.451  1.00  0.00    -0.040 SA
BRANCH   9  11
HETATM   11  N   UNL     1     -42.472  61.546 -54.829  1.00  0.00    -0.299 N 
HETATM   12  C   UNL     1     -43.410  61.494 -55.847  1.00  0.00     0.257 C 
HETATM   13  O   UNL     1     -44.407  62.213 -55.851  1.00  0.00    -0.267 OA
HETATM   14  H   UNL     1     -41.522  61.298 -55.054  1.00  0.00     0.171 HD
BRANCH  12  15
HETATM   15  C   UNL     1     -43.143  60.611 -57.024  1.00  0.00     0.032 A 
HETATM   16  C   UNL     1     -44.135  60.556 -58.016  1.00  0.00     0.020 A 
HETATM   17  C   UNL     1     -44.007  59.714 -59.125  1.00  0.00     0.038 A 
HETATM   18  C   UNL     1     -42.879  58.912 -59.264  1.00  0.00     0.068 A 
HETATM   19  C   UNL     1     -41.882  58.967 -58.286  1.00  0.00     0.038 A 
HETATM   20  C   UNL     1     -42.009  59.804 -57.166  1.00  0.00     0.020 A 
BRANCH  18  21
HETATM   21  O   UNL     1     -42.636  58.042 -60.293  1.00  0.00    -0.351 OA
BRANCH  21  22
HETATM   22  C   UNL     1     -42.196  56.730 -59.935  1.00  0.00     0.175 C 
BRANCH  22  23
HETATM   23  C   UNL     1     -43.390  55.956 -59.383  1.00  0.00     0.022 C 
HETATM   24  C   UNL     1     -43.182  55.569 -57.928  1.00  0.00     0.007 C 
ENDBRANCH  22  23
ENDBRANCH  21  22
ENDBRANCH  18  21
ENDBRANCH  12  15
ENDBRANCH   9  11
ENDBRANCH   7   9
ENDBRANCH   1   7
BRANCH   3  25
HETATM   25  C   UNL     1     -42.050  55.044 -53.279  1.00  0.00     0.183 A 
HETATM   26  O   UNL     1     -41.786  54.215 -54.337  1.00  0.00    -0.289 OA
HETATM   27  C   UNL     1     -41.122  53.165 -53.772  1.00  0.00     0.107 A 
HETATM   28  C   UNL     1     -41.025  53.405 -52.415  1.00  0.00     0.094 A 
HETATM   29  C   UNL     1     -40.612  52.045 -54.414  1.00  0.00     0.047 A 
HETATM   30  N   UNL     1     -41.632  54.597 -52.105  1.00  0.00    -0.221 NA
HETATM   31  C   UNL     1     -40.364  52.472 -51.607  1.00  0.00     0.041 A 
HETATM   32  C   UNL     1     -39.826  51.311 -52.205  1.00  0.00    -0.054 A 
HETATM   33  C   UNL     1     -39.943  51.106 -53.602  1.00  0.00    -0.053 A 
HETATM   34  C   UNL     1     -39.085  50.335 -51.328  1.00  0.00     0.049 C 
HETATM   35  C   UNL     1     -39.368  49.876 -54.257  1.00  0.00     0.049 C 
ENDBRANCH   3  25
BRANCH   4  36
HETATM   36  O   UNL     1     -44.671  55.105 -54.486  1.00  0.00    -0.360 OA
HETATM   37  H   UNL     1     -44.263  54.361 -53.993  1.00  0.00     0.217 HD
ENDBRANCH   4  36
TORSDOF 9
ENDMDL
MODEL 10
REMARK VINA RESULT:      -8.5      4.930      5.758
REMARK  9 active torsions:
REMARK  status: ('A' for Active; 'I' for Inactive)
REMARK    1  A    between atoms: C_2  and  C_3 
REMARK    2  A    between atoms: C_3  and  O_4 
REMARK    3  A    between atoms: O_4  and  C_5 
REMARK    4  A    between atoms: C_8  and  C_9 
REMARK       I    between atoms: C_9  and  N_10 
REMARK    5  A    between atoms: N_10  and  C_11 
REMARK    6  A    between atoms: C_11  and  N_12 
REMARK    7  A    between atoms: N_12  and  C_13 
REMARK    8  A    between atoms: C_15  and  C_16 
REMARK    9  A    between atoms: C_27  and  O_28 
ROOT
HETATM    1  C   UNL     1     -42.805  59.226 -56.368  1.00  0.00     0.035 A 
HETATM    2  C   UNL     1     -42.240  58.190 -55.614  1.00  0.00     0.048 A 
HETATM    3  C   UNL     1     -42.463  56.841 -55.955  1.00  0.00     0.052 A 
HETATM    4  C   UNL     1     -43.267  56.556 -57.071  1.00  0.00     0.080 A 
HETATM    5  C   UNL     1     -43.832  57.577 -57.826  1.00  0.00     0.040 A 
HETATM    6  C   UNL     1     -43.608  58.905 -57.470  1.00  0.00     0.032 A 
ENDROOT
BRANCH   1   7
HETATM    7  N   UNL     1     -42.707  60.594 -56.046  1.00  0.00    -0.333 N 
HETATM    8  H   UNL     1     -41.970  61.099 -56.532  1.00  0.00     0.168 HD
BRANCH   7   9
HETATM    9  C   UNL     1     -43.550  61.436 -55.373  1.00  0.00     0.179 C 
HETATM   10  S   UNL     1     -43.760  62.964 -56.030  1.00  0.00    -0.040 SA
BRANCH   9  11
HETATM   11  N   UNL     1     -44.058  60.990 -54.177  1.00  0.00    -0.299 N 
HETATM   12  C   UNL     1     -43.324  60.962 -53.003  1.00  0.00     0.257 C 
HETATM   13  O   UNL     1     -42.863  61.983 -52.498  1.00  0.00    -0.267 OA
HETATM   14  H   UNL     1     -44.747  60.270 -54.316  1.00  0.00     0.171 HD
BRANCH  12  15
HETATM   15  C   UNL     1     -43.181  59.661 -52.278  1.00  0.00     0.032 A 
HETATM   16  C   UNL     1     -41.971  59.442 -51.599  1.00  0.00     0.020 A 
HETATM   17  C   UNL     1     -41.716  58.233 -50.944  1.00  0.00     0.038 A 
HETATM   18  C   UNL     1     -42.671  57.221 -50.951  1.00  0.00     0.068 A 
HETATM   19  C   UNL     1     -43.881  57.435 -51.617  1.00  0.00     0.038 A 
HETATM   20  C   UNL     1     -44.139  58.643 -52.284  1.00  0.00     0.020 A 
BRANCH  18  21
HETATM   21  O   UNL     1     -42.543  55.994 -50.358  1.00  0.00    -0.351 OA
BRANCH  21  22
HETATM   22  C   UNL     1     -41.365  55.776 -49.579  1.00  0.00     0.175 C 
BRANCH  22  23
HETATM   23  C   UNL     1     -41.394  54.343 -49.055  1.00  0.00     0.022 C 
HETATM   24  C   UNL     1     -40.227  54.064 -48.122  1.00  0.00     0.007 C 
ENDBRANCH  22  23
ENDBRANCH  21  22
ENDBRANCH  18  21
ENDBRANCH  12  15
ENDBRANCH   9  11
ENDBRANCH   7   9
ENDBRANCH   1   7
BRANCH   3  25
HETATM   25  C   UNL     1     -41.910  55.751 -55.155  1.00  0.00     0.183 A 
HETATM   26  O   UNL     1     -41.554  54.599 -55.807  1.00  0.00    -0.289 OA
HETATM   27  C   UNL     1     -41.069  53.798 -54.814  1.00  0.00     0.107 A 
HETATM   28  C   UNL     1     -41.161  54.494 -53.624  1.00  0.00     0.094 A 
HETATM   29  C   UNL     1     -40.558  52.514 -54.941  1.00  0.00     0.047 A 
HETATM   30  N   UNL     1     -41.712  55.732 -53.846  1.00  0.00    -0.221 NA
HETATM   31  C   UNL     1     -40.708  53.887 -52.447  1.00  0.00     0.041 A 
HETATM   32  C   UNL     1     -40.178  52.579 -52.514  1.00  0.00    -0.054 A 
HETATM   33  C   UNL     1     -40.097  51.903 -53.756  1.00  0.00    -0.053 A 
HETATM   34  C   UNL     1     -39.659  51.955 -51.245  1.00  0.00     0.049 C 
HETATM   35  C   UNL     1     -39.527  50.510 -53.845  1.00  0.00     0.049 C 
ENDBRANCH   3  25
BRANCH   4  36
HETATM   36  O   UNL     1     -43.562  55.280 -57.475  1.00  0.00    -0.360 OA
HETATM   37  H   UNL     1     -43.504  55.238 -58.454  1.00  0.00     0.217 HD
ENDBRANCH   4  36
TORSDOF 9
ENDMDL
