MODEL 1
REMARK VINA RESULT:      -9.2      0.000      0.000
REMARK  6 active torsions:
REMARK  status: ('A' for Active; 'I' for Inactive)
REMARK    1  A    between atoms: C_6  and  O_7 
REMARK    2  A    between atoms: C_12  and  C_13 
REMARK    3  A    between atoms: C_13  and  C_14 
REMARK       I    between atoms: C_14  and  N_15 
REMARK    4  A    between atoms: N_15  and  C_16 
REMARK    5  A    between atoms: C_16  and  C_17 
REMARK    6  A    between atoms: C_17  and  C_18 
ROOT
HETATM    1  C   UNL     1     -43.026  58.032 -53.176  1.00  0.00     0.222 C 
HETATM    2  N   UNL     1     -43.898  58.412 -54.177  1.00  0.00    -0.360 N 
HETATM    3  O   UNL     1     -41.983  58.639 -52.939  1.00  0.00    -0.273 OA
HETATM    4  H   UNL     1     -44.642  57.768 -54.415  1.00  0.00     0.162 HD
ENDROOT
BRANCH   1   5
HETATM    5  C   UNL     1     -43.388  56.747 -52.436  1.00  0.00     0.148 C 
BRANCH   5   6
HETATM    6  C   UNL     1     -42.657  55.451 -52.727  1.00  0.00     0.033 C 
HETATM    7  C   UNL     1     -43.144  54.827 -53.995  1.00  0.00     0.295 C 
HETATM    8  O   UNL     1     -42.364  53.837 -54.558  1.00  0.00    -0.274 OA
HETATM    9  O   UNL     1     -44.154  55.224 -54.567  1.00  0.00    -0.259 OA
HETATM   10  C   UNL     1     -41.410  53.160 -53.786  1.00  0.00     0.093 A 
HETATM   11  C   UNL     1     -40.848  52.025 -54.379  1.00  0.00     0.045 A 
HETATM   12  C   UNL     1     -41.088  53.581 -52.498  1.00  0.00     0.038 A 
HETATM   13  C   UNL     1     -39.950  51.239 -53.660  1.00  0.00    -0.057 A 
HETATM   14  C   UNL     1     -39.315  50.026 -54.271  1.00  0.00     0.048 C 
HETATM   15  C   UNL     1     -39.669  51.588 -52.335  1.00  0.00     0.044 A 
HETATM   16  C   UNL     1     -40.237  52.736 -51.764  1.00  0.00     0.079 A 
HETATM   17  C   UNL     1     -41.640  54.882 -52.041  1.00  0.00    -0.034 C 
HETATM   18  C   UNL     1     -40.949  55.543 -50.881  1.00  0.00     0.050 C 
BRANCH  16  19
HETATM   19  O   UNL     1     -39.967  52.998 -50.447  1.00  0.00    -0.360 OA
HETATM   20  H   UNL     1     -39.837  53.951 -50.322  1.00  0.00     0.217 HD
ENDBRANCH  16  19
ENDBRANCH   5   6
ENDBRANCH   1   5
BRANCH   2  21
HETATM   21  C   UNL     1     -43.457  59.348 -55.203  1.00  0.00     0.127 C 
BRANCH  21  22
HETATM   22  C   UNL     1     -44.052  59.081 -56.581  1.00  0.00     0.060 C 
BRANCH  22  23
HETATM   23  C   UNL     1     -43.697  57.805 -57.299  1.00  0.00    -0.029 A 
HETATM   24  C   UNL     1     -44.367  57.059 -58.332  1.00  0.00    -0.000 A 
HETATM   25  C   UNL     1     -43.572  55.944 -58.625  1.00  0.00     0.043 A 
HETATM   26  C   UNL     1     -45.569  57.202 -59.062  1.00  0.00     0.038 A 
HETATM   27  C   UNL     1     -43.914  54.978 -59.581  1.00  0.00     0.032 A 
HETATM   28  N   UNL     1     -42.460  56.013 -57.824  1.00  0.00    -0.365 N 
HETATM   29  C   UNL     1     -45.116  55.142 -60.270  1.00  0.00     0.026 A 
HETATM   30  C   UNL     1     -45.929  56.239 -60.012  1.00  0.00     0.035 A 
HETATM   31 CL   UNL     1     -47.412  56.408 -60.874  1.00  0.00    -0.084 Cl
HETATM   32  H   UNL     1     -41.705  55.342 -57.831  1.00  0.00     0.165 HD
HETATM   33  C   UNL     1     -42.526  57.117 -57.025  1.00  0.00     0.096 A 
ENDBRANCH  22  23
ENDBRANCH  21  22
ENDBRANCH   2  21
TORSDOF 6
ENDMDL
MODEL 2
REMARK VINA RESULT:      -8.9      2.299      3.790
REMARK  6 active torsions:
REMARK  status: ('A' for Active; 'I' for Inactive)
REMARK    1  A    between atoms: C_6  and  O_7 
REMARK    2  A    between atoms: C_12  and  C_13 
REMARK    3  A    between atoms: C_13  and  C_14 
REMARK       I    between atoms: C_14  and  N_15 
REMARK    4  A    between atoms: N_15  and  C_16 
REMARK    5  A    between atoms: C_16  and  C_17 
REMARK    6  A    between atoms: C_17  and  C_18 
ROOT
HETATM    1  C   UNL     1     -41.569  57.532 -50.647  1.00  0.00     0.222 C 
HETATM    2  N   UNL     1     -42.827  58.100 -50.650  1.00  0.00    -0.360 N 
HETATM    3  O   UNL     1     -40.589  58.085 -51.142  1.00  0.00    -0.273 OA
HETATM    4  H   UNL     1     -43.604  57.512 -50.376  1.00  0.00     0.162 HD
ENDROOT
BRANCH   1   5
HETATM    5  C   UNL     1     -41.483  56.119 -50.074  1.00  0.00     0.148 C 
BRANCH   5   6
HETATM    6  C   UNL     1     -41.071  54.950 -50.946  1.00  0.00     0.033 C 
HETATM    7  C   UNL     1     -39.953  54.177 -50.323  1.00  0.00     0.295 C 
HETATM    8  O   UNL     1     -39.694  52.917 -50.824  1.00  0.00    -0.274 OA
HETATM    9  O   UNL     1     -39.335  54.600 -49.352  1.00  0.00    -0.259 OA
HETATM   10  C   UNL     1     -40.150  52.552 -52.098  1.00  0.00     0.093 A 
HETATM   11  C   UNL     1     -39.634  51.354 -52.604  1.00  0.00     0.045 A 
HETATM   12  C   UNL     1     -41.025  53.364 -52.815  1.00  0.00     0.038 A 
HETATM   13  C   UNL     1     -39.965  50.947 -53.894  1.00  0.00    -0.057 A 
HETATM   14  C   UNL     1     -39.444  49.660 -54.462  1.00  0.00     0.048 C 
HETATM   15  C   UNL     1     -40.776  51.781 -54.671  1.00  0.00     0.044 A 
HETATM   16  C   UNL     1     -41.289  52.973 -54.140  1.00  0.00     0.079 A 
HETATM   17  C   UNL     1     -41.616  54.530 -52.110  1.00  0.00    -0.034 C 
HETATM   18  C   UNL     1     -42.869  55.116 -52.698  1.00  0.00     0.050 C 
BRANCH  16  19
HETATM   19  O   UNL     1     -42.033  53.774 -54.964  1.00  0.00    -0.360 OA
HETATM   20  H   UNL     1     -42.233  53.302 -55.788  1.00  0.00     0.217 HD
ENDBRANCH  16  19
ENDBRANCH   5   6
ENDBRANCH   1   5
BRANCH   2  21
HETATM   21  C   UNL     1     -43.108  59.230 -51.528  1.00  0.00     0.127 C 
BRANCH  21  22
HETATM   22  C   UNL     1     -43.734  58.836 -52.861  1.00  0.00     0.060 C 
BRANCH  22  23
HETATM   23  C   UNL     1     -43.111  59.332 -54.140  1.00  0.00    -0.029 A 
HETATM   24  C   UNL     1     -42.897  58.704 -55.418  1.00  0.00    -0.000 A 
HETATM   25  C   UNL     1     -42.273  59.645 -56.246  1.00  0.00     0.043 A 
HETATM   26  C   UNL     1     -43.163  57.433 -55.974  1.00  0.00     0.038 A 
HETATM   27  C   UNL     1     -41.898  59.383 -57.571  1.00  0.00     0.032 A 
HETATM   28  N   UNL     1     -42.129  60.800 -55.518  1.00  0.00    -0.365 N 
HETATM   29  C   UNL     1     -42.160  58.112 -58.081  1.00  0.00     0.026 A 
HETATM   30  C   UNL     1     -42.784  57.153 -57.292  1.00  0.00     0.035 A 
HETATM   31 CL   UNL     1     -43.087  55.589 -57.949  1.00  0.00    -0.084 Cl
HETATM   32  H   UNL     1     -41.718  61.653 -55.870  1.00  0.00     0.165 HD
HETATM   33  C   UNL     1     -42.621  60.623 -54.258  1.00  0.00     0.096 A 
ENDBRANCH  22  23
ENDBRANCH  21  22
ENDBRANCH   2  21
TORSDOF 6
ENDMDL
MODEL 3
REMARK VINA RESULT:      -8.8      1.790      2.218
REMARK  6 active torsions:
REMARK  status: ('A' for Active; 'I' for Inactive)
REMARK    1  A    between atoms: C_6  and  O_7 
REMARK    2  A    between atoms: C_12  and  C_13 
REMARK    3  A    between atoms: C_13  and  C_14 
REMARK       I    between atoms: C_14  and  N_15 
REMARK    4  A    between atoms: N_15  and  C_16 
REMARK    5  A    between atoms: C_16  and  C_17 
REMARK    6  A    between atoms: C_17  and  C_18 
ROOT
HETATM    1  C   UNL     1     -42.582  58.025 -52.533  1.00  0.00     0.222 C 
HETATM    2  N   UNL     1     -42.615  58.353 -53.874  1.00  0.00    -0.360 N 
HETATM    3  O   UNL     1     -42.026  58.729 -51.691  1.00  0.00    -0.273 OA
HETATM    4  H   UNL     1     -42.942  57.644 -54.518  1.00  0.00     0.162 HD
ENDROOT
BRANCH   1   5
HETATM    5  C   UNL     1     -43.198  56.677 -52.166  1.00  0.00     0.148 C 
BRANCH   5   6
HETATM    6  C   UNL     1     -42.500  55.381 -52.524  1.00  0.00     0.033 C 
HETATM    7  C   UNL     1     -42.936  54.882 -53.865  1.00  0.00     0.295 C 
HETATM    8  O   UNL     1     -42.162  53.909 -54.465  1.00  0.00    -0.274 OA
HETATM    9  O   UNL     1     -43.897  55.366 -54.454  1.00  0.00    -0.259 OA
HETATM   10  C   UNL     1     -41.279  53.134 -53.702  1.00  0.00     0.093 A 
HETATM   11  C   UNL     1     -40.727  52.028 -54.357  1.00  0.00     0.045 A 
HETATM   12  C   UNL     1     -41.016  53.436 -52.368  1.00  0.00     0.038 A 
HETATM   13  C   UNL     1     -39.899  51.151 -53.659  1.00  0.00    -0.057 A 
HETATM   14  C   UNL     1     -39.276  49.966 -54.334  1.00  0.00     0.048 C 
HETATM   15  C   UNL     1     -39.681  51.379 -52.297  1.00  0.00     0.044 A 
HETATM   16  C   UNL     1     -40.238  52.500 -51.663  1.00  0.00     0.079 A 
HETATM   17  C   UNL     1     -41.544  54.717 -51.835  1.00  0.00    -0.034 C 
HETATM   18  C   UNL     1     -40.896  55.253 -50.589  1.00  0.00     0.050 C 
BRANCH  16  19
HETATM   19  O   UNL     1     -40.034  52.642 -50.317  1.00  0.00    -0.360 OA
HETATM   20  H   UNL     1     -39.084  52.597 -50.122  1.00  0.00     0.217 HD
ENDBRANCH  16  19
ENDBRANCH   5   6
ENDBRANCH   1   5
BRANCH   2  21
HETATM   21  C   UNL     1     -41.712  59.374 -54.391  1.00  0.00     0.127 C 
BRANCH  21  22
HETATM   22  C   UNL     1     -42.339  60.276 -55.448  1.00  0.00     0.060 C 
BRANCH  22  23
HETATM   23  C   UNL     1     -42.140  59.946 -56.905  1.00  0.00    -0.029 A 
HETATM   24  C   UNL     1     -42.371  58.744 -57.664  1.00  0.00    -0.000 A 
HETATM   25  C   UNL     1     -42.011  59.012 -58.990  1.00  0.00     0.043 A 
HETATM   26  C   UNL     1     -42.851  57.446 -57.377  1.00  0.00     0.038 A 
HETATM   27  C   UNL     1     -42.091  58.066 -60.021  1.00  0.00     0.032 A 
HETATM   28  N   UNL     1     -41.597  60.320 -59.045  1.00  0.00    -0.365 N 
HETATM   29  C   UNL     1     -42.552  56.790 -59.698  1.00  0.00     0.026 A 
HETATM   30  C   UNL     1     -42.926  56.488 -58.395  1.00  0.00     0.035 A 
HETATM   31 CL   UNL     1     -43.483  54.899 -58.025  1.00  0.00    -0.084 Cl
HETATM   32  H   UNL     1     -41.289  60.789 -59.885  1.00  0.00     0.165 HD
HETATM   33  C   UNL     1     -41.665  60.885 -57.806  1.00  0.00     0.096 A 
ENDBRANCH  22  23
ENDBRANCH  21  22
ENDBRANCH   2  21
TORSDOF 6
ENDMDL
MODEL 4
REMARK VINA RESULT:      -8.4      1.828      2.203
REMARK  6 active torsions:
REMARK  status: ('A' for Active; 'I' for Inactive)
REMARK    1  A    between atoms: C_6  and  O_7 
REMARK    2  A    between atoms: C_12  and  C_13 
REMARK    3  A    between atoms: C_13  and  C_14 
REMARK       I    between atoms: C_14  and  N_15 
REMARK    4  A    between atoms: N_15  and  C_16 
REMARK    5  A    between atoms: C_16  and  C_17 
REMARK    6  A    between atoms: C_17  and  C_18 
ROOT
HETATM    1  C   UNL     1     -42.341  58.909 -55.727  1.00  0.00     0.222 C 
HETATM    2  N   UNL     1     -42.693  58.877 -57.062  1.00  0.00    -0.360 N 
HETATM    3  O   UNL     1     -41.455  59.642 -55.292  1.00  0.00    -0.273 OA
HETATM    4  H   UNL     1     -43.310  58.133 -57.363  1.00  0.00     0.162 HD
ENDROOT
BRANCH   1   5
HETATM    5  C   UNL     1     -43.058  57.903 -54.830  1.00  0.00     0.148 C 
BRANCH   5   6
HETATM    6  C   UNL     1     -42.440  56.552 -54.530  1.00  0.00     0.033 C 
HETATM    7  C   UNL     1     -42.612  55.610 -55.679  1.00  0.00     0.295 C 
HETATM    8  O   UNL     1     -41.831  54.472 -55.691  1.00  0.00    -0.274 OA
HETATM    9  O   UNL     1     -43.356  55.865 -56.620  1.00  0.00    -0.259 OA
HETATM   10  C   UNL     1     -41.233  54.009 -54.512  1.00  0.00     0.093 A 
HETATM   11  C   UNL     1     -40.669  52.731 -54.583  1.00  0.00     0.045 A 
HETATM   12  C   UNL     1     -41.248  54.767 -53.344  1.00  0.00     0.038 A 
HETATM   13  C   UNL     1     -40.121  52.150 -53.441  1.00  0.00    -0.057 A 
HETATM   14  C   UNL     1     -39.492  50.789 -53.485  1.00  0.00     0.048 C 
HETATM   15  C   UNL     1     -40.194  52.852 -52.234  1.00  0.00     0.044 A 
HETATM   16  C   UNL     1     -40.757  54.136 -52.188  1.00  0.00     0.079 A 
HETATM   17  C   UNL     1     -41.743  56.165 -53.438  1.00  0.00    -0.034 C 
HETATM   18  C   UNL     1     -41.341  57.103 -52.335  1.00  0.00     0.050 C 
BRANCH  16  19
HETATM   19  O   UNL     1     -40.850  54.752 -50.969  1.00  0.00    -0.360 OA
HETATM   20  H   UNL     1     -41.740  55.122 -50.854  1.00  0.00     0.217 HD
ENDBRANCH  16  19
ENDBRANCH   5   6
ENDBRANCH   1   5
BRANCH   2  21
HETATM   21  C   UNL     1     -41.807  59.468 -58.058  1.00  0.00     0.127 C 
BRANCH  21  22
HETATM   22  C   UNL     1     -42.098  59.024 -59.486  1.00  0.00     0.060 C 
BRANCH  22  23
HETATM   23  C   UNL     1     -42.966  57.814 -59.716  1.00  0.00    -0.029 A 
HETATM   24  C   UNL     1     -44.367  57.672 -60.018  1.00  0.00    -0.000 A 
HETATM   25  C   UNL     1     -44.633  56.302 -60.131  1.00  0.00     0.043 A 
HETATM   26  C   UNL     1     -45.451  58.556 -60.210  1.00  0.00     0.038 A 
HETATM   27  C   UNL     1     -45.903  55.780 -60.409  1.00  0.00     0.032 A 
HETATM   28  N   UNL     1     -43.449  55.637 -59.927  1.00  0.00    -0.365 N 
HETATM   29  C   UNL     1     -46.954  56.681 -60.576  1.00  0.00     0.026 A 
HETATM   30  C   UNL     1     -46.729  58.049 -60.478  1.00  0.00     0.035 A 
HETATM   31 CL   UNL     1     -48.049  59.137 -60.681  1.00  0.00    -0.084 Cl
HETATM   32  H   UNL     1     -43.341  54.633 -59.963  1.00  0.00     0.165 HD
HETATM   33  C   UNL     1     -42.449  56.529 -59.674  1.00  0.00     0.096 A 
ENDBRANCH  22  23
ENDBRANCH  21  22
ENDBRANCH   2  21
TORSDOF 6
ENDMDL
MODEL 5
REMARK VINA RESULT:      -8.4      1.633      2.372
REMARK  6 active torsions:
REMARK  status: ('A' for Active; 'I' for Inactive)
REMARK    1  A    between atoms: C_6  and  O_7 
REMARK    2  A    between atoms: C_12  and  C_13 
REMARK    3  A    between atoms: C_13  and  C_14 
REMARK       I    between atoms: C_14  and  N_15 
REMARK    4  A    between atoms: N_15  and  C_16 
REMARK    5  A    between atoms: C_16  and  C_17 
REMARK    6  A    between atoms: C_17  and  C_18 
ROOT
HETATM    1  C   UNL     1     -43.872  58.822 -54.293  1.00  0.00     0.222 C 
HETATM    2  N   UNL     1     -44.626  59.481 -55.244  1.00  0.00    -0.360 N 
HETATM    3  O   UNL     1     -42.832  59.287 -53.831  1.00  0.00    -0.273 OA
HETATM    4  H   UNL     1     -45.370  58.960 -55.691  1.00  0.00     0.162 HD
ENDROOT
BRANCH   1   5
HETATM    5  C   UNL     1     -44.359  57.425 -53.915  1.00  0.00     0.148 C 
BRANCH   5   6
HETATM    6  C   UNL     1     -43.375  56.329 -53.558  1.00  0.00     0.033 C 
HETATM    7  C   UNL     1     -43.315  56.116 -52.079  1.00  0.00     0.295 C 
HETATM    8  O   UNL     1     -42.725  54.952 -51.627  1.00  0.00    -0.274 OA
HETATM    9  O   UNL     1     -43.836  56.897 -51.290  1.00  0.00    -0.259 OA
HETATM   10  C   UNL     1     -41.863  54.225 -52.458  1.00  0.00     0.093 A 
HETATM   11  C   UNL     1     -41.137  53.206 -51.831  1.00  0.00     0.045 A 
HETATM   12  C   UNL     1     -41.718  54.539 -53.807  1.00  0.00     0.038 A 
HETATM   13  C   UNL     1     -40.195  52.479 -52.555  1.00  0.00    -0.057 A 
HETATM   14  C   UNL     1     -39.413  51.368 -51.919  1.00  0.00     0.048 C 
HETATM   15  C   UNL     1     -39.966  52.825 -53.890  1.00  0.00     0.044 A 
HETATM   16  C   UNL     1     -40.711  53.844 -54.500  1.00  0.00     0.079 A 
HETATM   17  C   UNL     1     -42.651  55.540 -54.383  1.00  0.00    -0.034 C 
HETATM   18  C   UNL     1     -42.807  55.541 -55.879  1.00  0.00     0.050 C 
BRANCH  16  19
HETATM   19  O   UNL     1     -40.407  54.175 -55.794  1.00  0.00    -0.360 OA
HETATM   20  H   UNL     1     -41.205  54.122 -56.343  1.00  0.00     0.217 HD
ENDBRANCH  16  19
ENDBRANCH   5   6
ENDBRANCH   1   5
BRANCH   2  21
HETATM   21  C   UNL     1     -44.047  60.601 -55.976  1.00  0.00     0.127 C 
BRANCH  21  22
HETATM   22  C   UNL     1     -44.035  60.411 -57.488  1.00  0.00     0.060 C 
BRANCH  22  23
HETATM   23  C   UNL     1     -43.393  59.177 -58.068  1.00  0.00    -0.029 A 
HETATM   24  C   UNL     1     -43.932  58.060 -58.799  1.00  0.00    -0.000 A 
HETATM   25  C   UNL     1     -42.866  57.201 -59.094  1.00  0.00     0.043 A 
HETATM   26  C   UNL     1     -45.213  57.674 -59.251  1.00  0.00     0.038 A 
HETATM   27  C   UNL     1     -43.014  55.995 -59.792  1.00  0.00     0.032 A 
HETATM   28  N   UNL     1     -41.727  57.773 -58.585  1.00  0.00    -0.365 N 
HETATM   29  C   UNL     1     -44.296  55.637 -60.208  1.00  0.00     0.026 A 
HETATM   30  C   UNL     1     -45.378  56.466 -59.940  1.00  0.00     0.035 A 
HETATM   31 CL   UNL     1     -46.951  55.992 -60.459  1.00  0.00    -0.084 Cl
HETATM   32  H   UNL     1     -40.801  57.374 -58.662  1.00  0.00     0.165 HD
HETATM   33  C   UNL     1     -42.030  58.950 -57.966  1.00  0.00     0.096 A 
ENDBRANCH  22  23
ENDBRANCH  21  22
ENDBRANCH   2  21
TORSDOF 6
ENDMDL
MODEL 6
REMARK VINA RESULT:      -8.3      2.426      2.873
REMARK  6 active torsions:
REMARK  status: ('A' for Active; 'I' for Inactive)
REMARK    1  A    between atoms: C_6  and  O_7 
REMARK    2  A    between atoms: C_12  and  C_13 
REMARK    3  A    between atoms: C_13  and  C_14 
REMARK       I    between atoms: C_14  and  N_15 
REMARK    4  A    between atoms: N_15  and  C_16 
REMARK    5  A    between atoms: C_16  and  C_17 
REMARK    6  A    between atoms: C_17  and  C_18 
ROOT
HETATM    1  C   UNL     1     -42.934  57.952 -52.171  1.00  0.00     0.222 C 
HETATM    2  N   UNL     1     -43.581  58.485 -53.268  1.00  0.00    -0.360 N 
HETATM    3  O   UNL     1     -41.992  58.516 -51.618  1.00  0.00    -0.273 OA
HETATM    4  H   UNL     1     -44.229  57.885 -53.763  1.00  0.00     0.162 HD
ENDROOT
BRANCH   1   5
HETATM    5  C   UNL     1     -43.397  56.562 -51.741  1.00  0.00     0.148 C 
BRANCH   5   6
HETATM    6  C   UNL     1     -42.654  55.321 -52.193  1.00  0.00     0.033 C 
HETATM    7  C   UNL     1     -43.091  54.895 -53.558  1.00  0.00     0.295 C 
HETATM    8  O   UNL     1     -42.288  53.996 -54.232  1.00  0.00    -0.274 OA
HETATM    9  O   UNL     1     -44.078  55.377 -54.103  1.00  0.00    -0.259 OA
HETATM   10  C   UNL     1     -41.363  53.208 -53.533  1.00  0.00     0.093 A 
HETATM   11  C   UNL     1     -40.778  52.171 -54.267  1.00  0.00     0.045 A 
HETATM   12  C   UNL     1     -41.092  53.431 -52.185  1.00  0.00     0.038 A 
HETATM   13  C   UNL     1     -39.906  51.284 -53.639  1.00  0.00    -0.057 A 
HETATM   14  C   UNL     1     -39.247  50.172 -54.399  1.00  0.00     0.048 C 
HETATM   15  C   UNL     1     -39.677  51.430 -52.267  1.00  0.00     0.044 A 
HETATM   16  C   UNL     1     -40.268  52.483 -51.554  1.00  0.00     0.079 A 
HETATM   17  C   UNL     1     -41.663  54.653 -51.562  1.00  0.00    -0.034 C 
HETATM   18  C   UNL     1     -41.018  55.131 -50.291  1.00  0.00     0.050 C 
BRANCH  16  19
HETATM   19  O   UNL     1     -40.049  52.545 -50.203  1.00  0.00    -0.360 OA
HETATM   20  H   UNL     1     -39.963  51.648 -49.843  1.00  0.00     0.217 HD
ENDBRANCH  16  19
ENDBRANCH   5   6
ENDBRANCH   1   5
BRANCH   2  21
HETATM   21  C   UNL     1     -42.964  59.577 -54.012  1.00  0.00     0.127 C 
BRANCH  21  22
HETATM   22  C   UNL     1     -41.844  59.133 -54.946  1.00  0.00     0.060 C 
BRANCH  22  23
HETATM   23  C   UNL     1     -42.180  58.740 -56.361  1.00  0.00    -0.029 A 
HETATM   24  C   UNL     1     -42.021  59.425 -57.618  1.00  0.00    -0.000 A 
HETATM   25  C   UNL     1     -42.507  58.576 -58.620  1.00  0.00     0.043 A 
HETATM   26  C   UNL     1     -41.516  60.679 -58.026  1.00  0.00     0.038 A 
HETATM   27  C   UNL     1     -42.525  58.914 -59.980  1.00  0.00     0.032 A 
HETATM   28  N   UNL     1     -42.926  57.420 -58.009  1.00  0.00    -0.365 N 
HETATM   29  C   UNL     1     -42.035  60.167 -60.345  1.00  0.00     0.026 A 
HETATM   30  C   UNL     1     -41.537  61.035 -59.380  1.00  0.00     0.035 A 
HETATM   31 CL   UNL     1     -40.946  62.580 -59.862  1.00  0.00    -0.084 Cl
HETATM   32  H   UNL     1     -43.313  56.623 -58.494  1.00  0.00     0.165 HD
HETATM   33  C   UNL     1     -42.740  57.509 -56.661  1.00  0.00     0.096 A 
ENDBRANCH  22  23
ENDBRANCH  21  22
ENDBRANCH   2  21
TORSDOF 6
ENDMDL
MODEL 7
REMARK VINA RESULT:      -8.3      1.840      2.793
REMARK  6 active torsions:
REMARK  status: ('A' for Active; 'I' for Inactive)
REMARK    1  A    between atoms: C_6  and  O_7 
REMARK    2  A    between atoms: C_12  and  C_13 
REMARK    3  A    between atoms: C_13  and  C_14 
REMARK       I    between atoms: C_14  and  N_15 
REMARK    4  A    between atoms: N_15  and  C_16 
REMARK    5  A    between atoms: C_16  and  C_17 
REMARK    6  A    between atoms: C_17  and  C_18 
ROOT
HETATM    1  C   UNL     1     -43.346  57.424 -53.101  1.00  0.00     0.222 C 
HETATM    2  N   UNL     1     -43.702  57.494 -54.433  1.00  0.00    -0.360 N 
HETATM    3  O   UNL     1     -44.148  57.612 -52.188  1.00  0.00    -0.273 OA
HETATM    4  H   UNL     1     -42.955  57.494 -55.116  1.00  0.00     0.162 HD
ENDROOT
BRANCH   1   5
HETATM    5  C   UNL     1     -41.862  57.194 -52.825  1.00  0.00     0.148 C 
BRANCH   5   6
HETATM    6  C   UNL     1     -41.344  55.816 -52.465  1.00  0.00     0.033 C 
HETATM    7  C   UNL     1     -41.141  55.682 -50.989  1.00  0.00     0.295 C 
HETATM    8  O   UNL     1     -40.993  54.407 -50.480  1.00  0.00    -0.274 OA
HETATM    9  O   UNL     1     -41.183  56.652 -50.239  1.00  0.00    -0.259 OA
HETATM   10  C   UNL     1     -40.627  53.346 -51.319  1.00  0.00     0.093 A 
HETATM   11  C   UNL     1     -40.272  52.159 -50.670  1.00  0.00     0.045 A 
HETATM   12  C   UNL     1     -40.584  53.497 -52.702  1.00  0.00     0.038 A 
HETATM   13  C   UNL     1     -39.817  51.072 -51.413  1.00  0.00    -0.057 A 
HETATM   14  C   UNL     1     -39.445  49.778 -50.752  1.00  0.00     0.048 C 
HETATM   15  C   UNL     1     -39.683  51.218 -52.797  1.00  0.00     0.044 A 
HETATM   16  C   UNL     1     -40.054  52.415 -53.427  1.00  0.00     0.079 A 
HETATM   17  C   UNL     1     -41.127  54.755 -53.275  1.00  0.00    -0.034 C 
HETATM   18  C   UNL     1     -41.503  54.732 -54.730  1.00  0.00     0.050 C 
BRANCH  16  19
HETATM   19  O   UNL     1     -39.851  52.518 -54.777  1.00  0.00    -0.360 OA
HETATM   20  H   UNL     1     -39.769  51.633 -55.166  1.00  0.00     0.217 HD
ENDBRANCH  16  19
ENDBRANCH   5   6
ENDBRANCH   1   5
BRANCH   2  21
HETATM   21  C   UNL     1     -44.966  58.115 -54.811  1.00  0.00     0.127 C 
BRANCH  21  22
HETATM   22  C   UNL     1     -44.834  59.175 -55.899  1.00  0.00     0.060 C 
BRANCH  22  23
HETATM   23  C   UNL     1     -43.762  59.020 -56.947  1.00  0.00    -0.029 A 
HETATM   24  C   UNL     1     -43.509  57.997 -57.927  1.00  0.00    -0.000 A 
HETATM   25  C   UNL     1     -42.368  58.378 -58.644  1.00  0.00     0.043 A 
HETATM   26  C   UNL     1     -44.122  56.778 -58.294  1.00  0.00     0.038 A 
HETATM   27  C   UNL     1     -41.813  57.614 -59.679  1.00  0.00     0.032 A 
HETATM   28  N   UNL     1     -41.953  59.586 -58.141  1.00  0.00    -0.365 N 
HETATM   29  C   UNL     1     -42.434  56.408 -60.003  1.00  0.00     0.026 A 
HETATM   30  C   UNL     1     -43.572  55.999 -59.319  1.00  0.00     0.035 A 
HETATM   31 CL   UNL     1     -44.311  54.499 -59.736  1.00  0.00    -0.084 Cl
HETATM   32  H   UNL     1     -41.155  60.105 -58.479  1.00  0.00     0.165 HD
HETATM   33  C   UNL     1     -42.775  59.976 -57.124  1.00  0.00     0.096 A 
ENDBRANCH  22  23
ENDBRANCH  21  22
ENDBRANCH   2  21
TORSDOF 6
ENDMDL
MODEL 8
REMARK VINA RESULT:      -8.3      3.330      8.025
REMARK  6 active torsions:
REMARK  status: ('A' for Active; 'I' for Inactive)
REMARK    1  A    between atoms: C_6  and  O_7 
REMARK    2  A    between atoms: C_12  and  C_13 
REMARK    3  A    between atoms: C_13  and  C_14 
REMARK       I    between atoms: C_14  and  N_15 
REMARK    4  A    between atoms: N_15  and  C_16 
REMARK    5  A    between atoms: C_16  and  C_17 
REMARK    6  A    between atoms: C_17  and  C_18 
ROOT
HETATM    1  C   UNL     1     -41.591  59.134 -54.340  1.00  0.00     0.222 C 
HETATM    2  N   UNL     1     -41.763  57.767 -54.425  1.00  0.00    -0.360 N 
HETATM    3  O   UNL     1     -40.849  59.660 -53.512  1.00  0.00    -0.273 OA
HETATM    4  H   UNL     1     -42.512  57.427 -55.015  1.00  0.00     0.162 HD
ENDROOT
BRANCH   1   5
HETATM    5  C   UNL     1     -42.458  59.968 -55.279  1.00  0.00     0.148 C 
BRANCH   5   6
HETATM    6  C   UNL     1     -43.245  59.314 -56.397  1.00  0.00     0.033 C 
HETATM    7  C   UNL     1     -42.419  59.181 -57.636  1.00  0.00     0.295 C 
HETATM    8  O   UNL     1     -42.875  58.322 -58.617  1.00  0.00    -0.274 OA
HETATM    9  O   UNL     1     -41.336  59.745 -57.756  1.00  0.00    -0.259 OA
HETATM   10  C   UNL     1     -44.220  57.931 -58.647  1.00  0.00     0.093 A 
HETATM   11  C   UNL     1     -44.627  57.262 -59.806  1.00  0.00     0.045 A 
HETATM   12  C   UNL     1     -45.088  58.236 -57.602  1.00  0.00     0.038 A 
HETATM   13  C   UNL     1     -45.964  56.902 -59.966  1.00  0.00    -0.057 A 
HETATM   14  C   UNL     1     -46.432  56.168 -61.187  1.00  0.00     0.048 C 
HETATM   15  C   UNL     1     -46.877  57.267 -58.972  1.00  0.00     0.044 A 
HETATM   16  C   UNL     1     -46.444  57.930 -57.814  1.00  0.00     0.079 A 
HETATM   17  C   UNL     1     -44.501  58.815 -56.367  1.00  0.00    -0.034 C 
HETATM   18  C   UNL     1     -45.324  58.714 -55.113  1.00  0.00     0.050 C 
BRANCH  16  19
HETATM   19  O   UNL     1     -47.391  58.309 -56.901  1.00  0.00    -0.360 OA
HETATM   20  H   UNL     1     -47.137  58.000 -56.016  1.00  0.00     0.217 HD
ENDBRANCH  16  19
ENDBRANCH   5   6
ENDBRANCH   1   5
BRANCH   2  21
HETATM   21  C   UNL     1     -41.326  56.914 -53.326  1.00  0.00     0.127 C 
BRANCH  21  22
HETATM   22  C   UNL     1     -41.366  55.424 -53.646  1.00  0.00     0.060 C 
BRANCH  22  23
HETATM   23  C   UNL     1     -40.930  54.436 -52.596  1.00  0.00    -0.029 A 
HETATM   24  C   UNL     1     -40.467  53.075 -52.682  1.00  0.00    -0.000 A 
HETATM   25  C   UNL     1     -40.196  52.642 -51.377  1.00  0.00     0.043 A 
HETATM   26  C   UNL     1     -40.243  52.150 -53.726  1.00  0.00     0.038 A 
HETATM   27  C   UNL     1     -39.734  51.356 -51.068  1.00  0.00     0.032 A 
HETATM   28  N   UNL     1     -40.462  53.693 -50.535  1.00  0.00    -0.365 N 
HETATM   29  C   UNL     1     -39.541  50.464 -52.122  1.00  0.00     0.026 A 
HETATM   30  C   UNL     1     -39.792  50.857 -53.431  1.00  0.00     0.035 A 
HETATM   31 CL   UNL     1     -39.552  49.729 -54.711  1.00  0.00    -0.084 Cl
HETATM   32  H   UNL     1     -40.343  53.668 -49.532  1.00  0.00     0.165 HD
HETATM   33  C   UNL     1     -40.905  54.767 -51.250  1.00  0.00     0.096 A 
ENDBRANCH  22  23
ENDBRANCH  21  22
ENDBRANCH   2  21
TORSDOF 6
ENDMDL
MODEL 9
REMARK VINA RESULT:      -8.2      5.006      7.598
REMARK  6 active torsions:
REMARK  status: ('A' for Active; 'I' for Inactive)
REMARK    1  A    between atoms: C_6  and  O_7 
REMARK    2  A    between atoms: C_12  and  C_13 
REMARK    3  A    between atoms: C_13  and  C_14 
REMARK       I    between atoms: C_14  and  N_15 
REMARK    4  A    between atoms: N_15  and  C_16 
REMARK    5  A    between atoms: C_16  and  C_17 
REMARK    6  A    between atoms: C_17  and  C_18 
ROOT
HETATM    1  C   UNL     1     -43.760  57.210 -51.383  1.00  0.00     0.222 C 
HETATM    2  N   UNL     1     -44.374  58.403 -51.710  1.00  0.00    -0.360 N 
HETATM    3  O   UNL     1     -44.289  56.368 -50.660  1.00  0.00    -0.273 OA
HETATM    4  H   UNL     1     -43.808  59.108 -52.167  1.00  0.00     0.162 HD
ENDROOT
BRANCH   1   5
HETATM    5  C   UNL     1     -42.332  57.039 -51.897  1.00  0.00     0.148 C 
BRANCH   5   6
HETATM    6  C   UNL     1     -41.814  55.676 -52.310  1.00  0.00     0.033 C 
HETATM    7  C   UNL     1     -42.125  55.390 -53.745  1.00  0.00     0.295 C 
HETATM    8  O   UNL     1     -41.444  54.353 -54.350  1.00  0.00    -0.274 OA
HETATM    9  O   UNL     1     -42.895  56.092 -54.392  1.00  0.00    -0.259 OA
HETATM   10  C   UNL     1     -40.823  53.364 -53.575  1.00  0.00     0.093 A 
HETATM   11  C   UNL     1     -40.372  52.242 -54.277  1.00  0.00     0.045 A 
HETATM   12  C   UNL     1     -40.712  53.489 -52.192  1.00  0.00     0.038 A 
HETATM   13  C   UNL     1     -39.813  51.169 -53.586  1.00  0.00    -0.057 A 
HETATM   14  C   UNL     1     -39.303  49.958 -54.309  1.00  0.00     0.048 C 
HETATM   15  C   UNL     1     -39.763  51.228 -52.190  1.00  0.00     0.044 A 
HETATM   16  C   UNL     1     -40.214  52.367 -51.507  1.00  0.00     0.079 A 
HETATM   17  C   UNL     1     -41.094  54.790 -51.586  1.00  0.00    -0.034 C 
HETATM   18  C   UNL     1     -40.556  55.083 -50.213  1.00  0.00     0.050 C 
BRANCH  16  19
HETATM   19  O   UNL     1     -40.189  52.346 -50.138  1.00  0.00    -0.360 OA
HETATM   20  H   UNL     1     -41.088  52.220 -49.795  1.00  0.00     0.217 HD
ENDBRANCH  16  19
ENDBRANCH   5   6
ENDBRANCH   1   5
BRANCH   2  21
HETATM   21  C   UNL     1     -45.533  58.852 -50.948  1.00  0.00     0.127 C 
BRANCH  21  22
HETATM   22  C   UNL     1     -45.812  60.346 -51.070  1.00  0.00     0.060 C 
BRANCH  22  23
HETATM   23  C   UNL     1     -45.453  61.255 -49.923  1.00  0.00    -0.029 A 
HETATM   24  C   UNL     1     -45.541  61.092 -48.495  1.00  0.00    -0.000 A 
HETATM   25  C   UNL     1     -45.059  62.269 -47.909  1.00  0.00     0.043 A 
HETATM   26  C   UNL     1     -45.977  60.070 -47.623  1.00  0.00     0.038 A 
HETATM   27  C   UNL     1     -45.003  62.478 -46.525  1.00  0.00     0.032 A 
HETATM   28  N   UNL     1     -44.677  63.106 -48.928  1.00  0.00    -0.365 N 
HETATM   29  C   UNL     1     -45.458  61.455 -45.694  1.00  0.00     0.026 A 
HETATM   30  C   UNL     1     -45.937  60.269 -46.237  1.00  0.00     0.035 A 
HETATM   31 CL   UNL     1     -46.501  59.027 -45.184  1.00  0.00    -0.084 Cl
HETATM   32  H   UNL     1     -44.279  64.025 -48.796  1.00  0.00     0.165 HD
HETATM   33  C   UNL     1     -44.912  62.514 -50.134  1.00  0.00     0.096 A 
ENDBRANCH  22  23
ENDBRANCH  21  22
ENDBRANCH   2  21
TORSDOF 6
ENDMDL
MODEL 10
REMARK VINA RESULT:      -8.2      1.832      2.853
REMARK  6 active torsions:
REMARK  status: ('A' for Active; 'I' for Inactive)
REMARK    1  A    between atoms: C_6  and  O_7 
REMARK    2  A    between atoms: C_12  and  C_13 
REMARK    3  A    between atoms: C_13  and  C_14 
REMARK       I    between atoms: C_14  and  N_15 
REMARK    4  A    between atoms: N_15  and  C_16 
REMARK    5  A    between atoms: C_16  and  C_17 
REMARK    6  A    between atoms: C_17  and  C_18 
ROOT
HETATM    1  C   UNL     1     -41.541  58.796 -53.500  1.00  0.00     0.222 C 
HETATM    2  N   UNL     1     -42.481  59.140 -54.451  1.00  0.00    -0.360 N 
HETATM    3  O   UNL     1     -40.363  59.141 -53.576  1.00  0.00    -0.273 OA
HETATM    4  H   UNL     1     -43.382  58.680 -54.404  1.00  0.00     0.162 HD
ENDROOT
BRANCH   1   5
HETATM    5  C   UNL     1     -42.033  57.871 -52.390  1.00  0.00     0.148 C 
BRANCH   5   6
HETATM    6  C   UNL     1     -41.476  56.469 -52.243  1.00  0.00     0.033 C 
HETATM    7  C   UNL     1     -41.091  56.184 -50.827  1.00  0.00     0.295 C 
HETATM    8  O   UNL     1     -40.882  54.864 -50.476  1.00  0.00    -0.274 OA
HETATM    9  O   UNL     1     -41.036  57.069 -49.980  1.00  0.00    -0.259 OA
HETATM   10  C   UNL     1     -40.627  53.901 -51.461  1.00  0.00     0.093 A 
HETATM   11  C   UNL     1     -40.196  52.656 -50.990  1.00  0.00     0.045 A 
HETATM   12  C   UNL     1     -40.757  54.196 -52.816  1.00  0.00     0.038 A 
HETATM   13  C   UNL     1     -39.840  51.658 -51.895  1.00  0.00    -0.057 A 
HETATM   14  C   UNL     1     -39.390  50.306 -51.425  1.00  0.00     0.048 C 
HETATM   15  C   UNL     1     -39.880  51.949 -53.262  1.00  0.00     0.044 A 
HETATM   16  C   UNL     1     -40.324  53.201 -53.711  1.00  0.00     0.079 A 
HETATM   17  C   UNL     1     -41.365  55.501 -53.181  1.00  0.00    -0.034 C 
HETATM   18  C   UNL     1     -41.920  55.626 -54.572  1.00  0.00     0.050 C 
BRANCH  16  19
HETATM   19  O   UNL     1     -40.292  53.447 -55.058  1.00  0.00    -0.360 OA
HETATM   20  H   UNL     1     -40.303  52.608 -55.546  1.00  0.00     0.217 HD
ENDBRANCH  16  19
ENDBRANCH   5   6
ENDBRANCH   1   5
BRANCH   2  21
HETATM   21  C   UNL     1     -42.047  59.648 -55.747  1.00  0.00     0.127 C 
BRANCH  21  22
HETATM   22  C   UNL     1     -42.432  58.756 -56.922  1.00  0.00     0.060 C 
BRANCH  22  23
HETATM   23  C   UNL     1     -43.871  58.708 -57.365  1.00  0.00    -0.029 A 
HETATM   24  C   UNL     1     -44.579  57.827 -58.257  1.00  0.00    -0.000 A 
HETATM   25  C   UNL     1     -45.913  58.252 -58.293  1.00  0.00     0.043 A 
HETATM   26  C   UNL     1     -44.239  56.705 -59.046  1.00  0.00     0.038 A 
HETATM   27  C   UNL     1     -46.902  57.634 -59.070  1.00  0.00     0.032 A 
HETATM   28  N   UNL     1     -46.022  59.330 -57.450  1.00  0.00    -0.365 N 
HETATM   29  C   UNL     1     -46.527  56.540 -59.850  1.00  0.00     0.026 A 
HETATM   30  C   UNL     1     -45.215  56.084 -59.836  1.00  0.00     0.035 A 
HETATM   31 CL   UNL     1     -44.781  54.736 -60.817  1.00  0.00    -0.084 Cl
HETATM   32  H   UNL     1     -46.879  59.834 -57.271  1.00  0.00     0.165 HD
HETATM   33  C   UNL     1     -44.809  59.614 -56.894  1.00  0.00     0.096 A 
ENDBRANCH  22  23
ENDBRANCH  21  22
ENDBRANCH   2  21
TORSDOF 6
ENDMDL
