MODEL 1
REMARK VINA RESULT:      -8.3      0.000      0.000
REMARK  6 active torsions:
REMARK  status: ('A' for Active; 'I' for Inactive)
REMARK    1  A    between atoms: C_2  and  C_3 
REMARK    2  A    between atoms: C_2  and  C_9 
REMARK    3  A    between atoms: C_9  and  C_10 
REMARK    4  A    between atoms: C_10  and  C_11 
REMARK       I    between atoms: C_11  and  N_12 
REMARK    5  A    between atoms: N_12  and  C_13 
REMARK    6  A    between atoms: C_20  and  C_21 
REMARK       I    between atoms: C_21  and  N_22 
ROOT
HETATM    1  C   UNL     1     -42.572  58.222 -54.130  1.00  0.00     0.035 A 
HETATM    2  C   UNL     1     -41.320  58.437 -53.537  1.00  0.00     0.046 A 
HETATM    3  C   UNL     1     -41.250  58.768 -52.170  1.00  0.00     0.030 A 
HETATM    4  C   UNL     1     -42.422  58.796 -51.427  1.00  0.00     0.063 A 
HETATM    5  N   UNL     1     -42.038  59.138 -50.160  1.00  0.00    -0.277 N 
HETATM    6  H   UNL     1     -42.632  59.245 -49.345  1.00  0.00     0.189 HD
HETATM    7  N   UNL     1     -40.721  59.370 -50.022  1.00  0.00    -0.168 NA
HETATM    8  C   UNL     1     -40.221  59.143 -51.257  1.00  0.00     0.156 A 
HETATM    9  C   UNL     1     -43.676  58.512 -51.973  1.00  0.00     0.034 A 
HETATM   10  C   UNL     1     -43.726  58.229 -53.346  1.00  0.00     0.032 A 
ENDROOT
BRANCH   1  11
HETATM   11  N   UNL     1     -42.579  57.982 -55.511  1.00  0.00    -0.327 N 
HETATM   12  C   UNL     1     -42.429  56.839 -56.239  1.00  0.00     0.222 C 
HETATM   13  O   UNL     1     -42.324  56.947 -57.465  1.00  0.00    -0.273 OA
HETATM   14  H   UNL     1     -42.826  58.765 -56.107  1.00  0.00     0.169 HD
BRANCH  12  15
HETATM   15  C   UNL     1     -42.473  55.462 -55.602  1.00  0.00     0.104 C 
BRANCH  15  16
HETATM   16  C   UNL     1     -41.266  55.055 -54.741  1.00  0.00     0.023 C 
BRANCH  16  17
HETATM   17  C   UNL     1     -41.541  54.321 -53.388  1.00  0.00    -0.020 C 
HETATM   18  C   UNL     1     -43.059  54.271 -53.099  1.00  0.00     0.020 C 
HETATM   19  C   UNL     1     -40.942  55.202 -52.255  1.00  0.00     0.020 C 
BRANCH  17  20
HETATM   20  C   UNL     1     -40.852  52.946 -53.351  1.00  0.00    -0.050 A 
HETATM   21  C   UNL     1     -40.911  52.042 -54.424  1.00  0.00     0.008 A 
HETATM   22  C   UNL     1     -40.289  50.791 -54.356  1.00  0.00     0.001 A 
HETATM   23  C   UNL     1     -39.591  50.415 -53.214  1.00  0.00     0.000 A 
HETATM   24  C   UNL     1     -39.508  51.294 -52.140  1.00  0.00     0.001 A 
HETATM   25  C   UNL     1     -40.130  52.543 -52.209  1.00  0.00     0.008 A 
ENDBRANCH  17  20
ENDBRANCH  16  17
ENDBRANCH  15  16
ENDBRANCH  12  15
ENDBRANCH   1  11
BRANCH   8  26
HETATM   26  C   UNL     1     -38.793  59.314 -51.555  1.00  0.00     0.270 C 
HETATM   27  N   UNL     1     -38.018  59.572 -50.458  1.00  0.00    -0.365 N 
HETATM   28  H   UNL     1     -38.467  59.646 -49.553  1.00  0.00     0.159 HD
HETATM   29  H   UNL     1     -37.031  59.742 -50.571  1.00  0.00     0.159 HD
HETATM   30  O   UNL     1     -38.307  59.252 -52.680  1.00  0.00    -0.266 OA
ENDBRANCH   8  26
TORSDOF 6
ENDMDL
MODEL 2
REMARK VINA RESULT:      -8.3      3.178      6.106
REMARK  6 active torsions:
REMARK  status: ('A' for Active; 'I' for Inactive)
REMARK    1  A    between atoms: C_2  and  C_3 
REMARK    2  A    between atoms: C_2  and  C_9 
REMARK    3  A    between atoms: C_9  and  C_10 
REMARK    4  A    between atoms: C_10  and  C_11 
REMARK       I    between atoms: C_11  and  N_12 
REMARK    5  A    between atoms: N_12  and  C_13 
REMARK    6  A    between atoms: C_20  and  C_21 
REMARK       I    between atoms: C_21  and  N_22 
ROOT
HETATM    1  C   UNL     1     -43.488  57.942 -56.051  1.00  0.00     0.035 A 
HETATM    2  C   UNL     1     -43.915  56.909 -56.897  1.00  0.00     0.046 A 
HETATM    3  C   UNL     1     -43.334  56.774 -58.173  1.00  0.00     0.030 A 
HETATM    4  C   UNL     1     -42.295  57.624 -58.528  1.00  0.00     0.063 A 
HETATM    5  N   UNL     1     -41.944  57.253 -59.796  1.00  0.00    -0.277 N 
HETATM    6  H   UNL     1     -41.212  57.652 -60.373  1.00  0.00     0.189 HD
HETATM    7  N   UNL     1     -42.688  56.259 -60.311  1.00  0.00    -0.168 NA
HETATM    8  C   UNL     1     -43.550  55.951 -59.316  1.00  0.00     0.156 A 
HETATM    9  C   UNL     1     -41.797  58.613 -57.677  1.00  0.00     0.034 A 
HETATM   10  C   UNL     1     -42.421  58.758 -56.430  1.00  0.00     0.032 A 
ENDROOT
BRANCH   1  11
HETATM   11  N   UNL     1     -44.166  58.075 -54.832  1.00  0.00    -0.327 N 
HETATM   12  C   UNL     1     -43.907  57.583 -53.586  1.00  0.00     0.222 C 
HETATM   13  O   UNL     1     -44.772  57.736 -52.717  1.00  0.00    -0.273 OA
HETATM   14  H   UNL     1     -44.947  58.722 -54.814  1.00  0.00     0.169 HD
BRANCH  12  15
HETATM   15  C   UNL     1     -42.580  56.941 -53.228  1.00  0.00     0.104 C 
BRANCH  15  16
HETATM   16  C   UNL     1     -42.562  55.410 -53.092  1.00  0.00     0.023 C 
BRANCH  16  17
HETATM   17  C   UNL     1     -41.748  54.587 -54.143  1.00  0.00    -0.020 C 
HETATM   18  C   UNL     1     -40.879  55.527 -55.011  1.00  0.00     0.020 C 
HETATM   19  C   UNL     1     -42.772  53.957 -55.130  1.00  0.00     0.020 C 
BRANCH  17  20
HETATM   20  C   UNL     1     -40.958  53.451 -53.471  1.00  0.00    -0.050 A 
HETATM   21  C   UNL     1     -40.624  53.467 -52.107  1.00  0.00     0.008 A 
HETATM   22  C   UNL     1     -39.890  52.428 -51.524  1.00  0.00     0.001 A 
HETATM   23  C   UNL     1     -39.475  51.347 -52.293  1.00  0.00     0.000 A 
HETATM   24  C   UNL     1     -39.799  51.299 -53.644  1.00  0.00     0.001 A 
HETATM   25  C   UNL     1     -40.533  52.338 -54.224  1.00  0.00     0.008 A 
ENDBRANCH  17  20
ENDBRANCH  16  17
ENDBRANCH  15  16
ENDBRANCH  12  15
ENDBRANCH   1  11
BRANCH   8  26
HETATM   26  C   UNL     1     -44.576  54.912 -59.478  1.00  0.00     0.270 C 
HETATM   27  N   UNL     1     -45.793  55.383 -59.888  1.00  0.00    -0.365 N 
HETATM   28  H   UNL     1     -45.906  56.381 -60.027  1.00  0.00     0.159 HD
HETATM   29  H   UNL     1     -46.568  54.748 -59.988  1.00  0.00     0.159 HD
HETATM   30  O   UNL     1     -44.394  53.719 -59.257  1.00  0.00    -0.266 OA
ENDBRANCH   8  26
TORSDOF 6
ENDMDL
MODEL 3
REMARK VINA RESULT:      -8.3      2.333      5.292
REMARK  6 active torsions:
REMARK  status: ('A' for Active; 'I' for Inactive)
REMARK    1  A    between atoms: C_2  and  C_3 
REMARK    2  A    between atoms: C_2  and  C_9 
REMARK    3  A    between atoms: C_9  and  C_10 
REMARK    4  A    between atoms: C_10  and  C_11 
REMARK       I    between atoms: C_11  and  N_12 
REMARK    5  A    between atoms: N_12  and  C_13 
REMARK    6  A    between atoms: C_20  and  C_21 
REMARK       I    between atoms: C_21  and  N_22 
ROOT
HETATM    1  C   UNL     1     -42.664  58.760 -55.480  1.00  0.00     0.035 A 
HETATM    2  C   UNL     1     -42.400  58.471 -56.826  1.00  0.00     0.046 A 
HETATM    3  C   UNL     1     -43.423  57.938 -57.633  1.00  0.00     0.030 A 
HETATM    4  C   UNL     1     -44.693  57.787 -57.092  1.00  0.00     0.063 A 
HETATM    5  N   UNL     1     -45.453  57.263 -58.100  1.00  0.00    -0.277 N 
HETATM    6  H   UNL     1     -46.439  57.028 -58.068  1.00  0.00     0.189 HD
HETATM    7  N   UNL     1     -44.780  57.026 -59.239  1.00  0.00    -0.168 NA
HETATM    8  C   UNL     1     -43.524  57.442 -58.965  1.00  0.00     0.156 A 
HETATM    9  C   UNL     1     -45.006  58.138 -55.777  1.00  0.00     0.034 A 
HETATM   10  C   UNL     1     -43.960  58.624 -54.978  1.00  0.00     0.032 A 
ENDROOT
BRANCH   1  11
HETATM   11  N   UNL     1     -41.582  59.205 -54.709  1.00  0.00    -0.327 N 
HETATM   12  C   UNL     1     -40.959  58.673 -53.619  1.00  0.00     0.222 C 
HETATM   13  O   UNL     1     -40.117  59.369 -53.042  1.00  0.00    -0.273 OA
HETATM   14  H   UNL     1     -41.089  60.025 -55.048  1.00  0.00     0.169 HD
BRANCH  12  15
HETATM   15  C   UNL     1     -41.210  57.249 -53.157  1.00  0.00     0.104 C 
BRANCH  15  16
HETATM   16  C   UNL     1     -40.802  56.123 -54.122  1.00  0.00     0.023 C 
BRANCH  16  17
HETATM   17  C   UNL     1     -41.681  54.831 -54.158  1.00  0.00    -0.020 C 
HETATM   18  C   UNL     1     -42.261  54.611 -55.574  1.00  0.00     0.020 C 
HETATM   19  C   UNL     1     -42.917  55.088 -53.249  1.00  0.00     0.020 C 
BRANCH  17  20
HETATM   20  C   UNL     1     -40.912  53.620 -53.602  1.00  0.00    -0.050 A 
HETATM   21  C   UNL     1     -40.469  52.567 -54.419  1.00  0.00     0.008 A 
HETATM   22  C   UNL     1     -39.787  51.469 -53.884  1.00  0.00     0.001 A 
HETATM   23  C   UNL     1     -39.530  51.399 -52.519  1.00  0.00     0.000 A 
HETATM   24  C   UNL     1     -39.948  52.431 -51.688  1.00  0.00     0.001 A 
HETATM   25  C   UNL     1     -40.630  53.528 -52.224  1.00  0.00     0.008 A 
ENDBRANCH  17  20
ENDBRANCH  16  17
ENDBRANCH  15  16
ENDBRANCH  12  15
ENDBRANCH   1  11
BRANCH   8  26
HETATM   26  C   UNL     1     -42.442  57.332 -59.954  1.00  0.00     0.270 C 
HETATM   27  N   UNL     1     -42.032  58.530 -60.472  1.00  0.00    -0.365 N 
HETATM   28  H   UNL     1     -42.498  59.376 -60.167  1.00  0.00     0.159 HD
HETATM   29  H   UNL     1     -41.321  58.549 -61.186  1.00  0.00     0.159 HD
HETATM   30  O   UNL     1     -41.940  56.273 -60.317  1.00  0.00    -0.266 OA
ENDBRANCH   8  26
TORSDOF 6
ENDMDL
MODEL 4
REMARK VINA RESULT:      -7.8      2.227      5.053
REMARK  6 active torsions:
REMARK  status: ('A' for Active; 'I' for Inactive)
REMARK    1  A    between atoms: C_2  and  C_3 
REMARK    2  A    between atoms: C_2  and  C_9 
REMARK    3  A    between atoms: C_9  and  C_10 
REMARK    4  A    between atoms: C_10  and  C_11 
REMARK       I    between atoms: C_11  and  N_12 
REMARK    5  A    between atoms: N_12  and  C_13 
REMARK    6  A    between atoms: C_20  and  C_21 
REMARK       I    between atoms: C_21  and  N_22 
ROOT
HETATM    1  C   UNL     1     -42.277  58.330 -53.516  1.00  0.00     0.035 A 
HETATM    2  C   UNL     1     -42.061  58.470 -54.893  1.00  0.00     0.046 A 
HETATM    3  C   UNL     1     -43.083  58.115 -55.794  1.00  0.00     0.030 A 
HETATM    4  C   UNL     1     -44.310  57.709 -55.288  1.00  0.00     0.063 A 
HETATM    5  N   UNL     1     -45.082  57.443 -56.384  1.00  0.00    -0.277 N 
HETATM    6  H   UNL     1     -46.046  57.129 -56.396  1.00  0.00     0.189 HD
HETATM    7  N   UNL     1     -44.452  57.605 -57.561  1.00  0.00    -0.168 NA
HETATM    8  C   UNL     1     -43.215  58.023 -57.210  1.00  0.00     0.156 A 
HETATM    9  C   UNL     1     -44.581  57.634 -53.920  1.00  0.00     0.034 A 
HETATM   10  C   UNL     1     -43.533  57.948 -53.042  1.00  0.00     0.032 A 
ENDROOT
BRANCH   1  11
HETATM   11  N   UNL     1     -41.191  58.617 -52.677  1.00  0.00    -0.327 N 
HETATM   12  C   UNL     1     -40.891  58.223 -51.407  1.00  0.00     0.222 C 
HETATM   13  O   UNL     1     -39.929  58.761 -50.850  1.00  0.00    -0.273 OA
HETATM   14  H   UNL     1     -40.424  59.138 -53.089  1.00  0.00     0.169 HD
BRANCH  12  15
HETATM   15  C   UNL     1     -41.643  57.106 -50.706  1.00  0.00     0.104 C 
BRANCH  15  16
HETATM   16  C   UNL     1     -41.003  55.708 -50.741  1.00  0.00     0.023 C 
BRANCH  16  17
HETATM   17  C   UNL     1     -41.834  54.534 -51.353  1.00  0.00    -0.020 C 
HETATM   18  C   UNL     1     -43.246  54.486 -50.725  1.00  0.00     0.020 C 
HETATM   19  C   UNL     1     -41.151  53.207 -50.914  1.00  0.00     0.020 C 
BRANCH  17  20
HETATM   20  C   UNL     1     -41.835  54.594 -52.890  1.00  0.00    -0.050 A 
HETATM   21  C   UNL     1     -40.698  54.951 -53.633  1.00  0.00     0.008 A 
HETATM   22  C   UNL     1     -40.732  55.014 -55.030  1.00  0.00     0.001 A 
HETATM   23  C   UNL     1     -41.904  54.719 -55.718  1.00  0.00     0.000 A 
HETATM   24  C   UNL     1     -43.043  54.354 -55.008  1.00  0.00     0.001 A 
HETATM   25  C   UNL     1     -43.007  54.291 -53.613  1.00  0.00     0.008 A 
ENDBRANCH  17  20
ENDBRANCH  16  17
ENDBRANCH  15  16
ENDBRANCH  12  15
ENDBRANCH   1  11
BRANCH   8  26
HETATM   26  C   UNL     1     -42.179  58.296 -58.216  1.00  0.00     0.270 C 
HETATM   27  N   UNL     1     -41.823  57.209 -58.965  1.00  0.00    -0.365 N 
HETATM   28  H   UNL     1     -42.266  56.318 -58.769  1.00  0.00     0.159 HD
HETATM   29  H   UNL     1     -41.092  57.292 -59.654  1.00  0.00     0.159 HD
HETATM   30  O   UNL     1     -41.648  59.390 -58.384  1.00  0.00    -0.266 OA
ENDBRANCH   8  26
TORSDOF 6
ENDMDL
MODEL 5
REMARK VINA RESULT:      -7.6      2.485      5.711
REMARK  6 active torsions:
REMARK  status: ('A' for Active; 'I' for Inactive)
REMARK    1  A    between atoms: C_2  and  C_3 
REMARK    2  A    between atoms: C_2  and  C_9 
REMARK    3  A    between atoms: C_9  and  C_10 
REMARK    4  A    between atoms: C_10  and  C_11 
REMARK       I    between atoms: C_11  and  N_12 
REMARK    5  A    between atoms: N_12  and  C_13 
REMARK    6  A    between atoms: C_20  and  C_21 
REMARK       I    between atoms: C_21  and  N_22 
ROOT
HETATM    1  C   UNL     1     -42.313  57.240 -55.592  1.00  0.00     0.035 A 
HETATM    2  C   UNL     1     -43.085  57.811 -56.614  1.00  0.00     0.046 A 
HETATM    3  C   UNL     1     -43.579  56.993 -57.648  1.00  0.00     0.030 A 
HETATM    4  C   UNL     1     -43.353  55.625 -57.585  1.00  0.00     0.063 A 
HETATM    5  N   UNL     1     -43.946  55.110 -58.704  1.00  0.00    -0.277 N 
HETATM    6  H   UNL     1     -43.988  54.137 -58.985  1.00  0.00     0.189 HD
HETATM    7  N   UNL     1     -44.507  56.029 -59.509  1.00  0.00    -0.168 NA
HETATM    8  C   UNL     1     -44.290  57.198 -58.866  1.00  0.00     0.156 A 
HETATM    9  C   UNL     1     -42.654  55.017 -56.540  1.00  0.00     0.034 A 
HETATM   10  C   UNL     1     -42.132  55.857 -55.545  1.00  0.00     0.032 A 
ENDROOT
BRANCH   1  11
HETATM   11  N   UNL     1     -41.779  58.121 -54.642  1.00  0.00    -0.327 N 
HETATM   12  C   UNL     1     -41.833  58.135 -53.280  1.00  0.00     0.222 C 
HETATM   13  O   UNL     1     -41.394  59.132 -52.697  1.00  0.00    -0.273 OA
HETATM   14  H   UNL     1     -41.156  58.843 -54.991  1.00  0.00     0.169 HD
BRANCH  12  15
HETATM   15  C   UNL     1     -42.332  56.948 -52.477  1.00  0.00     0.104 C 
BRANCH  15  16
HETATM   16  C   UNL     1     -41.278  55.930 -52.012  1.00  0.00     0.023 C 
BRANCH  16  17
HETATM   17  C   UNL     1     -41.768  54.513 -51.570  1.00  0.00    -0.020 C 
HETATM   18  C   UNL     1     -43.296  54.385 -51.763  1.00  0.00     0.020 C 
HETATM   19  C   UNL     1     -41.544  54.406 -50.034  1.00  0.00     0.020 C 
BRANCH  17  20
HETATM   20  C   UNL     1     -40.956  53.403 -52.258  1.00  0.00    -0.050 A 
HETATM   21  C   UNL     1     -41.019  53.167 -53.641  1.00  0.00     0.008 A 
HETATM   22  C   UNL     1     -40.282  52.139 -54.239  1.00  0.00     0.001 A 
HETATM   23  C   UNL     1     -39.462  51.324 -53.467  1.00  0.00     0.000 A 
HETATM   24  C   UNL     1     -39.372  51.540 -52.097  1.00  0.00     0.001 A 
HETATM   25  C   UNL     1     -40.109  52.568 -51.501  1.00  0.00     0.008 A 
ENDBRANCH  17  20
ENDBRANCH  16  17
ENDBRANCH  15  16
ENDBRANCH  12  15
ENDBRANCH   1  11
BRANCH   8  26
HETATM   26  C   UNL     1     -44.729  58.482 -59.430  1.00  0.00     0.270 C 
HETATM   27  N   UNL     1     -44.407  58.656 -60.748  1.00  0.00    -0.365 N 
HETATM   28  H   UNL     1     -43.889  57.925 -61.222  1.00  0.00     0.159 HD
HETATM   29  H   UNL     1     -44.634  59.523 -61.209  1.00  0.00     0.159 HD
HETATM   30  O   UNL     1     -45.321  59.351 -58.797  1.00  0.00    -0.266 OA
ENDBRANCH   8  26
TORSDOF 6
ENDMDL
MODEL 6
REMARK VINA RESULT:      -7.6      1.716      4.409
REMARK  6 active torsions:
REMARK  status: ('A' for Active; 'I' for Inactive)
REMARK    1  A    between atoms: C_2  and  C_3 
REMARK    2  A    between atoms: C_2  and  C_9 
REMARK    3  A    between atoms: C_9  and  C_10 
REMARK    4  A    between atoms: C_10  and  C_11 
REMARK       I    between atoms: C_11  and  N_12 
REMARK    5  A    between atoms: N_12  and  C_13 
REMARK    6  A    between atoms: C_20  and  C_21 
REMARK       I    between atoms: C_21  and  N_22 
ROOT
HETATM    1  C   UNL     1     -42.912  58.810 -52.852  1.00  0.00     0.035 A 
HETATM    2  C   UNL     1     -42.595  58.555 -54.193  1.00  0.00     0.046 A 
HETATM    3  C   UNL     1     -43.633  58.388 -55.130  1.00  0.00     0.030 A 
HETATM    4  C   UNL     1     -44.946  58.557 -54.712  1.00  0.00     0.063 A 
HETATM    5  N   UNL     1     -45.709  58.339 -55.826  1.00  0.00    -0.277 N 
HETATM    6  H   UNL     1     -46.719  58.386 -55.897  1.00  0.00     0.189 HD
HETATM    7  N   UNL     1     -45.008  58.006 -56.924  1.00  0.00    -0.168 NA
HETATM    8  C   UNL     1     -43.722  58.035 -56.508  1.00  0.00     0.156 A 
HETATM    9  C   UNL     1     -45.289  58.887 -53.399  1.00  0.00     0.034 A 
HETATM   10  C   UNL     1     -44.242  59.004 -52.474  1.00  0.00     0.032 A 
ENDROOT
BRANCH   1  11
HETATM   11  N   UNL     1     -41.838  58.880 -51.955  1.00  0.00    -0.327 N 
HETATM   12  C   UNL     1     -41.286  57.954 -51.119  1.00  0.00     0.222 C 
HETATM   13  O   UNL     1     -40.431  58.342 -50.317  1.00  0.00    -0.273 OA
HETATM   14  H   UNL     1     -41.289  59.733 -51.968  1.00  0.00     0.169 HD
BRANCH  12  15
HETATM   15  C   UNL     1     -41.630  56.478 -51.205  1.00  0.00     0.104 C 
BRANCH  15  16
HETATM   16  C   UNL     1     -41.217  55.741 -52.489  1.00  0.00     0.023 C 
BRANCH  16  17
HETATM   17  C   UNL     1     -42.060  54.501 -52.928  1.00  0.00    -0.020 C 
HETATM   18  C   UNL     1     -42.904  54.835 -54.180  1.00  0.00     0.020 C 
HETATM   19  C   UNL     1     -43.097  54.224 -51.803  1.00  0.00     0.020 C 
BRANCH  17  20
HETATM   20  C   UNL     1     -41.173  53.253 -53.088  1.00  0.00    -0.050 A 
HETATM   21  C   UNL     1     -41.208  52.444 -54.235  1.00  0.00     0.008 A 
HETATM   22  C   UNL     1     -40.403  51.305 -54.348  1.00  0.00     0.001 A 
HETATM   23  C   UNL     1     -39.540  50.952 -53.316  1.00  0.00     0.000 A 
HETATM   24  C   UNL     1     -39.477  51.740 -52.173  1.00  0.00     0.001 A 
HETATM   25  C   UNL     1     -40.283  52.877 -52.063  1.00  0.00     0.008 A 
ENDBRANCH  17  20
ENDBRANCH  16  17
ENDBRANCH  15  16
ENDBRANCH  12  15
ENDBRANCH   1  11
BRANCH   8  26
HETATM   26  C   UNL     1     -42.612  57.700 -57.411  1.00  0.00     0.270 C 
HETATM   27  N   UNL     1     -42.343  56.362 -57.497  1.00  0.00    -0.365 N 
HETATM   28  H   UNL     1     -42.893  55.719 -56.938  1.00  0.00     0.159 HD
HETATM   29  H   UNL     1     -41.573  56.041 -58.062  1.00  0.00     0.159 HD
HETATM   30  O   UNL     1     -41.953  58.526 -58.035  1.00  0.00    -0.266 OA
ENDBRANCH   8  26
TORSDOF 6
ENDMDL
MODEL 7
REMARK VINA RESULT:      -7.4      3.343      6.404
REMARK  6 active torsions:
REMARK  status: ('A' for Active; 'I' for Inactive)
REMARK    1  A    between atoms: C_2  and  C_3 
REMARK    2  A    between atoms: C_2  and  C_9 
REMARK    3  A    between atoms: C_9  and  C_10 
REMARK    4  A    between atoms: C_10  and  C_11 
REMARK       I    between atoms: C_11  and  N_12 
REMARK    5  A    between atoms: N_12  and  C_13 
REMARK    6  A    between atoms: C_20  and  C_21 
REMARK       I    between atoms: C_21  and  N_22 
ROOT
HETATM    1  C   UNL     1     -43.224  57.174 -57.376  1.00  0.00     0.035 A 
HETATM    2  C   UNL     1     -44.435  57.842 -57.601  1.00  0.00     0.046 A 
HETATM    3  C   UNL     1     -45.289  57.400 -58.631  1.00  0.00     0.030 A 
HETATM    4  C   UNL     1     -44.941  56.263 -59.347  1.00  0.00     0.063 A 
HETATM    5  N   UNL     1     -45.948  56.087 -60.255  1.00  0.00    -0.277 N 
HETATM    6  H   UNL     1     -46.033  55.347 -60.942  1.00  0.00     0.189 HD
HETATM    7  N   UNL     1     -46.902  57.033 -60.217  1.00  0.00    -0.168 NA
HETATM    8  C   UNL     1     -46.508  57.850 -59.215  1.00  0.00     0.156 A 
HETATM    9  C   UNL     1     -43.778  55.531 -59.094  1.00  0.00     0.034 A 
HETATM   10  C   UNL     1     -42.922  56.015 -58.095  1.00  0.00     0.032 A 
ENDROOT
BRANCH   1  11
HETATM   11  N   UNL     1     -42.381  57.715 -56.396  1.00  0.00    -0.327 N 
HETATM   12  C   UNL     1     -42.319  57.535 -55.046  1.00  0.00     0.222 C 
HETATM   13  O   UNL     1     -41.563  58.270 -54.402  1.00  0.00    -0.273 OA
HETATM   14  H   UNL     1     -41.605  58.280 -56.726  1.00  0.00     0.169 HD
BRANCH  12  15
HETATM   15  C   UNL     1     -43.077  56.424 -54.341  1.00  0.00     0.104 C 
BRANCH  15  16
HETATM   16  C   UNL     1     -42.407  55.041 -54.304  1.00  0.00     0.023 C 
BRANCH  16  17
HETATM   17  C   UNL     1     -42.015  54.451 -52.911  1.00  0.00    -0.020 C 
HETATM   18  C   UNL     1     -43.278  54.197 -52.056  1.00  0.00     0.020 C 
HETATM   19  C   UNL     1     -41.226  55.553 -52.148  1.00  0.00     0.020 C 
BRANCH  17  20
HETATM   20  C   UNL     1     -41.106  53.219 -53.063  1.00  0.00    -0.050 A 
HETATM   21  C   UNL     1     -41.069  52.449 -54.237  1.00  0.00     0.008 A 
HETATM   22  C   UNL     1     -40.245  51.323 -54.342  1.00  0.00     0.001 A 
HETATM   23  C   UNL     1     -39.435  50.944 -53.277  1.00  0.00     0.000 A 
HETATM   24  C   UNL     1     -39.444  51.694 -52.107  1.00  0.00     0.001 A 
HETATM   25  C   UNL     1     -40.269  52.818 -52.003  1.00  0.00     0.008 A 
ENDBRANCH  17  20
ENDBRANCH  16  17
ENDBRANCH  15  16
ENDBRANCH  12  15
ENDBRANCH   1  11
BRANCH   8  26
HETATM   26  C   UNL     1     -47.274  59.051 -58.853  1.00  0.00     0.270 C 
HETATM   27  N   UNL     1     -47.709  59.070 -57.557  1.00  0.00    -0.365 N 
HETATM   28  H   UNL     1     -47.499  58.277 -56.962  1.00  0.00     0.159 HD
HETATM   29  H   UNL     1     -48.275  59.837 -57.230  1.00  0.00     0.159 HD
HETATM   30  O   UNL     1     -47.531  59.968 -59.628  1.00  0.00    -0.266 OA
ENDBRANCH   8  26
TORSDOF 6
ENDMDL
MODEL 8
REMARK VINA RESULT:      -7.3      3.028      5.442
REMARK  6 active torsions:
REMARK  status: ('A' for Active; 'I' for Inactive)
REMARK    1  A    between atoms: C_2  and  C_3 
REMARK    2  A    between atoms: C_2  and  C_9 
REMARK    3  A    between atoms: C_9  and  C_10 
REMARK    4  A    between atoms: C_10  and  C_11 
REMARK       I    between atoms: C_11  and  N_12 
REMARK    5  A    between atoms: N_12  and  C_13 
REMARK    6  A    between atoms: C_20  and  C_21 
REMARK       I    between atoms: C_21  and  N_22 
ROOT
HETATM    1  C   UNL     1     -41.713  57.558 -51.006  1.00  0.00     0.035 A 
HETATM    2  C   UNL     1     -42.946  58.137 -51.337  1.00  0.00     0.046 A 
HETATM    3  C   UNL     1     -42.983  59.212 -52.247  1.00  0.00     0.030 A 
HETATM    4  C   UNL     1     -41.802  59.619 -52.851  1.00  0.00     0.063 A 
HETATM    5  N   UNL     1     -42.155  60.657 -53.668  1.00  0.00    -0.277 N 
HETATM    6  H   UNL     1     -41.546  61.196 -54.274  1.00  0.00     0.189 HD
HETATM    7  N   UNL     1     -43.457  60.985 -53.620  1.00  0.00    -0.168 NA
HETATM    8  C   UNL     1     -43.982  60.097 -52.746  1.00  0.00     0.156 A 
HETATM    9  C   UNL     1     -40.570  59.011 -52.599  1.00  0.00     0.034 A 
HETATM   10  C   UNL     1     -40.550  57.973 -51.657  1.00  0.00     0.032 A 
ENDROOT
BRANCH   1  11
HETATM   11  N   UNL     1     -41.734  56.551 -50.031  1.00  0.00    -0.327 N 
HETATM   12  C   UNL     1     -41.736  55.191 -50.125  1.00  0.00     0.222 C 
HETATM   13  O   UNL     1     -41.916  54.544 -49.088  1.00  0.00    -0.273 OA
HETATM   14  H   UNL     1     -41.641  56.851 -49.066  1.00  0.00     0.169 HD
BRANCH  12  15
HETATM   15  C   UNL     1     -41.447  54.468 -51.427  1.00  0.00     0.104 C 
BRANCH  15  16
HETATM   16  C   UNL     1     -42.544  54.507 -52.503  1.00  0.00     0.023 C 
BRANCH  16  17
HETATM   17  C   UNL     1     -42.117  54.800 -53.978  1.00  0.00    -0.020 C 
HETATM   18  C   UNL     1     -42.194  53.512 -54.830  1.00  0.00     0.020 C 
HETATM   19  C   UNL     1     -40.610  55.181 -53.956  1.00  0.00     0.020 C 
BRANCH  17  20
HETATM   20  C   UNL     1     -42.909  55.983 -54.563  1.00  0.00    -0.050 A 
HETATM   21  C   UNL     1     -44.263  56.207 -54.264  1.00  0.00     0.008 A 
HETATM   22  C   UNL     1     -44.963  57.282 -54.823  1.00  0.00     0.001 A 
HETATM   23  C   UNL     1     -44.324  58.160 -55.692  1.00  0.00     0.000 A 
HETATM   24  C   UNL     1     -42.982  57.968 -55.998  1.00  0.00     0.001 A 
HETATM   25  C   UNL     1     -42.284  56.894 -55.438  1.00  0.00     0.008 A 
ENDBRANCH  17  20
ENDBRANCH  16  17
ENDBRANCH  15  16
ENDBRANCH  12  15
ENDBRANCH   1  11
BRANCH   8  26
HETATM   26  C   UNL     1     -45.405  60.124 -52.380  1.00  0.00     0.270 C 
HETATM   27  N   UNL     1     -46.235  60.547 -53.382  1.00  0.00    -0.365 N 
HETATM   28  H   UNL     1     -45.826  60.822 -54.267  1.00  0.00     0.159 HD
HETATM   29  H   UNL     1     -47.224  60.635 -53.210  1.00  0.00     0.159 HD
HETATM   30  O   UNL     1     -45.842  59.816 -51.276  1.00  0.00    -0.266 OA
ENDBRANCH   8  26
TORSDOF 6
ENDMDL
MODEL 9
REMARK VINA RESULT:      -7.3      2.303      3.925
REMARK  6 active torsions:
REMARK  status: ('A' for Active; 'I' for Inactive)
REMARK    1  A    between atoms: C_2  and  C_3 
REMARK    2  A    between atoms: C_2  and  C_9 
REMARK    3  A    between atoms: C_9  and  C_10 
REMARK    4  A    between atoms: C_10  and  C_11 
REMARK       I    between atoms: C_11  and  N_12 
REMARK    5  A    between atoms: N_12  and  C_13 
REMARK    6  A    between atoms: C_20  and  C_21 
REMARK       I    between atoms: C_21  and  N_22 
ROOT
HETATM    1  C   UNL     1     -42.992  57.307 -51.005  1.00  0.00     0.035 A 
HETATM    2  C   UNL     1     -42.551  58.236 -51.958  1.00  0.00     0.046 A 
HETATM    3  C   UNL     1     -43.487  58.841 -52.819  1.00  0.00     0.030 A 
HETATM    4  C   UNL     1     -44.835  58.558 -52.649  1.00  0.00     0.063 A 
HETATM    5  N   UNL     1     -45.480  59.284 -53.611  1.00  0.00    -0.277 N 
HETATM    6  H   UNL     1     -46.478  59.329 -53.780  1.00  0.00     0.189 HD
HETATM    7  N   UNL     1     -44.665  59.986 -54.417  1.00  0.00    -0.168 NA
HETATM    8  C   UNL     1     -43.429  59.723 -53.937  1.00  0.00     0.156 A 
HETATM    9  C   UNL     1     -45.312  57.696 -51.658  1.00  0.00     0.034 A 
HETATM   10  C   UNL     1     -44.358  57.070 -50.841  1.00  0.00     0.032 A 
ENDROOT
BRANCH   1  11
HETATM   11  N   UNL     1     -42.003  56.677 -50.238  1.00  0.00    -0.327 N 
HETATM   12  C   UNL     1     -41.056  55.748 -50.556  1.00  0.00     0.222 C 
HETATM   13  O   UNL     1     -40.408  55.249 -49.631  1.00  0.00    -0.273 OA
HETATM   14  H   UNL     1     -41.881  57.013 -49.289  1.00  0.00     0.169 HD
BRANCH  12  15
HETATM   15  C   UNL     1     -40.731  55.383 -51.993  1.00  0.00     0.104 C 
BRANCH  15  16
HETATM   16  C   UNL     1     -41.648  54.356 -52.675  1.00  0.00     0.023 C 
BRANCH  16  17
HETATM   17  C   UNL     1     -41.105  53.607 -53.935  1.00  0.00    -0.020 C 
HETATM   18  C   UNL     1     -40.116  54.504 -54.714  1.00  0.00     0.020 C 
HETATM   19  C   UNL     1     -42.306  53.395 -54.900  1.00  0.00     0.020 C 
BRANCH  17  20
HETATM   20  C   UNL     1     -40.534  52.228 -53.560  1.00  0.00    -0.050 A 
HETATM   21  C   UNL     1     -40.034  51.940 -52.279  1.00  0.00     0.008 A 
HETATM   22  C   UNL     1     -39.505  50.682 -51.970  1.00  0.00     0.001 A 
HETATM   23  C   UNL     1     -39.467  49.681 -52.935  1.00  0.00     0.000 A 
HETATM   24  C   UNL     1     -39.963  49.935 -54.208  1.00  0.00     0.001 A 
HETATM   25  C   UNL     1     -40.491  51.192 -54.515  1.00  0.00     0.008 A 
ENDBRANCH  17  20
ENDBRANCH  16  17
ENDBRANCH  15  16
ENDBRANCH  12  15
ENDBRANCH   1  11
BRANCH   8  26
HETATM   26  C   UNL     1     -42.224  60.285 -54.562  1.00  0.00     0.270 C 
HETATM   27  N   UNL     1     -42.451  61.402 -55.317  1.00  0.00    -0.365 N 
HETATM   28  H   UNL     1     -43.401  61.742 -55.408  1.00  0.00     0.159 HD
HETATM   29  H   UNL     1     -41.689  61.833 -55.815  1.00  0.00     0.159 HD
HETATM   30  O   UNL     1     -41.099  59.808 -54.448  1.00  0.00    -0.266 OA
ENDBRANCH   8  26
TORSDOF 6
ENDMDL
MODEL 10
REMARK VINA RESULT:      -7.3      3.436      6.963
REMARK  6 active torsions:
REMARK  status: ('A' for Active; 'I' for Inactive)
REMARK    1  A    between atoms: C_2  and  C_3 
REMARK    2  A    between atoms: C_2  and  C_9 
REMARK    3  A    between atoms: C_9  and  C_10 
REMARK    4  A    between atoms: C_10  and  C_11 
REMARK       I    between atoms: C_11  and  N_12 
REMARK    5  A    between atoms: N_12  and  C_13 
REMARK    6  A    between atoms: C_20  and  C_21 
REMARK       I    between atoms: C_21  and  N_22 
ROOT
HETATM    1  C   UNL     1     -42.392  56.276 -56.604  1.00  0.00     0.035 A 
HETATM    2  C   UNL     1     -42.952  55.744 -57.773  1.00  0.00     0.046 A 
HETATM    3  C   UNL     1     -44.052  56.390 -58.370  1.00  0.00     0.030 A 
HETATM    4  C   UNL     1     -44.503  57.585 -57.826  1.00  0.00     0.063 A 
HETATM    5  N   UNL     1     -45.556  57.964 -58.611  1.00  0.00    -0.277 N 
HETATM    6  H   UNL     1     -46.126  58.797 -58.514  1.00  0.00     0.189 HD
HETATM    7  N   UNL     1     -45.853  57.101 -59.597  1.00  0.00    -0.168 NA
HETATM    8  C   UNL     1     -44.929  56.124 -59.462  1.00  0.00     0.156 A 
HETATM    9  C   UNL     1     -43.916  58.180 -56.706  1.00  0.00     0.034 A 
HETATM   10  C   UNL     1     -42.851  57.495 -56.102  1.00  0.00     0.032 A 
ENDROOT
BRANCH   1  11
HETATM   11  N   UNL     1     -41.357  55.539 -56.012  1.00  0.00    -0.327 N 
HETATM   12  C   UNL     1     -41.346  54.656 -54.973  1.00  0.00     0.222 C 
HETATM   13  O   UNL     1     -40.248  54.267 -54.561  1.00  0.00    -0.273 OA
HETATM   14  H   UNL     1     -40.452  55.576 -56.471  1.00  0.00     0.169 HD
BRANCH  12  15
HETATM   15  C   UNL     1     -42.622  54.087 -54.380  1.00  0.00     0.104 C 
BRANCH  15  16
HETATM   16  C   UNL     1     -43.340  54.943 -53.324  1.00  0.00     0.023 C 
BRANCH  16  17
HETATM   17  C   UNL     1     -42.700  55.047 -51.902  1.00  0.00    -0.020 C 
HETATM   18  C   UNL     1     -41.811  53.815 -51.617  1.00  0.00     0.020 C 
HETATM   19  C   UNL     1     -43.858  54.960 -50.867  1.00  0.00     0.020 C 
BRANCH  17  20
HETATM   20  C   UNL     1     -41.980  56.394 -51.713  1.00  0.00    -0.050 A 
HETATM   21  C   UNL     1     -41.182  56.672 -50.591  1.00  0.00     0.008 A 
HETATM   22  C   UNL     1     -40.551  57.912 -50.436  1.00  0.00     0.001 A 
HETATM   23  C   UNL     1     -40.703  58.901 -51.402  1.00  0.00     0.000 A 
HETATM   24  C   UNL     1     -41.479  58.649 -52.527  1.00  0.00     0.001 A 
HETATM   25  C   UNL     1     -42.107  57.411 -52.680  1.00  0.00     0.008 A 
ENDBRANCH  17  20
ENDBRANCH  16  17
ENDBRANCH  15  16
ENDBRANCH  12  15
ENDBRANCH   1  11
BRANCH   8  26
HETATM   26  C   UNL     1     -44.913  54.949 -60.344  1.00  0.00     0.270 C 
HETATM   27  N   UNL     1     -45.143  53.763 -59.703  1.00  0.00    -0.365 N 
HETATM   28  H   UNL     1     -45.284  53.772 -58.700  1.00  0.00     0.159 HD
HETATM   29  H   UNL     1     -45.113  52.899 -60.222  1.00  0.00     0.159 HD
HETATM   30  O   UNL     1     -44.699  54.992 -61.552  1.00  0.00    -0.266 OA
ENDBRANCH   8  26
TORSDOF 6
ENDMDL
