MODEL 1
REMARK VINA RESULT:      -7.9      0.000      0.000
REMARK  8 active torsions:
REMARK  status: ('A' for Active; 'I' for Inactive)
REMARK    1  A    between atoms: N_2  and  C_3 
REMARK    2  A    between atoms: C_6  and  N_7 
REMARK       I    between atoms: N_7  and  C_8 
REMARK    3  A    between atoms: C_8  and  C_9 
REMARK    4  A    between atoms: C_9  and  O_10 
REMARK    5  A    between atoms: O_10  and  C_11 
REMARK    6  A    between atoms: C_11  and  C_12 
REMARK    7  A    between atoms: C_13  and  N_14 
REMARK       I    between atoms: N_14  and  C_15 
REMARK    8  A    between atoms: C_15  and  C_16 
ROOT
HETATM    1  C   UNL     1     -42.305  59.796 -56.966  1.00  0.00     0.296 C 
HETATM    2  O   UNL     1     -43.204  58.974 -56.859  1.00  0.00    -0.259 OA
ENDROOT
BRANCH   1   3
HETATM    3  O   UNL     1     -41.621  60.370 -55.947  1.00  0.00    -0.308 OA
BRANCH   3   4
HETATM    4  C   UNL     1     -42.048  59.982 -54.643  1.00  0.00     0.282 C 
BRANCH   4   5
HETATM    5  C   UNL     1     -41.280  58.793 -54.051  1.00  0.00     0.246 C 
HETATM    6  N   UNL     1     -41.909  57.581 -54.274  1.00  0.00    -0.325 N 
HETATM    7  H   UNL     1     -42.836  57.634 -54.701  1.00  0.00     0.169 HD
HETATM    8  O   UNL     1     -40.214  58.964 -53.465  1.00  0.00    -0.271 OA
BRANCH   6   9
HETATM    9  C   UNL     1     -41.455  56.293 -53.935  1.00  0.00     0.034 A 
HETATM   10  C   UNL     1     -40.896  55.395 -54.839  1.00  0.00     0.032 A 
HETATM   11  C   UNL     1     -40.490  54.117 -54.420  1.00  0.00     0.031 A 
HETATM   12  C   UNL     1     -40.611  53.695 -53.088  1.00  0.00     0.029 A 
HETATM   13  C   UNL     1     -41.188  54.614 -52.197  1.00  0.00     0.031 A 
HETATM   14  C   UNL     1     -41.600  55.891 -52.608  1.00  0.00     0.032 A 
BRANCH  12  15
HETATM   15  N   UNL     1     -40.239  52.415 -52.647  1.00  0.00    -0.390 N 
HETATM   16  C   UNL     1     -39.845  52.328 -51.237  1.00  0.00     0.149 C 
HETATM   17  C   UNL     1     -39.445  51.577 -53.546  1.00  0.00     0.149 C 
ENDBRANCH  12  15
ENDBRANCH   6   9
ENDBRANCH   4   5
ENDBRANCH   3   4
ENDBRANCH   1   3
BRANCH   1  18
HETATM   18  C   UNL     1     -41.842  60.358 -58.251  1.00  0.00     0.066 A 
HETATM   19  C   UNL     1     -42.437  60.021 -59.480  1.00  0.00     0.051 A 
HETATM   20  C   UNL     1     -42.132  60.803 -60.606  1.00  0.00     0.030 A 
HETATM   21  C   UNL     1     -41.200  61.841 -60.534  1.00  0.00     0.002 A 
HETATM   22  C   UNL     1     -40.572  62.131 -59.327  1.00  0.00     0.001 A 
HETATM   23  C   UNL     1     -40.902  61.404 -58.185  1.00  0.00     0.020 A 
BRANCH  19  24
HETATM   24  N   UNL     1     -43.320  58.944 -59.713  1.00  0.00    -0.320 N 
HETATM   25  C   UNL     1     -42.987  57.682 -60.179  1.00  0.00     0.279 C 
HETATM   26  O   UNL     1     -41.851  57.323 -60.474  1.00  0.00    -0.265 OA
HETATM   27  H   UNL     1     -44.313  59.152 -59.765  1.00  0.00     0.169 HD
BRANCH  25  28
HETATM   28  C   UNL     1     -44.147  56.834 -60.382  1.00  0.00     0.142 A 
HETATM   29  O   UNL     1     -44.017  55.673 -61.106  1.00  0.00    -0.317 OA
HETATM   30  C   UNL     1     -45.237  55.076 -61.125  1.00  0.00     0.143 A 
HETATM   31  C   UNL     1     -46.151  55.822 -60.420  1.00  0.00     0.027 A 
HETATM   32  C   UNL     1     -45.452  56.955 -59.942  1.00  0.00     0.045 A 
ENDBRANCH  25  28
ENDBRANCH  19  24
ENDBRANCH   1  18
TORSDOF 8
ENDMDL
MODEL 2
REMARK VINA RESULT:      -7.7      4.096      8.239
REMARK  8 active torsions:
REMARK  status: ('A' for Active; 'I' for Inactive)
REMARK    1  A    between atoms: N_2  and  C_3 
REMARK    2  A    between atoms: C_6  and  N_7 
REMARK       I    between atoms: N_7  and  C_8 
REMARK    3  A    between atoms: C_8  and  C_9 
REMARK    4  A    between atoms: C_9  and  O_10 
REMARK    5  A    between atoms: O_10  and  C_11 
REMARK    6  A    between atoms: C_11  and  C_12 
REMARK    7  A    between atoms: C_13  and  N_14 
REMARK       I    between atoms: N_14  and  C_15 
REMARK    8  A    between atoms: C_15  and  C_16 
ROOT
HETATM    1  C   UNL     1     -40.246  53.132 -51.095  1.00  0.00     0.296 C 
HETATM    2  O   UNL     1     -39.239  53.675 -50.664  1.00  0.00    -0.259 OA
ENDROOT
BRANCH   1   3
HETATM    3  O   UNL     1     -41.520  53.388 -50.711  1.00  0.00    -0.308 OA
BRANCH   3   4
HETATM    4  C   UNL     1     -41.684  54.561 -49.917  1.00  0.00     0.282 C 
BRANCH   4   5
HETATM    5  C   UNL     1     -42.361  55.730 -50.644  1.00  0.00     0.246 C 
HETATM    6  N   UNL     1     -41.460  56.671 -51.109  1.00  0.00    -0.325 N 
HETATM    7  H   UNL     1     -40.487  56.530 -50.828  1.00  0.00     0.169 HD
HETATM    8  O   UNL     1     -43.582  55.761 -50.779  1.00  0.00    -0.271 OA
BRANCH   6   9
HETATM    9  C   UNL     1     -41.725  57.823 -51.873  1.00  0.00     0.034 A 
HETATM   10  C   UNL     1     -40.989  58.210 -52.988  1.00  0.00     0.032 A 
HETATM   11  C   UNL     1     -41.308  59.391 -53.680  1.00  0.00     0.031 A 
HETATM   12  C   UNL     1     -42.376  60.216 -53.296  1.00  0.00     0.029 A 
HETATM   13  C   UNL     1     -43.096  59.809 -52.161  1.00  0.00     0.031 A 
HETATM   14  C   UNL     1     -42.782  58.634 -51.462  1.00  0.00     0.032 A 
BRANCH  12  15
HETATM   15  N   UNL     1     -42.700  61.414 -53.952  1.00  0.00    -0.390 N 
HETATM   16  C   UNL     1     -43.551  62.334 -53.192  1.00  0.00     0.149 C 
HETATM   17  C   UNL     1     -43.001  61.361 -55.383  1.00  0.00     0.149 C 
ENDBRANCH  12  15
ENDBRANCH   6   9
ENDBRANCH   4   5
ENDBRANCH   3   4
ENDBRANCH   1   3
BRANCH   1  18
HETATM   18  C   UNL     1     -40.239  52.037 -52.087  1.00  0.00     0.066 A 
HETATM   19  C   UNL     1     -40.704  52.208 -53.403  1.00  0.00     0.051 A 
HETATM   20  C   UNL     1     -40.403  51.218 -54.352  1.00  0.00     0.030 A 
HETATM   21  C   UNL     1     -39.729  50.049 -53.988  1.00  0.00     0.002 A 
HETATM   22  C   UNL     1     -39.323  49.861 -52.671  1.00  0.00     0.001 A 
HETATM   23  C   UNL     1     -39.561  50.857 -51.726  1.00  0.00     0.020 A 
BRANCH  19  24
HETATM   24  N   UNL     1     -41.474  53.290 -53.882  1.00  0.00    -0.320 N 
HETATM   25  C   UNL     1     -41.029  54.349 -54.658  1.00  0.00     0.279 C 
HETATM   26  O   UNL     1     -39.870  54.502 -55.033  1.00  0.00    -0.265 OA
HETATM   27  H   UNL     1     -42.381  53.450 -53.453  1.00  0.00     0.169 HD
BRANCH  25  28
HETATM   28  C   UNL     1     -42.064  55.334 -54.912  1.00  0.00     0.142 A 
HETATM   29  O   UNL     1     -43.175  55.369 -54.105  1.00  0.00    -0.317 OA
HETATM   30  C   UNL     1     -43.960  56.383 -54.551  1.00  0.00     0.143 A 
HETATM   31  C   UNL     1     -43.376  57.011 -55.625  1.00  0.00     0.027 A 
HETATM   32  C   UNL     1     -42.155  56.335 -55.861  1.00  0.00     0.045 A 
ENDBRANCH  25  28
ENDBRANCH  19  24
ENDBRANCH   1  18
TORSDOF 8
ENDMDL
MODEL 3
REMARK VINA RESULT:      -7.5      3.658      6.827
REMARK  8 active torsions:
REMARK  status: ('A' for Active; 'I' for Inactive)
REMARK    1  A    between atoms: N_2  and  C_3 
REMARK    2  A    between atoms: C_6  and  N_7 
REMARK       I    between atoms: N_7  and  C_8 
REMARK    3  A    between atoms: C_8  and  C_9 
REMARK    4  A    between atoms: C_9  and  O_10 
REMARK    5  A    between atoms: O_10  and  C_11 
REMARK    6  A    between atoms: C_11  and  C_12 
REMARK    7  A    between atoms: C_13  and  N_14 
REMARK       I    between atoms: N_14  and  C_15 
REMARK    8  A    between atoms: C_15  and  C_16 
ROOT
HETATM    1  C   UNL     1     -42.126  59.535 -53.803  1.00  0.00     0.296 C 
HETATM    2  O   UNL     1     -40.965  59.579 -54.186  1.00  0.00    -0.259 OA
ENDROOT
BRANCH   1   3
HETATM    3  O   UNL     1     -43.141  58.869 -54.403  1.00  0.00    -0.308 OA
BRANCH   3   4
HETATM    4  C   UNL     1     -42.846  58.371 -55.706  1.00  0.00     0.282 C 
BRANCH   4   5
HETATM    5  C   UNL     1     -42.531  56.870 -55.755  1.00  0.00     0.246 C 
HETATM    6  N   UNL     1     -41.709  56.457 -54.722  1.00  0.00    -0.325 N 
HETATM    7  H   UNL     1     -41.335  57.201 -54.127  1.00  0.00     0.169 HD
HETATM    8  O   UNL     1     -43.004  56.158 -56.638  1.00  0.00    -0.271 OA
BRANCH   6   9
HETATM    9  C   UNL     1     -41.281  55.150 -54.422  1.00  0.00     0.034 A 
HETATM   10  C   UNL     1     -40.275  54.478 -55.107  1.00  0.00     0.032 A 
HETATM   11  C   UNL     1     -39.926  53.162 -54.756  1.00  0.00     0.031 A 
HETATM   12  C   UNL     1     -40.555  52.479 -53.704  1.00  0.00     0.029 A 
HETATM   13  C   UNL     1     -41.574  53.175 -53.035  1.00  0.00     0.031 A 
HETATM   14  C   UNL     1     -41.931  54.487 -53.381  1.00  0.00     0.032 A 
BRANCH  12  15
HETATM   15  N   UNL     1     -40.245  51.157 -53.350  1.00  0.00    -0.390 N 
HETATM   16  C   UNL     1     -39.448  51.006 -52.128  1.00  0.00     0.149 C 
HETATM   17  C   UNL     1     -39.895  50.218 -54.415  1.00  0.00     0.149 C 
ENDBRANCH  12  15
ENDBRANCH   6   9
ENDBRANCH   4   5
ENDBRANCH   3   4
ENDBRANCH   1   3
BRANCH   1  18
HETATM   18  C   UNL     1     -42.640  60.266 -52.627  1.00  0.00     0.066 A 
HETATM   19  C   UNL     1     -42.418  59.829 -51.309  1.00  0.00     0.051 A 
HETATM   20  C   UNL     1     -42.688  60.717 -50.255  1.00  0.00     0.030 A 
HETATM   21  C   UNL     1     -43.242  61.977 -50.496  1.00  0.00     0.002 A 
HETATM   22  C   UNL     1     -43.513  62.380 -51.799  1.00  0.00     0.001 A 
HETATM   23  C   UNL     1     -43.199  61.537 -52.863  1.00  0.00     0.020 A 
BRANCH  19  24
HETATM   24  N   UNL     1     -41.953  58.553 -50.920  1.00  0.00    -0.320 N 
HETATM   25  C   UNL     1     -42.661  57.363 -50.959  1.00  0.00     0.279 C 
HETATM   26  O   UNL     1     -43.826  57.254 -51.332  1.00  0.00    -0.265 OA
HETATM   27  H   UNL     1     -41.111  58.511 -50.354  1.00  0.00     0.169 HD
BRANCH  25  28
HETATM   28  C   UNL     1     -41.913  56.246 -50.412  1.00  0.00     0.142 A 
HETATM   29  O   UNL     1     -42.586  55.128 -49.981  1.00  0.00    -0.317 OA
HETATM   30  C   UNL     1     -41.653  54.245 -49.540  1.00  0.00     0.143 A 
HETATM   31  C   UNL     1     -40.389  54.765 -49.685  1.00  0.00     0.027 A 
HETATM   32  C   UNL     1     -40.554  56.054 -50.246  1.00  0.00     0.045 A 
ENDBRANCH  25  28
ENDBRANCH  19  24
ENDBRANCH   1  18
TORSDOF 8
ENDMDL
MODEL 4
REMARK VINA RESULT:      -7.4      2.337      4.215
REMARK  8 active torsions:
REMARK  status: ('A' for Active; 'I' for Inactive)
REMARK    1  A    between atoms: N_2  and  C_3 
REMARK    2  A    between atoms: C_6  and  N_7 
REMARK       I    between atoms: N_7  and  C_8 
REMARK    3  A    between atoms: C_8  and  C_9 
REMARK    4  A    between atoms: C_9  and  O_10 
REMARK    5  A    between atoms: O_10  and  C_11 
REMARK    6  A    between atoms: C_11  and  C_12 
REMARK    7  A    between atoms: C_13  and  N_14 
REMARK       I    between atoms: N_14  and  C_15 
REMARK    8  A    between atoms: C_15  and  C_16 
ROOT
HETATM    1  C   UNL     1     -42.329  59.526 -56.996  1.00  0.00     0.296 C 
HETATM    2  O   UNL     1     -41.274  60.143 -57.012  1.00  0.00    -0.259 OA
ENDROOT
BRANCH   1   3
HETATM    3  O   UNL     1     -43.141  59.358 -55.925  1.00  0.00    -0.308 OA
BRANCH   3   4
HETATM    4  C   UNL     1     -42.707  60.010 -54.734  1.00  0.00     0.282 C 
BRANCH   4   5
HETATM    5  C   UNL     1     -41.898  59.118 -53.782  1.00  0.00     0.246 C 
HETATM    6  N   UNL     1     -42.688  58.235 -53.069  1.00  0.00    -0.325 N 
HETATM    7  H   UNL     1     -43.698  58.352 -53.181  1.00  0.00     0.169 HD
HETATM    8  O   UNL     1     -40.675  59.217 -53.719  1.00  0.00    -0.271 OA
BRANCH   6   9
HETATM    9  C   UNL     1     -42.276  57.234 -52.169  1.00  0.00     0.034 A 
HETATM   10  C   UNL     1     -41.197  57.356 -51.300  1.00  0.00     0.032 A 
HETATM   11  C   UNL     1     -40.840  56.296 -50.450  1.00  0.00     0.031 A 
HETATM   12  C   UNL     1     -41.550  55.087 -50.426  1.00  0.00     0.029 A 
HETATM   13  C   UNL     1     -42.628  54.983 -51.320  1.00  0.00     0.031 A 
HETATM   14  C   UNL     1     -42.989  56.035 -52.175  1.00  0.00     0.032 A 
BRANCH  12  15
HETATM   15  N   UNL     1     -41.199  54.002 -49.607  1.00  0.00    -0.390 N 
HETATM   16  C   UNL     1     -40.686  54.359 -48.280  1.00  0.00     0.149 C 
HETATM   17  C   UNL     1     -40.525  52.859 -50.223  1.00  0.00     0.149 C 
ENDBRANCH  12  15
ENDBRANCH   6   9
ENDBRANCH   4   5
ENDBRANCH   3   4
ENDBRANCH   1   3
BRANCH   1  18
HETATM   18  C   UNL     1     -42.880  58.793 -58.155  1.00  0.00     0.066 A 
HETATM   19  C   UNL     1     -42.994  57.391 -58.176  1.00  0.00     0.051 A 
HETATM   20  C   UNL     1     -43.779  56.800 -59.179  1.00  0.00     0.030 A 
HETATM   21  C   UNL     1     -44.370  57.572 -60.184  1.00  0.00     0.002 A 
HETATM   22  C   UNL     1     -44.204  58.953 -60.188  1.00  0.00     0.001 A 
HETATM   23  C   UNL     1     -43.476  59.565 -59.170  1.00  0.00     0.020 A 
BRANCH  19  24
HETATM   24  N   UNL     1     -42.376  56.489 -57.282  1.00  0.00    -0.320 N 
HETATM   25  C   UNL     1     -42.863  56.071 -56.054  1.00  0.00     0.279 C 
HETATM   26  O   UNL     1     -43.919  56.448 -55.556  1.00  0.00    -0.265 OA
HETATM   27  H   UNL     1     -41.390  56.288 -57.423  1.00  0.00     0.169 HD
BRANCH  25  28
HETATM   28  C   UNL     1     -41.940  55.199 -55.352  1.00  0.00     0.142 A 
HETATM   29  O   UNL     1     -42.331  53.922 -55.027  1.00  0.00    -0.317 OA
HETATM   30  C   UNL     1     -41.283  53.331 -54.399  1.00  0.00     0.143 A 
HETATM   31  C   UNL     1     -40.217  54.195 -54.319  1.00  0.00     0.027 A 
HETATM   32  C   UNL     1     -40.638  55.399 -54.931  1.00  0.00     0.045 A 
ENDBRANCH  25  28
ENDBRANCH  19  24
ENDBRANCH   1  18
TORSDOF 8
ENDMDL
MODEL 5
REMARK VINA RESULT:      -7.4      2.641      8.717
REMARK  8 active torsions:
REMARK  status: ('A' for Active; 'I' for Inactive)
REMARK    1  A    between atoms: N_2  and  C_3 
REMARK    2  A    between atoms: C_6  and  N_7 
REMARK       I    between atoms: N_7  and  C_8 
REMARK    3  A    between atoms: C_8  and  C_9 
REMARK    4  A    between atoms: C_9  and  O_10 
REMARK    5  A    between atoms: O_10  and  C_11 
REMARK    6  A    between atoms: C_11  and  C_12 
REMARK    7  A    between atoms: C_13  and  N_14 
REMARK       I    between atoms: N_14  and  C_15 
REMARK    8  A    between atoms: C_15  and  C_16 
ROOT
HETATM    1  C   UNL     1     -41.065  53.569 -52.884  1.00  0.00     0.296 C 
HETATM    2  O   UNL     1     -40.223  52.901 -53.466  1.00  0.00    -0.259 OA
ENDROOT
BRANCH   1   3
HETATM    3  O   UNL     1     -42.262  53.961 -53.383  1.00  0.00    -0.308 OA
BRANCH   3   4
HETATM    4  C   UNL     1     -42.419  53.769 -54.788  1.00  0.00     0.282 C 
BRANCH   4   5
HETATM    5  C   UNL     1     -42.209  55.036 -55.627  1.00  0.00     0.246 C 
HETATM    6  N   UNL     1     -43.045  55.098 -56.728  1.00  0.00    -0.325 N 
HETATM    7  H   UNL     1     -43.612  54.264 -56.902  1.00  0.00     0.169 HD
HETATM    8  O   UNL     1     -41.380  55.879 -55.295  1.00  0.00    -0.271 OA
BRANCH   6   9
HETATM    9  C   UNL     1     -43.172  56.140 -57.665  1.00  0.00     0.034 A 
HETATM   10  C   UNL     1     -43.538  57.443 -57.344  1.00  0.00     0.032 A 
HETATM   11  C   UNL     1     -43.664  58.419 -58.348  1.00  0.00     0.031 A 
HETATM   12  C   UNL     1     -43.415  58.136 -59.699  1.00  0.00     0.029 A 
HETATM   13  C   UNL     1     -43.057  56.811 -59.999  1.00  0.00     0.031 A 
HETATM   14  C   UNL     1     -42.934  55.830 -59.004  1.00  0.00     0.032 A 
BRANCH  12  15
HETATM   15  N   UNL     1     -43.559  59.083 -60.724  1.00  0.00    -0.390 N 
HETATM   16  C   UNL     1     -42.373  59.904 -60.989  1.00  0.00     0.149 C 
HETATM   17  C   UNL     1     -44.826  59.808 -60.825  1.00  0.00     0.149 C 
ENDBRANCH  12  15
ENDBRANCH   6   9
ENDBRANCH   4   5
ENDBRANCH   3   4
ENDBRANCH   1   3
BRANCH   1  18
HETATM   18  C   UNL     1     -40.891  54.124 -51.526  1.00  0.00     0.066 A 
HETATM   19  C   UNL     1     -41.317  55.419 -51.179  1.00  0.00     0.051 A 
HETATM   20  C   UNL     1     -41.375  55.761 -49.818  1.00  0.00     0.030 A 
HETATM   21  C   UNL     1     -40.944  54.872 -48.830  1.00  0.00     0.002 A 
HETATM   22  C   UNL     1     -40.469  53.614 -49.185  1.00  0.00     0.001 A 
HETATM   23  C   UNL     1     -40.457  53.233 -50.526  1.00  0.00     0.020 A 
BRANCH  19  24
HETATM   24  N   UNL     1     -41.689  56.444 -52.076  1.00  0.00    -0.320 N 
HETATM   25  C   UNL     1     -41.175  57.730 -52.130  1.00  0.00     0.279 C 
HETATM   26  O   UNL     1     -40.313  58.170 -51.375  1.00  0.00    -0.265 OA
HETATM   27  H   UNL     1     -42.559  56.329 -52.589  1.00  0.00     0.169 HD
BRANCH  25  28
HETATM   28  C   UNL     1     -41.834  58.558 -53.122  1.00  0.00     0.142 A 
HETATM   29  O   UNL     1     -41.080  59.203 -54.072  1.00  0.00    -0.317 OA
HETATM   30  C   UNL     1     -41.942  59.884 -54.871  1.00  0.00     0.143 A 
HETATM   31  C   UNL     1     -43.239  59.685 -54.463  1.00  0.00     0.027 A 
HETATM   32  C   UNL     1     -43.172  58.833 -53.335  1.00  0.00     0.045 A 
ENDBRANCH  25  28
ENDBRANCH  19  24
ENDBRANCH   1  18
TORSDOF 8
ENDMDL
MODEL 6
REMARK VINA RESULT:      -7.3      3.555      8.848
REMARK  8 active torsions:
REMARK  status: ('A' for Active; 'I' for Inactive)
REMARK    1  A    between atoms: N_2  and  C_3 
REMARK    2  A    between atoms: C_6  and  N_7 
REMARK       I    between atoms: N_7  and  C_8 
REMARK    3  A    between atoms: C_8  and  C_9 
REMARK    4  A    between atoms: C_9  and  O_10 
REMARK    5  A    between atoms: O_10  and  C_11 
REMARK    6  A    between atoms: C_11  and  C_12 
REMARK    7  A    between atoms: C_13  and  N_14 
REMARK       I    between atoms: N_14  and  C_15 
REMARK    8  A    between atoms: C_15  and  C_16 
ROOT
HETATM    1  C   UNL     1     -40.947  53.665 -54.527  1.00  0.00     0.296 C 
HETATM    2  O   UNL     1     -40.212  53.942 -55.464  1.00  0.00    -0.259 OA
ENDROOT
BRANCH   1   3
HETATM    3  O   UNL     1     -42.283  53.880 -54.466  1.00  0.00    -0.308 OA
BRANCH   3   4
HETATM    4  C   UNL     1     -42.905  54.152 -55.720  1.00  0.00     0.282 C 
BRANCH   4   5
HETATM    5  C   UNL     1     -43.032  55.644 -56.054  1.00  0.00     0.246 C 
HETATM    6  N   UNL     1     -43.194  56.436 -54.932  1.00  0.00    -0.325 N 
HETATM    7  H   UNL     1     -43.312  55.936 -54.048  1.00  0.00     0.169 HD
HETATM    8  O   UNL     1     -42.973  56.033 -57.219  1.00  0.00    -0.271 OA
BRANCH   6   9
HETATM    9  C   UNL     1     -43.271  57.840 -54.865  1.00  0.00     0.034 A 
HETATM   10  C   UNL     1     -44.460  58.562 -54.872  1.00  0.00     0.032 A 
HETATM   11  C   UNL     1     -44.444  59.966 -54.825  1.00  0.00     0.031 A 
HETATM   12  C   UNL     1     -43.249  60.698 -54.754  1.00  0.00     0.029 A 
HETATM   13  C   UNL     1     -42.062  59.947 -54.760  1.00  0.00     0.031 A 
HETATM   14  C   UNL     1     -42.069  58.545 -54.810  1.00  0.00     0.032 A 
BRANCH  12  15
HETATM   15  N   UNL     1     -43.203  62.100 -54.734  1.00  0.00    -0.390 N 
HETATM   16  C   UNL     1     -43.813  62.730 -53.558  1.00  0.00     0.149 C 
HETATM   17  C   UNL     1     -43.434  62.819 -55.987  1.00  0.00     0.149 C 
ENDBRANCH  12  15
ENDBRANCH   6   9
ENDBRANCH   4   5
ENDBRANCH   3   4
ENDBRANCH   1   3
BRANCH   1  18
HETATM   18  C   UNL     1     -40.480  53.088 -53.249  1.00  0.00     0.066 A 
HETATM   19  C   UNL     1     -40.857  53.615 -52.001  1.00  0.00     0.051 A 
HETATM   20  C   UNL     1     -40.609  52.850 -50.850  1.00  0.00     0.030 A 
HETATM   21  C   UNL     1     -39.931  51.630 -50.925  1.00  0.00     0.002 A 
HETATM   22  C   UNL     1     -39.509  51.143 -52.158  1.00  0.00     0.001 A 
HETATM   23  C   UNL     1     -39.796  51.859 -53.318  1.00  0.00     0.020 A 
BRANCH  19  24
HETATM   24  N   UNL     1     -41.462  54.871 -51.772  1.00  0.00    -0.320 N 
HETATM   25  C   UNL     1     -42.784  55.107 -51.431  1.00  0.00     0.279 C 
HETATM   26  O   UNL     1     -43.637  54.235 -51.291  1.00  0.00    -0.265 OA
HETATM   27  H   UNL     1     -40.968  55.697 -52.096  1.00  0.00     0.169 HD
BRANCH  25  28
HETATM   28  C   UNL     1     -43.099  56.521 -51.347  1.00  0.00     0.142 A 
HETATM   29  O   UNL     1     -42.077  57.440 -51.326  1.00  0.00    -0.317 OA
HETATM   30  C   UNL     1     -42.649  58.670 -51.262  1.00  0.00     0.143 A 
HETATM   31  C   UNL     1     -44.019  58.567 -51.251  1.00  0.00     0.027 A 
HETATM   32  C   UNL     1     -44.311  57.183 -51.304  1.00  0.00     0.045 A 
ENDBRANCH  25  28
ENDBRANCH  19  24
ENDBRANCH   1  18
TORSDOF 8
ENDMDL
MODEL 7
REMARK VINA RESULT:      -7.3      2.715      8.925
REMARK  8 active torsions:
REMARK  status: ('A' for Active; 'I' for Inactive)
REMARK    1  A    between atoms: N_2  and  C_3 
REMARK    2  A    between atoms: C_6  and  N_7 
REMARK       I    between atoms: N_7  and  C_8 
REMARK    3  A    between atoms: C_8  and  C_9 
REMARK    4  A    between atoms: C_9  and  O_10 
REMARK    5  A    between atoms: O_10  and  C_11 
REMARK    6  A    between atoms: C_11  and  C_12 
REMARK    7  A    between atoms: C_13  and  N_14 
REMARK       I    between atoms: N_14  and  C_15 
REMARK    8  A    between atoms: C_15  and  C_16 
ROOT
HETATM    1  C   UNL     1     -41.691  56.119 -54.166  1.00  0.00     0.296 C 
HETATM    2  O   UNL     1     -41.031  57.142 -54.275  1.00  0.00    -0.259 OA
ENDROOT
BRANCH   1   3
HETATM    3  O   UNL     1     -41.754  55.108 -55.066  1.00  0.00    -0.308 OA
BRANCH   3   4
HETATM    4  C   UNL     1     -42.833  55.196 -55.994  1.00  0.00     0.282 C 
BRANCH   4   5
HETATM    5  C   UNL     1     -43.090  56.608 -56.536  1.00  0.00     0.246 C 
HETATM    6  N   UNL     1     -42.094  57.048 -57.389  1.00  0.00    -0.325 N 
HETATM    7  H   UNL     1     -41.277  56.439 -57.470  1.00  0.00     0.169 HD
HETATM    8  O   UNL     1     -44.104  57.226 -56.219  1.00  0.00    -0.271 OA
BRANCH   6   9
HETATM    9  C   UNL     1     -42.043  58.253 -58.114  1.00  0.00     0.034 A 
HETATM   10  C   UNL     1     -41.854  59.507 -57.541  1.00  0.00     0.032 A 
HETATM   11  C   UNL     1     -41.840  60.663 -58.339  1.00  0.00     0.031 A 
HETATM   12  C   UNL     1     -41.997  60.611 -59.732  1.00  0.00     0.029 A 
HETATM   13  C   UNL     1     -42.197  59.336 -60.285  1.00  0.00     0.031 A 
HETATM   14  C   UNL     1     -42.217  58.177 -59.496  1.00  0.00     0.032 A 
BRANCH  12  15
HETATM   15  N   UNL     1     -42.013  61.752 -60.549  1.00  0.00    -0.390 N 
HETATM   16  C   UNL     1     -41.680  61.518 -61.958  1.00  0.00     0.149 C 
HETATM   17  C   UNL     1     -41.481  63.002 -60.005  1.00  0.00     0.149 C 
ENDBRANCH  12  15
ENDBRANCH   6   9
ENDBRANCH   4   5
ENDBRANCH   3   4
ENDBRANCH   1   3
BRANCH   1  18
HETATM   18  C   UNL     1     -42.597  55.832 -53.035  1.00  0.00     0.066 A 
HETATM   19  C   UNL     1     -42.559  54.618 -52.326  1.00  0.00     0.051 A 
HETATM   20  C   UNL     1     -43.244  54.536 -51.103  1.00  0.00     0.030 A 
HETATM   21  C   UNL     1     -44.016  55.602 -50.635  1.00  0.00     0.002 A 
HETATM   22  C   UNL     1     -44.096  56.780 -51.371  1.00  0.00     0.001 A 
HETATM   23  C   UNL     1     -43.377  56.902 -52.558  1.00  0.00     0.020 A 
BRANCH  19  24
HETATM   24  N   UNL     1     -41.899  53.436 -52.729  1.00  0.00    -0.320 N 
HETATM   25  C   UNL     1     -40.638  53.012 -52.338  1.00  0.00     0.279 C 
HETATM   26  O   UNL     1     -39.898  53.630 -51.578  1.00  0.00    -0.265 OA
HETATM   27  H   UNL     1     -42.260  52.949 -53.545  1.00  0.00     0.169 HD
BRANCH  25  28
HETATM   28  C   UNL     1     -40.226  51.789 -53.001  1.00  0.00     0.142 A 
HETATM   29  O   UNL     1     -39.734  50.748 -52.251  1.00  0.00    -0.317 OA
HETATM   30  C   UNL     1     -39.445  49.738 -53.112  1.00  0.00     0.143 A 
HETATM   31  C   UNL     1     -39.748  50.101 -54.403  1.00  0.00     0.027 A 
HETATM   32  C   UNL     1     -40.250  51.422 -54.333  1.00  0.00     0.045 A 
ENDBRANCH  25  28
ENDBRANCH  19  24
ENDBRANCH   1  18
TORSDOF 8
ENDMDL
MODEL 8
REMARK VINA RESULT:      -7.3      2.644      9.317
REMARK  8 active torsions:
REMARK  status: ('A' for Active; 'I' for Inactive)
REMARK    1  A    between atoms: N_2  and  C_3 
REMARK    2  A    between atoms: C_6  and  N_7 
REMARK       I    between atoms: N_7  and  C_8 
REMARK    3  A    between atoms: C_8  and  C_9 
REMARK    4  A    between atoms: C_9  and  O_10 
REMARK    5  A    between atoms: O_10  and  C_11 
REMARK    6  A    between atoms: C_11  and  C_12 
REMARK    7  A    between atoms: C_13  and  N_14 
REMARK       I    between atoms: N_14  and  C_15 
REMARK    8  A    between atoms: C_15  and  C_16 
ROOT
HETATM    1  C   UNL     1     -42.428  54.503 -54.696  1.00  0.00     0.296 C 
HETATM    2  O   UNL     1     -43.585  54.668 -54.337  1.00  0.00    -0.259 OA
ENDROOT
BRANCH   1   3
HETATM    3  O   UNL     1     -41.898  54.874 -55.886  1.00  0.00    -0.308 OA
BRANCH   3   4
HETATM    4  C   UNL     1     -42.853  55.143 -56.910  1.00  0.00     0.282 C 
BRANCH   4   5
HETATM    5  C   UNL     1     -43.024  56.631 -57.243  1.00  0.00     0.246 C 
HETATM    6  N   UNL     1     -42.073  57.098 -58.132  1.00  0.00    -0.325 N 
HETATM    7  H   UNL     1     -41.328  56.440 -58.372  1.00  0.00     0.169 HD
HETATM    8  O   UNL     1     -43.942  57.282 -56.749  1.00  0.00    -0.271 OA
BRANCH   6   9
HETATM    9  C   UNL     1     -41.974  58.381 -58.703  1.00  0.00     0.034 A 
HETATM   10  C   UNL     1     -41.734  59.545 -57.981  1.00  0.00     0.032 A 
HETATM   11  C   UNL     1     -41.674  60.790 -58.629  1.00  0.00     0.031 A 
HETATM   12  C   UNL     1     -41.836  60.917 -60.017  1.00  0.00     0.029 A 
HETATM   13  C   UNL     1     -42.088  59.729 -60.723  1.00  0.00     0.031 A 
HETATM   14  C   UNL     1     -42.154  58.483 -60.083  1.00  0.00     0.032 A 
BRANCH  12  15
HETATM   15  N   UNL     1     -41.808  62.150 -60.687  1.00  0.00    -0.390 N 
HETATM   16  C   UNL     1     -40.753  62.290 -61.696  1.00  0.00     0.149 C 
HETATM   17  C   UNL     1     -42.064  63.365 -59.913  1.00  0.00     0.149 C 
ENDBRANCH  12  15
ENDBRANCH   6   9
ENDBRANCH   4   5
ENDBRANCH   3   4
ENDBRANCH   1   3
BRANCH   1  18
HETATM   18  C   UNL     1     -41.402  53.803 -53.895  1.00  0.00     0.066 A 
HETATM   19  C   UNL     1     -40.924  54.308 -52.672  1.00  0.00     0.051 A 
HETATM   20  C   UNL     1     -40.173  53.457 -51.845  1.00  0.00     0.030 A 
HETATM   21  C   UNL     1     -39.835  52.165 -52.256  1.00  0.00     0.002 A 
HETATM   22  C   UNL     1     -40.262  51.693 -53.492  1.00  0.00     0.001 A 
HETATM   23  C   UNL     1     -41.056  52.501 -54.303  1.00  0.00     0.020 A 
BRANCH  19  24
HETATM   24  N   UNL     1     -41.112  55.618 -52.180  1.00  0.00    -0.320 N 
HETATM   25  C   UNL     1     -42.179  56.077 -51.424  1.00  0.00     0.279 C 
HETATM   26  O   UNL     1     -43.139  55.394 -51.082  1.00  0.00    -0.265 OA
HETATM   27  H   UNL     1     -40.547  56.359 -52.585  1.00  0.00     0.169 HD
BRANCH  25  28
HETATM   28  C   UNL     1     -42.101  57.500 -51.149  1.00  0.00     0.142 A 
HETATM   29  O   UNL     1     -43.192  58.297 -51.400  1.00  0.00    -0.317 OA
HETATM   30  C   UNL     1     -42.853  59.563 -51.041  1.00  0.00     0.143 A 
HETATM   31  C   UNL     1     -41.568  59.599 -50.554  1.00  0.00     0.027 A 
HETATM   32  C   UNL     1     -41.082  58.272 -50.624  1.00  0.00     0.045 A 
ENDBRANCH  25  28
ENDBRANCH  19  24
ENDBRANCH   1  18
TORSDOF 8
ENDMDL
MODEL 9
REMARK VINA RESULT:      -7.3      4.234      6.727
REMARK  8 active torsions:
REMARK  status: ('A' for Active; 'I' for Inactive)
REMARK    1  A    between atoms: N_2  and  C_3 
REMARK    2  A    between atoms: C_6  and  N_7 
REMARK       I    between atoms: N_7  and  C_8 
REMARK    3  A    between atoms: C_8  and  C_9 
REMARK    4  A    between atoms: C_9  and  O_10 
REMARK    5  A    between atoms: O_10  and  C_11 
REMARK    6  A    between atoms: C_11  and  C_12 
REMARK    7  A    between atoms: C_13  and  N_14 
REMARK       I    between atoms: N_14  and  C_15 
REMARK    8  A    between atoms: C_15  and  C_16 
ROOT
HETATM    1  C   UNL     1     -41.959  59.357 -54.084  1.00  0.00     0.296 C 
HETATM    2  O   UNL     1     -41.504  59.854 -55.103  1.00  0.00    -0.259 OA
ENDROOT
BRANCH   1   3
HETATM    3  O   UNL     1     -43.068  58.583 -53.997  1.00  0.00    -0.308 OA
BRANCH   3   4
HETATM    4  C   UNL     1     -43.175  57.573 -54.997  1.00  0.00     0.282 C 
BRANCH   4   5
HETATM    5  C   UNL     1     -42.997  56.142 -54.475  1.00  0.00     0.246 C 
HETATM    6  N   UNL     1     -41.670  55.778 -54.339  1.00  0.00    -0.325 N 
HETATM    7  H   UNL     1     -40.987  56.451 -54.694  1.00  0.00     0.169 HD
HETATM    8  O   UNL     1     -43.974  55.446 -54.207  1.00  0.00    -0.271 OA
BRANCH   6   9
HETATM    9  C   UNL     1     -41.147  54.577 -53.825  1.00  0.00     0.034 A 
HETATM   10  C   UNL     1     -40.983  54.308 -52.470  1.00  0.00     0.032 A 
HETATM   11  C   UNL     1     -40.430  53.089 -52.044  1.00  0.00     0.031 A 
HETATM   12  C   UNL     1     -40.035  52.092 -52.949  1.00  0.00     0.029 A 
HETATM   13  C   UNL     1     -40.200  52.390 -54.311  1.00  0.00     0.031 A 
HETATM   14  C   UNL     1     -40.748  53.607 -54.745  1.00  0.00     0.032 A 
BRANCH  12  15
HETATM   15  N   UNL     1     -39.455  50.877 -52.552  1.00  0.00    -0.390 N 
HETATM   16  C   UNL     1     -39.587  49.777 -53.512  1.00  0.00     0.149 C 
HETATM   17  C   UNL     1     -39.586  50.471 -51.152  1.00  0.00     0.149 C 
ENDBRANCH  12  15
ENDBRANCH   6   9
ENDBRANCH   4   5
ENDBRANCH   3   4
ENDBRANCH   1   3
BRANCH   1  18
HETATM   18  C   UNL     1     -41.397  59.569 -52.734  1.00  0.00     0.066 A 
HETATM   19  C   UNL     1     -42.158  60.093 -51.673  1.00  0.00     0.051 A 
HETATM   20  C   UNL     1     -41.643  59.997 -50.370  1.00  0.00     0.030 A 
HETATM   21  C   UNL     1     -40.371  59.469 -50.133  1.00  0.00     0.002 A 
HETATM   22  C   UNL     1     -39.601  59.005 -51.194  1.00  0.00     0.001 A 
HETATM   23  C   UNL     1     -40.116  59.039 -52.488  1.00  0.00     0.020 A 
BRANCH  19  24
HETATM   24  N   UNL     1     -43.411  60.736 -51.782  1.00  0.00    -0.320 N 
HETATM   25  C   UNL     1     -44.648  60.207 -51.449  1.00  0.00     0.279 C 
HETATM   26  O   UNL     1     -44.830  59.073 -51.017  1.00  0.00    -0.265 OA
HETATM   27  H   UNL     1     -43.463  61.572 -52.356  1.00  0.00     0.169 HD
BRANCH  25  28
HETATM   28  C   UNL     1     -45.744  61.107 -51.758  1.00  0.00     0.142 A 
HETATM   29  O   UNL     1     -46.384  61.000 -52.969  1.00  0.00    -0.317 OA
HETATM   30  C   UNL     1     -47.366  61.939 -52.986  1.00  0.00     0.143 A 
HETATM   31  C   UNL     1     -47.380  62.645 -51.807  1.00  0.00     0.027 A 
HETATM   32  C   UNL     1     -46.335  62.112 -51.015  1.00  0.00     0.045 A 
ENDBRANCH  25  28
ENDBRANCH  19  24
ENDBRANCH   1  18
TORSDOF 8
ENDMDL
MODEL 10
REMARK VINA RESULT:      -7.2      1.940      4.174
REMARK  8 active torsions:
REMARK  status: ('A' for Active; 'I' for Inactive)
REMARK    1  A    between atoms: N_2  and  C_3 
REMARK    2  A    between atoms: C_6  and  N_7 
REMARK       I    between atoms: N_7  and  C_8 
REMARK    3  A    between atoms: C_8  and  C_9 
REMARK    4  A    between atoms: C_9  and  O_10 
REMARK    5  A    between atoms: O_10  and  C_11 
REMARK    6  A    between atoms: C_11  and  C_12 
REMARK    7  A    between atoms: C_13  and  N_14 
REMARK       I    between atoms: N_14  and  C_15 
REMARK    8  A    between atoms: C_15  and  C_16 
ROOT
HETATM    1  C   UNL     1     -42.489  59.015 -56.429  1.00  0.00     0.296 C 
HETATM    2  O   UNL     1     -41.664  59.914 -56.360  1.00  0.00    -0.259 OA
ENDROOT
BRANCH   1   3
HETATM    3  O   UNL     1     -43.345  58.637 -55.449  1.00  0.00    -0.308 OA
BRANCH   3   4
HETATM    4  C   UNL     1     -42.799  58.662 -54.133  1.00  0.00     0.282 C 
BRANCH   4   5
HETATM    5  C   UNL     1     -41.748  57.578 -53.861  1.00  0.00     0.246 C 
HETATM    6  N   UNL     1     -42.254  56.295 -53.977  1.00  0.00    -0.325 N 
HETATM    7  H   UNL     1     -43.264  56.228 -54.121  1.00  0.00     0.169 HD
HETATM    8  O   UNL     1     -40.589  57.882 -53.590  1.00  0.00    -0.271 OA
BRANCH   6   9
HETATM    9  C   UNL     1     -41.561  55.075 -53.866  1.00  0.00     0.034 A 
HETATM   10  C   UNL     1     -40.860  54.474 -54.906  1.00  0.00     0.032 A 
HETATM   11  C   UNL     1     -40.214  53.241 -54.715  1.00  0.00     0.031 A 
HETATM   12  C   UNL     1     -40.231  52.573 -53.481  1.00  0.00     0.029 A 
HETATM   13  C   UNL     1     -40.954  53.195 -52.450  1.00  0.00     0.031 A 
HETATM   14  C   UNL     1     -41.605  54.423 -52.634  1.00  0.00     0.032 A 
BRANCH  12  15
HETATM   15  N   UNL     1     -39.618  51.328 -53.269  1.00  0.00    -0.390 N 
HETATM   16  C   UNL     1     -40.003  50.273 -54.212  1.00  0.00     0.149 C 
HETATM   17  C   UNL     1     -39.441  50.868 -51.892  1.00  0.00     0.149 C 
ENDBRANCH  12  15
ENDBRANCH   6   9
ENDBRANCH   4   5
ENDBRANCH   3   4
ENDBRANCH   1   3
BRANCH   1  18
HETATM   18  C   UNL     1     -42.657  58.131 -57.601  1.00  0.00     0.066 A 
HETATM   19  C   UNL     1     -42.215  58.489 -58.887  1.00  0.00     0.051 A 
HETATM   20  C   UNL     1     -42.153  57.492 -59.874  1.00  0.00     0.030 A 
HETATM   21  C   UNL     1     -42.596  56.192 -59.617  1.00  0.00     0.002 A 
HETATM   22  C   UNL     1     -43.087  55.860 -58.359  1.00  0.00     0.001 A 
HETATM   23  C   UNL     1     -43.103  56.819 -57.348  1.00  0.00     0.020 A 
BRANCH  19  24
HETATM   24  N   UNL     1     -41.829  59.781 -59.307  1.00  0.00    -0.320 N 
HETATM   25  C   UNL     1     -42.625  60.721 -59.942  1.00  0.00     0.279 C 
HETATM   26  O   UNL     1     -43.801  60.550 -60.247  1.00  0.00    -0.265 OA
HETATM   27  H   UNL     1     -40.834  59.981 -59.363  1.00  0.00     0.169 HD
BRANCH  25  28
HETATM   28  C   UNL     1     -41.894  61.920 -60.309  1.00  0.00     0.142 A 
HETATM   29  O   UNL     1     -42.539  62.920 -60.996  1.00  0.00    -0.317 OA
HETATM   30  C   UNL     1     -41.636  63.916 -61.192  1.00  0.00     0.143 A 
HETATM   31  C   UNL     1     -40.423  63.585 -60.636  1.00  0.00     0.027 A 
HETATM   32  C   UNL     1     -40.587  62.300 -60.068  1.00  0.00     0.045 A 
ENDBRANCH  25  28
ENDBRANCH  19  24
ENDBRANCH   1  18
TORSDOF 8
ENDMDL
