MODEL 1
REMARK VINA RESULT:      -8.4      0.000      0.000
REMARK  4 active torsions:
REMARK  status: ('A' for Active; 'I' for Inactive)
REMARK    1  A    between atoms: O_2  and  C_3 
REMARK    2  A    between atoms: C_5  and  C_6 
REMARK    3  A    between atoms: C_10  and  N_11 
REMARK    4  A    between atoms: C_14  and  C_15 
ROOT
HETATM    1  C   UNL     1     -43.304  57.017 -55.769  1.00  0.00     0.164 C 
HETATM    2  N   UNL     1     -42.756  58.172 -55.071  1.00  0.00    -0.074 N 
HETATM    3  C   UNL     1     -41.677  58.128 -54.229  1.00  0.00     0.736 A 
HETATM    4  N   UNL     1     -41.412  59.341 -53.820  1.00  0.00     0.131 NA
HETATM    5  C   UNL     1     -42.395  60.085 -54.404  1.00  0.00     0.753 A 
HETATM    6  N   UNL     1     -43.235  59.420 -55.194  1.00  0.00     0.037 NA
HETATM    7  N   UNL     1     -41.060  56.963 -53.942  1.00  0.00    -0.214 N 
HETATM    8  C   UNL     1     -41.340  55.780 -54.748  1.00  0.00     0.135 C 
HETATM    9  C   UNL     1     -42.843  55.718 -55.079  1.00  0.00     0.063 C 
HETATM   10  H   UNL     1     -40.132  57.020 -53.528  1.00  0.00     0.178 HD
ENDROOT
BRANCH   1  11
HETATM   11  C   UNL     1     -42.962  57.005 -57.258  1.00  0.00    -0.030 A 
HETATM   12  C   UNL     1     -43.479  56.045 -58.153  1.00  0.00     0.046 A 
HETATM   13  C   UNL     1     -43.198  56.111 -59.520  1.00  0.00     0.068 A 
HETATM   14  C   UNL     1     -42.381  57.133 -60.002  1.00  0.00     0.037 A 
HETATM   15  C   UNL     1     -41.855  58.087 -59.133  1.00  0.00     0.003 A 
HETATM   16  C   UNL     1     -42.148  58.028 -57.771  1.00  0.00     0.009 A 
BRANCH  13  17
HETATM   17  O   UNL     1     -43.661  55.249 -60.477  1.00  0.00    -0.356 OA
HETATM   18  C   UNL     1     -44.896  54.594 -60.214  1.00  0.00     0.210 C 
ENDBRANCH  13  17
ENDBRANCH   1  11
BRANCH   8  19
HETATM   19  C   UNL     1     -40.894  54.517 -54.032  1.00  0.00    -0.035 A 
HETATM   20  C   UNL     1     -40.377  53.409 -54.724  1.00  0.00     0.010 A 
HETATM   21  C   UNL     1     -39.963  52.266 -54.034  1.00  0.00     0.019 A 
HETATM   22  C   UNL     1     -40.047  52.228 -52.645  1.00  0.00     0.011 A 
HETATM   23 BR   UNL     1     -39.485  50.684 -51.711  1.00  0.00    -0.051 Br
HETATM   24  C   UNL     1     -40.539  53.323 -51.938  1.00  0.00     0.019 A 
HETATM   25  C   UNL     1     -40.959  54.462 -52.628  1.00  0.00     0.010 A 
ENDBRANCH   8  19
BRANCH   5  26
HETATM   26  N   UNL     1     -42.420  61.395 -54.180  1.00  0.00    -0.229 N 
HETATM   27  H   UNL     1     -43.329  61.830 -54.105  1.00  0.00     0.174 HD
HETATM   28  H   UNL     1     -41.711  61.769 -53.564  1.00  0.00     0.174 HD
ENDBRANCH   5  26
TORSDOF 4
ENDMDL
MODEL 2
REMARK VINA RESULT:      -8.1      0.977      2.025
REMARK  4 active torsions:
REMARK  status: ('A' for Active; 'I' for Inactive)
REMARK    1  A    between atoms: O_2  and  C_3 
REMARK    2  A    between atoms: C_5  and  C_6 
REMARK    3  A    between atoms: C_10  and  N_11 
REMARK    4  A    between atoms: C_14  and  C_15 
ROOT
HETATM    1  C   UNL     1     -43.339  57.010 -55.762  1.00  0.00     0.164 C 
HETATM    2  N   UNL     1     -42.759  58.193 -55.141  1.00  0.00    -0.074 N 
HETATM    3  C   UNL     1     -41.650  58.182 -54.338  1.00  0.00     0.736 A 
HETATM    4  N   UNL     1     -41.363  59.411 -53.999  1.00  0.00     0.131 NA
HETATM    5  C   UNL     1     -42.362  60.134 -54.582  1.00  0.00     0.753 A 
HETATM    6  N   UNL     1     -43.235  59.437 -55.307  1.00  0.00     0.037 NA
HETATM    7  N   UNL     1     -41.029  57.028 -54.017  1.00  0.00    -0.214 N 
HETATM    8  C   UNL     1     -41.346  55.809 -54.753  1.00  0.00     0.135 C 
HETATM    9  C   UNL     1     -42.861  55.743 -55.026  1.00  0.00     0.063 C 
HETATM   10  H   UNL     1     -40.087  57.098 -53.640  1.00  0.00     0.178 HD
ENDROOT
BRANCH   1  11
HETATM   11  C   UNL     1     -43.053  56.923 -57.259  1.00  0.00    -0.030 A 
HETATM   12  C   UNL     1     -42.520  57.998 -58.000  1.00  0.00     0.046 A 
HETATM   13  C   UNL     1     -42.207  57.855 -59.354  1.00  0.00     0.068 A 
HETATM   14  C   UNL     1     -42.439  56.633 -59.984  1.00  0.00     0.037 A 
HETATM   15  C   UNL     1     -42.972  55.560 -59.272  1.00  0.00     0.003 A 
HETATM   16  C   UNL     1     -43.271  55.701 -57.918  1.00  0.00     0.009 A 
BRANCH  13  17
HETATM   17  O   UNL     1     -41.668  58.821 -60.160  1.00  0.00    -0.356 OA
HETATM   18  C   UNL     1     -42.118  60.155 -59.959  1.00  0.00     0.210 C 
ENDBRANCH  13  17
ENDBRANCH   1  11
BRANCH   8  19
HETATM   19  C   UNL     1     -40.881  54.579 -53.994  1.00  0.00    -0.035 A 
HETATM   20  C   UNL     1     -40.917  54.509 -52.591  1.00  0.00     0.010 A 
HETATM   21  C   UNL     1     -40.494  53.357 -51.922  1.00  0.00     0.019 A 
HETATM   22  C   UNL     1     -40.047  52.259 -52.652  1.00  0.00     0.011 A 
HETATM   23 BR   UNL     1     -39.476  50.699 -51.749  1.00  0.00    -0.051 Br
HETATM   24  C   UNL     1     -40.019  52.301 -54.044  1.00  0.00     0.019 A 
HETATM   25  C   UNL     1     -40.436  53.455 -54.711  1.00  0.00     0.010 A 
ENDBRANCH   8  19
BRANCH   5  26
HETATM   26  N   UNL     1     -42.372  61.453 -54.422  1.00  0.00    -0.229 N 
HETATM   27  H   UNL     1     -42.003  62.010 -55.179  1.00  0.00     0.174 HD
HETATM   28  H   UNL     1     -43.167  61.851 -53.941  1.00  0.00     0.174 HD
ENDBRANCH   5  26
TORSDOF 4
ENDMDL
MODEL 3
REMARK VINA RESULT:      -8.0      2.303      3.182
REMARK  4 active torsions:
REMARK  status: ('A' for Active; 'I' for Inactive)
REMARK    1  A    between atoms: O_2  and  C_3 
REMARK    2  A    between atoms: C_5  and  C_6 
REMARK    3  A    between atoms: C_10  and  N_11 
REMARK    4  A    between atoms: C_14  and  C_15 
ROOT
HETATM    1  C   UNL     1     -43.563  56.523 -54.050  1.00  0.00     0.164 C 
HETATM    2  N   UNL     1     -43.231  57.295 -52.861  1.00  0.00    -0.074 N 
HETATM    3  C   UNL     1     -42.208  56.994 -52.002  1.00  0.00     0.736 A 
HETATM    4  N   UNL     1     -42.146  57.918 -51.079  1.00  0.00     0.131 NA
HETATM    5  C   UNL     1     -43.191  58.737 -51.393  1.00  0.00     0.753 A 
HETATM    6  N   UNL     1     -43.878  58.410 -52.485  1.00  0.00     0.037 NA
HETATM    7  N   UNL     1     -41.446  55.895 -52.178  1.00  0.00    -0.214 N 
HETATM    8  C   UNL     1     -41.504  55.173 -53.445  1.00  0.00     0.135 C 
HETATM    9  C   UNL     1     -42.960  55.108 -53.943  1.00  0.00     0.063 C 
HETATM   10  H   UNL     1     -40.563  55.858 -51.676  1.00  0.00     0.178 HD
ENDROOT
BRANCH   1  11
HETATM   11  C   UNL     1     -43.137  57.211 -55.345  1.00  0.00    -0.030 A 
HETATM   12  C   UNL     1     -42.581  58.507 -55.375  1.00  0.00     0.046 A 
HETATM   13  C   UNL     1     -42.138  59.072 -56.574  1.00  0.00     0.068 A 
HETATM   14  C   UNL     1     -42.264  58.348 -57.759  1.00  0.00     0.037 A 
HETATM   15  C   UNL     1     -42.818  57.070 -57.752  1.00  0.00     0.003 A 
HETATM   16  C   UNL     1     -43.246  56.502 -56.553  1.00  0.00     0.009 A 
BRANCH  13  17
HETATM   17  O   UNL     1     -41.566  60.307 -56.715  1.00  0.00    -0.356 OA
HETATM   18  C   UNL     1     -41.484  60.834 -58.034  1.00  0.00     0.210 C 
ENDBRANCH  13  17
ENDBRANCH   1  11
BRANCH   8  19
HETATM   19  C   UNL     1     -40.922  53.778 -53.301  1.00  0.00    -0.035 A 
HETATM   20  C   UNL     1     -40.388  53.311 -52.088  1.00  0.00     0.010 A 
HETATM   21  C   UNL     1     -39.871  52.017 -51.986  1.00  0.00     0.019 A 
HETATM   22  C   UNL     1     -39.899  51.172 -53.093  1.00  0.00     0.011 A 
HETATM   23 BR   UNL     1     -39.203  49.420 -52.955  1.00  0.00    -0.051 Br
HETATM   24  C   UNL     1     -40.440  51.608 -54.300  1.00  0.00     0.019 A 
HETATM   25  C   UNL     1     -40.950  52.904 -54.403  1.00  0.00     0.010 A 
ENDBRANCH   8  19
BRANCH   5  26
HETATM   26  N   UNL     1     -43.420  59.799 -50.627  1.00  0.00    -0.229 N 
HETATM   27  H   UNL     1     -44.383  60.003 -50.400  1.00  0.00     0.174 HD
HETATM   28  H   UNL     1     -42.755  59.985 -49.889  1.00  0.00     0.174 HD
ENDBRANCH   5  26
TORSDOF 4
ENDMDL
MODEL 4
REMARK VINA RESULT:      -7.9      3.723      5.531
REMARK  4 active torsions:
REMARK  status: ('A' for Active; 'I' for Inactive)
REMARK    1  A    between atoms: O_2  and  C_3 
REMARK    2  A    between atoms: C_5  and  C_6 
REMARK    3  A    between atoms: C_10  and  N_11 
REMARK    4  A    between atoms: C_14  and  C_15 
ROOT
HETATM    1  C   UNL     1     -41.464  57.988 -53.994  1.00  0.00     0.164 C 
HETATM    2  N   UNL     1     -42.873  57.907 -54.351  1.00  0.00    -0.074 N 
HETATM    3  C   UNL     1     -43.635  56.774 -54.246  1.00  0.00     0.736 A 
HETATM    4  N   UNL     1     -44.864  57.059 -54.588  1.00  0.00     0.131 NA
HETATM    5  C   UNL     1     -44.788  58.374 -54.943  1.00  0.00     0.753 A 
HETATM    6  N   UNL     1     -43.594  58.946 -54.801  1.00  0.00     0.037 NA
HETATM    7  N   UNL     1     -43.099  55.605 -53.840  1.00  0.00    -0.214 N 
HETATM    8  C   UNL     1     -41.777  55.593 -53.223  1.00  0.00     0.135 C 
HETATM    9  C   UNL     1     -40.848  56.575 -53.962  1.00  0.00     0.063 C 
HETATM   10  H   UNL     1     -43.745  54.878 -53.541  1.00  0.00     0.178 HD
ENDROOT
BRANCH   1  11
HETATM   11  C   UNL     1     -41.224  58.728 -52.680  1.00  0.00    -0.030 A 
HETATM   12  C   UNL     1     -42.253  59.383 -51.972  1.00  0.00     0.046 A 
HETATM   13  C   UNL     1     -42.005  59.989 -50.738  1.00  0.00     0.068 A 
HETATM   14  C   UNL     1     -40.716  59.956 -50.207  1.00  0.00     0.037 A 
HETATM   15  C   UNL     1     -39.684  59.321 -50.893  1.00  0.00     0.003 A 
HETATM   16  C   UNL     1     -39.936  58.706 -52.119  1.00  0.00     0.009 A 
BRANCH  13  17
HETATM   17  O   UNL     1     -42.929  60.630 -49.959  1.00  0.00    -0.356 OA
HETATM   18  C   UNL     1     -44.271  60.649 -50.430  1.00  0.00     0.210 C 
ENDBRANCH  13  17
ENDBRANCH   1  11
BRANCH   8  19
HETATM   19  C   UNL     1     -41.189  54.192 -53.225  1.00  0.00    -0.035 A 
HETATM   20  C   UNL     1     -40.538  53.654 -52.102  1.00  0.00     0.010 A 
HETATM   21  C   UNL     1     -40.019  52.357 -52.132  1.00  0.00     0.019 A 
HETATM   22  C   UNL     1     -40.163  51.580 -53.280  1.00  0.00     0.011 A 
HETATM   23 BR   UNL     1     -39.464  49.825 -53.320  1.00  0.00    -0.051 Br
HETATM   24  C   UNL     1     -40.821  52.088 -54.397  1.00  0.00     0.019 A 
HETATM   25  C   UNL     1     -41.333  53.387 -54.369  1.00  0.00     0.010 A 
ENDBRANCH   8  19
BRANCH   5  26
HETATM   26  N   UNL     1     -45.892  58.986 -55.359  1.00  0.00    -0.229 N 
HETATM   27  H   UNL     1     -45.779  59.725 -56.039  1.00  0.00     0.174 HD
HETATM   28  H   UNL     1     -46.717  58.415 -55.477  1.00  0.00     0.174 HD
ENDBRANCH   5  26
TORSDOF 4
ENDMDL
MODEL 5
REMARK VINA RESULT:      -7.6      3.907      6.718
REMARK  4 active torsions:
REMARK  status: ('A' for Active; 'I' for Inactive)
REMARK    1  A    between atoms: O_2  and  C_3 
REMARK    2  A    between atoms: C_5  and  C_6 
REMARK    3  A    between atoms: C_10  and  N_11 
REMARK    4  A    between atoms: C_14  and  C_15 
ROOT
HETATM    1  C   UNL     1     -43.426  55.186 -53.704  1.00  0.00     0.164 C 
HETATM    2  N   UNL     1     -43.089  55.757 -55.001  1.00  0.00    -0.074 N 
HETATM    3  C   UNL     1     -42.726  57.062 -55.203  1.00  0.00     0.736 A 
HETATM    4  N   UNL     1     -42.433  57.226 -56.467  1.00  0.00     0.131 NA
HETATM    5  C   UNL     1     -42.683  55.998 -57.004  1.00  0.00     0.753 A 
HETATM    6  N   UNL     1     -43.072  55.057 -56.147  1.00  0.00     0.037 NA
HETATM    7  N   UNL     1     -42.706  57.948 -54.187  1.00  0.00    -0.214 N 
HETATM    8  C   UNL     1     -42.780  57.470 -52.811  1.00  0.00     0.135 C 
HETATM    9  C   UNL     1     -43.790  56.311 -52.715  1.00  0.00     0.063 C 
HETATM   10  H   UNL     1     -42.196  58.815 -54.339  1.00  0.00     0.178 HD
ENDROOT
BRANCH   1  11
HETATM   11  C   UNL     1     -42.325  54.290 -53.143  1.00  0.00    -0.030 A 
HETATM   12  C   UNL     1     -41.557  53.426 -53.951  1.00  0.00     0.046 A 
HETATM   13  C   UNL     1     -40.511  52.674 -53.409  1.00  0.00     0.068 A 
HETATM   14  C   UNL     1     -40.234  52.771 -52.046  1.00  0.00     0.037 A 
HETATM   15  C   UNL     1     -40.985  53.613 -51.229  1.00  0.00     0.003 A 
HETATM   16  C   UNL     1     -42.020  54.372 -51.774  1.00  0.00     0.009 A 
BRANCH  13  17
HETATM   17  O   UNL     1     -39.692  51.824 -54.101  1.00  0.00    -0.356 OA
HETATM   18  C   UNL     1     -40.128  50.477 -54.242  1.00  0.00     0.210 C 
ENDBRANCH  13  17
ENDBRANCH   1  11
BRANCH   8  19
HETATM   19  C   UNL     1     -43.160  58.596 -51.865  1.00  0.00    -0.035 A 
HETATM   20  C   UNL     1     -42.215  59.513 -51.376  1.00  0.00     0.010 A 
HETATM   21  C   UNL     1     -42.600  60.545 -50.517  1.00  0.00     0.019 A 
HETATM   22  C   UNL     1     -43.937  60.680 -50.152  1.00  0.00     0.011 A 
HETATM   23 BR   UNL     1     -44.459  62.077 -48.991  1.00  0.00    -0.051 Br
HETATM   24  C   UNL     1     -44.894  59.792 -50.639  1.00  0.00     0.019 A 
HETATM   25  C   UNL     1     -44.507  58.756 -51.493  1.00  0.00     0.010 A 
ENDBRANCH   8  19
BRANCH   5  26
HETATM   26  N   UNL     1     -42.488  55.821 -58.307  1.00  0.00    -0.229 N 
HETATM   27  H   UNL     1     -42.284  54.882 -58.618  1.00  0.00     0.174 HD
HETATM   28  H   UNL     1     -43.062  56.367 -58.935  1.00  0.00     0.174 HD
ENDBRANCH   5  26
TORSDOF 4
ENDMDL
MODEL 6
REMARK VINA RESULT:      -7.5      4.071      6.917
REMARK  4 active torsions:
REMARK  status: ('A' for Active; 'I' for Inactive)
REMARK    1  A    between atoms: O_2  and  C_3 
REMARK    2  A    between atoms: C_5  and  C_6 
REMARK    3  A    between atoms: C_10  and  N_11 
REMARK    4  A    between atoms: C_14  and  C_15 
ROOT
HETATM    1  C   UNL     1     -43.241  55.077 -53.993  1.00  0.00     0.164 C 
HETATM    2  N   UNL     1     -42.987  55.685 -55.292  1.00  0.00    -0.074 N 
HETATM    3  C   UNL     1     -42.690  57.008 -55.483  1.00  0.00     0.736 A 
HETATM    4  N   UNL     1     -42.460  57.208 -56.755  1.00  0.00     0.131 NA
HETATM    5  C   UNL     1     -42.680  55.979 -57.305  1.00  0.00     0.753 A 
HETATM    6  N   UNL     1     -42.990  55.007 -56.450  1.00  0.00     0.037 NA
HETATM    7  N   UNL     1     -42.663  57.876 -54.452  1.00  0.00    -0.214 N 
HETATM    8  C   UNL     1     -42.655  57.371 -53.083  1.00  0.00     0.135 C 
HETATM    9  C   UNL     1     -43.609  56.167 -52.966  1.00  0.00     0.063 C 
HETATM   10  H   UNL     1     -42.198  58.767 -54.608  1.00  0.00     0.178 HD
ENDROOT
BRANCH   1  11
HETATM   11  C   UNL     1     -42.078  54.220 -53.498  1.00  0.00    -0.030 A 
HETATM   12  C   UNL     1     -41.813  54.008 -52.129  1.00  0.00     0.046 A 
HETATM   13  C   UNL     1     -40.781  53.160 -51.719  1.00  0.00     0.068 A 
HETATM   14  C   UNL     1     -39.994  52.526 -52.680  1.00  0.00     0.037 A 
HETATM   15  C   UNL     1     -40.235  52.728 -54.037  1.00  0.00     0.003 A 
HETATM   16  C   UNL     1     -41.273  53.564 -54.445  1.00  0.00     0.009 A 
BRANCH  13  17
HETATM   17  O   UNL     1     -40.450  52.866 -50.424  1.00  0.00    -0.356 OA
HETATM   18  C   UNL     1     -39.860  53.908 -49.655  1.00  0.00     0.210 C 
ENDBRANCH  13  17
ENDBRANCH   1  11
BRANCH   8  19
HETATM   19  C   UNL     1     -43.041  58.461 -52.100  1.00  0.00    -0.035 A 
HETATM   20  C   UNL     1     -42.108  59.390 -51.609  1.00  0.00     0.010 A 
HETATM   21  C   UNL     1     -42.499  60.390 -50.714  1.00  0.00     0.019 A 
HETATM   22  C   UNL     1     -43.830  60.480 -50.315  1.00  0.00     0.011 A 
HETATM   23 BR   UNL     1     -44.360  61.833 -49.106  1.00  0.00    -0.051 Br
HETATM   24  C   UNL     1     -44.775  59.580 -50.803  1.00  0.00     0.019 A 
HETATM   25  C   UNL     1     -44.382  58.577 -51.692  1.00  0.00     0.010 A 
ENDBRANCH   8  19
BRANCH   5  26
HETATM   26  N   UNL     1     -42.537  55.835 -58.618  1.00  0.00    -0.229 N 
HETATM   27  H   UNL     1     -41.614  55.598 -58.956  1.00  0.00     0.174 HD
HETATM   28  H   UNL     1     -43.302  55.406 -59.119  1.00  0.00     0.174 HD
ENDBRANCH   5  26
TORSDOF 4
ENDMDL
MODEL 7
REMARK VINA RESULT:      -7.5      3.038      5.142
REMARK  4 active torsions:
REMARK  status: ('A' for Active; 'I' for Inactive)
REMARK    1  A    between atoms: O_2  and  C_3 
REMARK    2  A    between atoms: C_5  and  C_6 
REMARK    3  A    between atoms: C_10  and  N_11 
REMARK    4  A    between atoms: C_14  and  C_15 
ROOT
HETATM    1  C   UNL     1     -41.551  57.141 -54.700  1.00  0.00     0.164 C 
HETATM    2  N   UNL     1     -42.179  56.707 -55.941  1.00  0.00    -0.074 N 
HETATM    3  C   UNL     1     -42.510  55.411 -56.230  1.00  0.00     0.736 A 
HETATM    4  N   UNL     1     -43.108  55.378 -57.392  1.00  0.00     0.131 NA
HETATM    5  C   UNL     1     -43.071  56.681 -57.795  1.00  0.00     0.753 A 
HETATM    6  N   UNL     1     -42.527  57.540 -56.936  1.00  0.00     0.037 NA
HETATM    7  N   UNL     1     -42.222  54.407 -55.377  1.00  0.00    -0.214 N 
HETATM    8  C   UNL     1     -41.823  54.716 -54.008  1.00  0.00     0.135 C 
HETATM    9  C   UNL     1     -40.886  55.938 -54.001  1.00  0.00     0.063 C 
HETATM   10  H   UNL     1     -42.706  53.524 -55.520  1.00  0.00     0.178 HD
ENDROOT
BRANCH   1  11
HETATM   11  C   UNL     1     -42.519  57.860 -53.763  1.00  0.00    -0.030 A 
HETATM   12  C   UNL     1     -42.089  58.602 -52.643  1.00  0.00     0.046 A 
HETATM   13  C   UNL     1     -43.002  59.304 -51.851  1.00  0.00     0.068 A 
HETATM   14  C   UNL     1     -44.359  59.256 -52.167  1.00  0.00     0.037 A 
HETATM   15  C   UNL     1     -44.805  58.523 -53.265  1.00  0.00     0.003 A 
HETATM   16  C   UNL     1     -43.892  57.835 -54.062  1.00  0.00     0.009 A 
BRANCH  13  17
HETATM   17  O   UNL     1     -42.695  60.069 -50.760  1.00  0.00    -0.356 OA
HETATM   18  C   UNL     1     -41.380  59.944 -50.231  1.00  0.00     0.210 C 
ENDBRANCH  13  17
ENDBRANCH   1  11
BRANCH   8  19
HETATM   19  C   UNL     1     -41.153  53.520 -53.355  1.00  0.00    -0.035 A 
HETATM   20  C   UNL     1     -40.665  52.435 -54.103  1.00  0.00     0.010 A 
HETATM   21  C   UNL     1     -40.042  51.355 -53.472  1.00  0.00     0.019 A 
HETATM   22  C   UNL     1     -39.886  51.359 -52.088  1.00  0.00     0.011 A 
HETATM   23 BR   UNL     1     -39.041  49.900 -51.233  1.00  0.00    -0.051 Br
HETATM   24  C   UNL     1     -40.346  52.432 -51.329  1.00  0.00     0.019 A 
HETATM   25  C   UNL     1     -40.975  53.508 -51.960  1.00  0.00     0.010 A 
ENDBRANCH   8  19
BRANCH   5  26
HETATM   26  N   UNL     1     -43.602  57.000 -58.971  1.00  0.00    -0.229 N 
HETATM   27  H   UNL     1     -44.269  57.759 -58.983  1.00  0.00     0.174 HD
HETATM   28  H   UNL     1     -42.996  56.945 -59.778  1.00  0.00     0.174 HD
ENDBRANCH   5  26
TORSDOF 4
ENDMDL
MODEL 8
REMARK VINA RESULT:      -7.5      3.864      6.728
REMARK  4 active torsions:
REMARK  status: ('A' for Active; 'I' for Inactive)
REMARK    1  A    between atoms: O_2  and  C_3 
REMARK    2  A    between atoms: C_5  and  C_6 
REMARK    3  A    between atoms: C_10  and  N_11 
REMARK    4  A    between atoms: C_14  and  C_15 
ROOT
HETATM    1  C   UNL     1     -40.968  57.065 -53.956  1.00  0.00     0.164 C 
HETATM    2  N   UNL     1     -41.482  57.792 -52.803  1.00  0.00    -0.074 N 
HETATM    3  C   UNL     1     -42.765  58.256 -52.689  1.00  0.00     0.736 A 
HETATM    4  N   UNL     1     -42.911  58.806 -51.512  1.00  0.00     0.131 NA
HETATM    5  C   UNL     1     -41.667  58.695 -50.963  1.00  0.00     0.753 A 
HETATM    6  N   UNL     1     -40.758  58.067 -51.706  1.00  0.00     0.037 NA
HETATM    7  N   UNL     1     -43.654  58.111 -53.693  1.00  0.00    -0.214 N 
HETATM    8  C   UNL     1     -43.358  57.201 -54.793  1.00  0.00     0.135 C 
HETATM    9  C   UNL     1     -41.871  57.316 -55.180  1.00  0.00     0.063 C 
HETATM   10  H   UNL     1     -44.637  58.241 -53.463  1.00  0.00     0.178 HD
ENDROOT
BRANCH   1  11
HETATM   11  C   UNL     1     -40.797  55.571 -53.690  1.00  0.00    -0.030 A 
HETATM   12  C   UNL     1     -41.060  54.983 -52.435  1.00  0.00     0.046 A 
HETATM   13  C   UNL     1     -40.958  53.601 -52.252  1.00  0.00     0.068 A 
HETATM   14  C   UNL     1     -40.577  52.796 -53.325  1.00  0.00     0.037 A 
HETATM   15  C   UNL     1     -40.306  53.358 -54.571  1.00  0.00     0.003 A 
HETATM   16  C   UNL     1     -40.421  54.735 -54.755  1.00  0.00     0.009 A 
BRANCH  13  17
HETATM   17  O   UNL     1     -41.209  52.925 -51.090  1.00  0.00    -0.356 OA
HETATM   18  C   UNL     1     -40.220  52.000 -50.653  1.00  0.00     0.210 C 
ENDBRANCH  13  17
ENDBRANCH   1  11
BRANCH   8  19
HETATM   19  C   UNL     1     -44.249  57.486 -55.989  1.00  0.00    -0.035 A 
HETATM   20  C   UNL     1     -45.510  58.092 -55.854  1.00  0.00     0.010 A 
HETATM   21  C   UNL     1     -46.300  58.352 -56.977  1.00  0.00     0.019 A 
HETATM   22  C   UNL     1     -45.829  58.025 -58.246  1.00  0.00     0.011 A 
HETATM   23 BR   UNL     1     -46.896  58.379 -59.766  1.00  0.00    -0.051 Br
HETATM   24  C   UNL     1     -44.574  57.441 -58.404  1.00  0.00     0.019 A 
HETATM   25  C   UNL     1     -43.788  57.174 -57.280  1.00  0.00     0.010 A 
ENDBRANCH   8  19
BRANCH   5  26
HETATM   26  N   UNL     1     -41.464  59.176 -49.741  1.00  0.00    -0.229 N 
HETATM   27  H   UNL     1     -42.136  59.846 -49.394  1.00  0.00     0.174 HD
HETATM   28  H   UNL     1     -41.100  58.535 -49.050  1.00  0.00     0.174 HD
ENDBRANCH   5  26
TORSDOF 4
ENDMDL
MODEL 9
REMARK VINA RESULT:      -7.4      3.030      5.180
REMARK  4 active torsions:
REMARK  status: ('A' for Active; 'I' for Inactive)
REMARK    1  A    between atoms: O_2  and  C_3 
REMARK    2  A    between atoms: C_5  and  C_6 
REMARK    3  A    between atoms: C_10  and  N_11 
REMARK    4  A    between atoms: C_14  and  C_15 
ROOT
HETATM    1  C   UNL     1     -41.235  59.119 -53.795  1.00  0.00     0.164 C 
HETATM    2  N   UNL     1     -41.781  59.220 -55.141  1.00  0.00    -0.074 N 
HETATM    3  C   UNL     1     -42.179  58.151 -55.898  1.00  0.00     0.736 A 
HETATM    4  N   UNL     1     -42.673  58.594 -57.025  1.00  0.00     0.131 NA
HETATM    5  C   UNL     1     -42.506  59.944 -56.926  1.00  0.00     0.753 A 
HETATM    6  N   UNL     1     -41.978  60.382 -55.785  1.00  0.00     0.037 NA
HETATM    7  N   UNL     1     -42.041  56.886 -55.452  1.00  0.00    -0.214 N 
HETATM    8  C   UNL     1     -41.743  56.647 -54.044  1.00  0.00     0.135 C 
HETATM    9  C   UNL     1     -40.723  57.687 -53.542  1.00  0.00     0.063 C 
HETATM   10  H   UNL     1     -42.574  56.165 -55.931  1.00  0.00     0.178 HD
ENDROOT
BRANCH   1  11
HETATM   11  C   UNL     1     -42.226  59.551 -52.717  1.00  0.00    -0.030 A 
HETATM   12  C   UNL     1     -43.623  59.428 -52.868  1.00  0.00     0.046 A 
HETATM   13  C   UNL     1     -44.493  59.770 -51.830  1.00  0.00     0.068 A 
HETATM   14  C   UNL     1     -43.969  60.255 -50.631  1.00  0.00     0.037 A 
HETATM   15  C   UNL     1     -42.593  60.392 -50.464  1.00  0.00     0.003 A 
HETATM   16  C   UNL     1     -41.726  60.037 -51.497  1.00  0.00     0.009 A 
BRANCH  13  17
HETATM   17  O   UNL     1     -45.857  59.671 -51.860  1.00  0.00    -0.356 OA
HETATM   18  C   UNL     1     -46.587  60.867 -52.104  1.00  0.00     0.210 C 
ENDBRANCH  13  17
ENDBRANCH   1  11
BRANCH   8  19
HETATM   19  C   UNL     1     -41.222  55.236 -53.831  1.00  0.00    -0.035 A 
HETATM   20  C   UNL     1     -41.296  54.592 -52.585  1.00  0.00     0.010 A 
HETATM   21  C   UNL     1     -40.819  53.288 -52.425  1.00  0.00     0.019 A 
HETATM   22  C   UNL     1     -40.279  52.611 -53.516  1.00  0.00     0.011 A 
HETATM   23 BR   UNL     1     -39.636  50.847 -53.302  1.00  0.00    -0.051 Br
HETATM   24  C   UNL     1     -40.213  53.224 -54.765  1.00  0.00     0.019 A 
HETATM   25  C   UNL     1     -40.683  54.530 -54.922  1.00  0.00     0.010 A 
ENDBRANCH   8  19
BRANCH   5  26
HETATM   26  N   UNL     1     -42.906  60.711 -57.935  1.00  0.00    -0.229 N 
HETATM   27  H   UNL     1     -43.896  60.905 -57.999  1.00  0.00     0.174 HD
HETATM   28  H   UNL     1     -42.300  61.475 -58.200  1.00  0.00     0.174 HD
ENDBRANCH   5  26
TORSDOF 4
ENDMDL
MODEL 10
REMARK VINA RESULT:      -7.4      4.105      7.252
REMARK  4 active torsions:
REMARK  status: ('A' for Active; 'I' for Inactive)
REMARK    1  A    between atoms: O_2  and  C_3 
REMARK    2  A    between atoms: C_5  and  C_6 
REMARK    3  A    between atoms: C_10  and  N_11 
REMARK    4  A    between atoms: C_14  and  C_15 
ROOT
HETATM    1  C   UNL     1     -42.537  54.948 -53.083  1.00  0.00     0.164 C 
HETATM    2  N   UNL     1     -41.553  53.975 -53.535  1.00  0.00    -0.074 N 
HETATM    3  C   UNL     1     -41.091  53.880 -54.821  1.00  0.00     0.736 A 
HETATM    4  N   UNL     1     -40.176  52.948 -54.872  1.00  0.00     0.131 NA
HETATM    5  C   UNL     1     -40.153  52.467 -53.595  1.00  0.00     0.753 A 
HETATM    6  N   UNL     1     -40.966  53.072 -52.732  1.00  0.00     0.037 NA
HETATM    7  N   UNL     1     -41.570  54.677 -55.798  1.00  0.00    -0.214 N 
HETATM    8  C   UNL     1     -42.369  55.846 -55.448  1.00  0.00     0.135 C 
HETATM    9  C   UNL     1     -43.323  55.500 -54.289  1.00  0.00     0.063 C 
HETATM   10  H   UNL     1     -41.025  54.740 -56.653  1.00  0.00     0.178 HD
ENDROOT
BRANCH   1  11
HETATM   11  C   UNL     1     -41.924  56.076 -52.257  1.00  0.00    -0.030 A 
HETATM   12  C   UNL     1     -41.740  57.380 -52.763  1.00  0.00     0.046 A 
HETATM   13  C   UNL     1     -41.239  58.402 -51.952  1.00  0.00     0.068 A 
HETATM   14  C   UNL     1     -40.903  58.122 -50.628  1.00  0.00     0.037 A 
HETATM   15  C   UNL     1     -41.071  56.839 -50.111  1.00  0.00     0.003 A 
HETATM   16  C   UNL     1     -41.583  55.824 -50.918  1.00  0.00     0.009 A 
BRANCH  13  17
HETATM   17  O   UNL     1     -41.041  59.702 -52.330  1.00  0.00    -0.356 OA
HETATM   18  C   UNL     1     -42.009  60.278 -53.200  1.00  0.00     0.210 C 
ENDBRANCH  13  17
ENDBRANCH   1  11
BRANCH   8  19
HETATM   19  C   UNL     1     -43.145  56.353 -56.651  1.00  0.00    -0.035 A 
HETATM   20  C   UNL     1     -43.104  55.703 -57.896  1.00  0.00     0.010 A 
HETATM   21  C   UNL     1     -43.840  56.188 -58.979  1.00  0.00     0.019 A 
HETATM   22  C   UNL     1     -44.638  57.319 -58.823  1.00  0.00     0.011 A 
HETATM   23 BR   UNL     1     -45.636  57.975 -60.288  1.00  0.00    -0.051 Br
HETATM   24  C   UNL     1     -44.707  57.969 -57.593  1.00  0.00     0.019 A 
HETATM   25  C   UNL     1     -43.966  57.487 -56.512  1.00  0.00     0.010 A 
ENDBRANCH   8  19
BRANCH   5  26
HETATM   26  N   UNL     1     -39.315  51.479 -53.302  1.00  0.00    -0.229 N 
HETATM   27  H   UNL     1     -39.529  50.567 -53.681  1.00  0.00     0.174 HD
HETATM   28  H   UNL     1     -38.331  51.708 -53.261  1.00  0.00     0.174 HD
ENDBRANCH   5  26
TORSDOF 4
ENDMDL
