MODEL 1
REMARK VINA RESULT:      -6.9      0.000      0.000
REMARK  10 active torsions:
REMARK  status: ('A' for Active; 'I' for Inactive)
REMARK    1  A    between atoms: C_2  and  C_3 
REMARK    2  A    between atoms: C_3  and  C_4 
REMARK       I    between atoms: C_4  and  N_5 
REMARK    3  A    between atoms: N_5  and  C_6 
REMARK    4  A    between atoms: C_6  and  N_7 
REMARK    5  A    between atoms: C_6  and  C_21 
REMARK    6  A    between atoms: N_7  and  C_8 
REMARK    7  A    between atoms: C_8  and  N_9 
REMARK    8  A    between atoms: N_9  and  N_10 
REMARK       I    between atoms: N_10  and  C_11 
REMARK    9  A    between atoms: C_11  and  C_12 
REMARK   10  A    between atoms: C_13  and  O_14 
ROOT
HETATM    1  C   UNL     1     -43.626  55.833 -53.197  1.00  0.00     0.188 C 
HETATM    2  S   UNL     1     -43.748  57.334 -52.464  1.00  0.00    -0.039 SA
ENDROOT
BRANCH   1   3
HETATM    3  N   UNL     1     -42.818  54.911 -52.618  1.00  0.00    -0.341 N 
HETATM    4  H   UNL     1     -43.316  54.138 -52.183  1.00  0.00     0.164 HD
BRANCH   3   5
HETATM    5  C   UNL     1     -41.404  54.969 -52.264  1.00  0.00     0.241 C 
BRANCH   5   6
HETATM    6  N   UNL     1     -40.738  53.854 -52.933  1.00  0.00    -0.336 N 
HETATM    7  C   UNL     1     -40.649  53.725 -54.293  1.00  0.00     0.219 C 
HETATM    8  O   UNL     1     -41.118  54.551 -55.067  1.00  0.00    -0.274 OA
HETATM    9  H   UNL     1     -40.217  53.209 -52.355  1.00  0.00     0.164 HD
BRANCH   7  10
HETATM   10  C   UNL     1     -39.899  52.499 -54.770  1.00  0.00     0.102 C 
BRANCH  10  11
HETATM   11  C   UNL     1     -39.910  51.360 -53.755  1.00  0.00     0.005 C 
HETATM   12  C   UNL     1     -39.887  49.978 -54.393  1.00  0.00     0.005 C 
ENDBRANCH  10  11
ENDBRANCH   7  10
ENDBRANCH   5   6
BRANCH   5  13
HETATM   13  C   UNL     1     -41.103  55.183 -50.712  1.00  0.00     0.226 C 
HETATM   14 CL   UNL     1     -40.805  56.923 -50.344  1.00  0.00    -0.080 Cl
HETATM   15 CL   UNL     1     -42.565  54.701 -49.751  1.00  0.00    -0.080 Cl
HETATM   16 CL   UNL     1     -39.738  54.209 -50.084  1.00  0.00    -0.080 Cl
ENDBRANCH   5  13
ENDBRANCH   3   5
ENDBRANCH   1   3
BRANCH   1  17
HETATM   17  N   UNL     1     -44.278  55.479 -54.347  1.00  0.00    -0.274 N 
HETATM   18  H   UNL     1     -45.291  55.417 -54.412  1.00  0.00     0.189 HD
BRANCH  17  19
HETATM   19  N   UNL     1     -43.659  55.649 -55.593  1.00  0.00    -0.264 N 
HETATM   20  C   UNL     1     -43.924  56.803 -56.300  1.00  0.00     0.272 C 
HETATM   21  O   UNL     1     -44.732  57.647 -55.909  1.00  0.00    -0.266 OA
HETATM   22  H   UNL     1     -43.084  54.880 -55.929  1.00  0.00     0.190 HD
BRANCH  20  23
HETATM   23  C   UNL     1     -43.215  56.992 -57.592  1.00  0.00     0.066 A 
HETATM   24  C   UNL     1     -43.307  55.999 -58.580  1.00  0.00     0.081 A 
HETATM   25  C   UNL     1     -42.644  56.147 -59.797  1.00  0.00     0.037 A 
HETATM   26  C   UNL     1     -41.900  57.299 -60.049  1.00  0.00     0.003 A 
HETATM   27  C   UNL     1     -41.824  58.305 -59.088  1.00  0.00     0.001 A 
HETATM   28  C   UNL     1     -42.480  58.156 -57.862  1.00  0.00     0.020 A 
BRANCH  24  29
HETATM   29  O   UNL     1     -44.033  54.849 -58.425  1.00  0.00    -0.360 OA
HETATM   30  H   UNL     1     -44.428  54.857 -57.525  1.00  0.00     0.217 HD
ENDBRANCH  24  29
ENDBRANCH  20  23
ENDBRANCH  17  19
ENDBRANCH   1  17
TORSDOF 10
ENDMDL
MODEL 2
REMARK VINA RESULT:      -6.8      3.778      6.570
REMARK  10 active torsions:
REMARK  status: ('A' for Active; 'I' for Inactive)
REMARK    1  A    between atoms: C_2  and  C_3 
REMARK    2  A    between atoms: C_3  and  C_4 
REMARK       I    between atoms: C_4  and  N_5 
REMARK    3  A    between atoms: N_5  and  C_6 
REMARK    4  A    between atoms: C_6  and  N_7 
REMARK    5  A    between atoms: C_6  and  C_21 
REMARK    6  A    between atoms: N_7  and  C_8 
REMARK    7  A    between atoms: C_8  and  N_9 
REMARK    8  A    between atoms: N_9  and  N_10 
REMARK       I    between atoms: N_10  and  C_11 
REMARK    9  A    between atoms: C_11  and  C_12 
REMARK   10  A    between atoms: C_13  and  O_14 
ROOT
HETATM    1  C   UNL     1     -44.622  57.503 -55.546  1.00  0.00     0.188 C 
HETATM    2  S   UNL     1     -44.356  59.148 -55.381  1.00  0.00    -0.039 SA
ENDROOT
BRANCH   1   3
HETATM    3  N   UNL     1     -44.407  56.948 -56.764  1.00  0.00    -0.341 N 
HETATM    4  H   UNL     1     -45.190  56.399 -57.113  1.00  0.00     0.164 HD
BRANCH   3   5
HETATM    5  C   UNL     1     -43.176  56.759 -57.524  1.00  0.00     0.241 C 
BRANCH   5   6
HETATM    6  N   UNL     1     -42.115  56.450 -56.571  1.00  0.00    -0.336 N 
HETATM    7  C   UNL     1     -42.055  55.290 -55.847  1.00  0.00     0.219 C 
HETATM    8  O   UNL     1     -42.894  54.403 -55.949  1.00  0.00    -0.274 OA
HETATM    9  H   UNL     1     -41.323  57.078 -56.536  1.00  0.00     0.164 HD
BRANCH   7  10
HETATM   10  C   UNL     1     -40.856  55.170 -54.929  1.00  0.00     0.102 C 
BRANCH  10  11
HETATM   11  C   UNL     1     -40.092  53.861 -55.113  1.00  0.00     0.005 C 
HETATM   12  C   UNL     1     -40.334  52.856 -53.996  1.00  0.00     0.005 C 
ENDBRANCH  10  11
ENDBRANCH   7  10
ENDBRANCH   5   6
BRANCH   5  13
HETATM   13  C   UNL     1     -42.880  57.880 -58.620  1.00  0.00     0.226 C 
HETATM   14 CL   UNL     1     -41.741  59.123 -57.984  1.00  0.00    -0.080 Cl
HETATM   15 CL   UNL     1     -42.058  57.115 -60.046  1.00  0.00    -0.080 Cl
HETATM   16 CL   UNL     1     -44.344  58.695 -59.254  1.00  0.00    -0.080 Cl
ENDBRANCH   5  13
ENDBRANCH   3   5
ENDBRANCH   1   3
BRANCH   1  17
HETATM   17  N   UNL     1     -45.053  56.685 -54.538  1.00  0.00    -0.274 N 
HETATM   18  H   UNL     1     -45.975  56.256 -54.529  1.00  0.00     0.189 HD
BRANCH  17  19
HETATM   19  N   UNL     1     -44.128  56.010 -53.728  1.00  0.00    -0.264 N 
HETATM   20  C   UNL     1     -43.902  56.494 -52.456  1.00  0.00     0.272 C 
HETATM   21  O   UNL     1     -44.427  57.526 -52.038  1.00  0.00    -0.266 OA
HETATM   22  H   UNL     1     -43.636  55.226 -54.149  1.00  0.00     0.190 HD
BRANCH  20  23
HETATM   23  C   UNL     1     -42.961  55.733 -51.593  1.00  0.00     0.066 A 
HETATM   24  C   UNL     1     -42.155  56.423 -50.675  1.00  0.00     0.081 A 
HETATM   25  C   UNL     1     -41.258  55.734 -49.861  1.00  0.00     0.037 A 
HETATM   26  C   UNL     1     -41.173  54.344 -49.939  1.00  0.00     0.003 A 
HETATM   27  C   UNL     1     -41.988  53.644 -50.826  1.00  0.00     0.001 A 
HETATM   28  C   UNL     1     -42.883  54.333 -51.652  1.00  0.00     0.020 A 
BRANCH  24  29
HETATM   29  O   UNL     1     -42.191  57.783 -50.518  1.00  0.00    -0.360 OA
HETATM   30  H   UNL     1     -41.336  58.068 -50.129  1.00  0.00     0.217 HD
ENDBRANCH  24  29
ENDBRANCH  20  23
ENDBRANCH  17  19
ENDBRANCH   1  17
TORSDOF 10
ENDMDL
MODEL 3
REMARK VINA RESULT:      -6.7      1.462      1.892
REMARK  10 active torsions:
REMARK  status: ('A' for Active; 'I' for Inactive)
REMARK    1  A    between atoms: C_2  and  C_3 
REMARK    2  A    between atoms: C_3  and  C_4 
REMARK       I    between atoms: C_4  and  N_5 
REMARK    3  A    between atoms: N_5  and  C_6 
REMARK    4  A    between atoms: C_6  and  N_7 
REMARK    5  A    between atoms: C_6  and  C_21 
REMARK    6  A    between atoms: N_7  and  C_8 
REMARK    7  A    between atoms: C_8  and  N_9 
REMARK    8  A    between atoms: N_9  and  N_10 
REMARK       I    between atoms: N_10  and  C_11 
REMARK    9  A    between atoms: C_11  and  C_12 
REMARK   10  A    between atoms: C_13  and  O_14 
ROOT
HETATM    1  C   UNL     1     -43.199  55.966 -54.438  1.00  0.00     0.188 C 
HETATM    2  S   UNL     1     -44.415  57.113 -54.324  1.00  0.00    -0.039 SA
ENDROOT
BRANCH   1   3
HETATM    3  N   UNL     1     -42.951  55.198 -53.349  1.00  0.00    -0.341 N 
HETATM    4  H   UNL     1     -43.753  54.656 -53.033  1.00  0.00     0.164 HD
BRANCH   3   5
HETATM    5  C   UNL     1     -41.849  55.222 -52.394  1.00  0.00     0.241 C 
BRANCH   5   6
HETATM    6  N   UNL     1     -41.243  53.893 -52.391  1.00  0.00    -0.336 N 
HETATM    7  C   UNL     1     -40.474  53.403 -53.412  1.00  0.00     0.219 C 
HETATM    8  O   UNL     1     -40.223  54.053 -54.419  1.00  0.00    -0.274 OA
HETATM    9  H   UNL     1     -41.301  53.358 -51.534  1.00  0.00     0.164 HD
BRANCH   7  10
HETATM   10  C   UNL     1     -39.932  52.007 -53.190  1.00  0.00     0.102 C 
BRANCH  10  11
HETATM   11  C   UNL     1     -40.438  51.000 -54.220  1.00  0.00     0.005 C 
HETATM   12  C   UNL     1     -39.484  49.837 -54.450  1.00  0.00     0.005 C 
ENDBRANCH  10  11
ENDBRANCH   7  10
ENDBRANCH   5   6
BRANCH   5  13
HETATM   13  C   UNL     1     -42.191  55.881 -50.982  1.00  0.00     0.226 C 
HETATM   14 CL   UNL     1     -41.666  57.605 -50.928  1.00  0.00    -0.080 Cl
HETATM   15 CL   UNL     1     -43.990  55.887 -50.749  1.00  0.00    -0.080 Cl
HETATM   16 CL   UNL     1     -41.499  55.013 -49.577  1.00  0.00    -0.080 Cl
ENDBRANCH   5  13
ENDBRANCH   3   5
ENDBRANCH   1   3
BRANCH   1  17
HETATM   17  N   UNL     1     -42.433  55.760 -55.553  1.00  0.00    -0.274 N 
HETATM   18  H   UNL     1     -42.288  54.841 -55.963  1.00  0.00     0.189 HD
BRANCH  17  19
HETATM   19  N   UNL     1     -42.205  56.806 -56.459  1.00  0.00    -0.264 N 
HETATM   20  C   UNL     1     -42.779  56.719 -57.710  1.00  0.00     0.272 C 
HETATM   21  O   UNL     1     -43.418  55.732 -58.078  1.00  0.00    -0.266 OA
HETATM   22  H   UNL     1     -41.583  57.550 -56.154  1.00  0.00     0.190 HD
BRANCH  20  23
HETATM   23  C   UNL     1     -42.574  57.862 -58.637  1.00  0.00     0.066 A 
HETATM   24  C   UNL     1     -41.982  57.638 -59.890  1.00  0.00     0.081 A 
HETATM   25  C   UNL     1     -41.770  58.695 -60.773  1.00  0.00     0.037 A 
HETATM   26  C   UNL     1     -42.168  59.985 -60.424  1.00  0.00     0.003 A 
HETATM   27  C   UNL     1     -42.781  60.217 -59.194  1.00  0.00     0.001 A 
HETATM   28  C   UNL     1     -42.987  59.160 -58.301  1.00  0.00     0.020 A 
BRANCH  24  29
HETATM   29  O   UNL     1     -41.584  56.401 -60.321  1.00  0.00    -0.360 OA
HETATM   30  H   UNL     1     -41.261  55.896 -59.544  1.00  0.00     0.217 HD
ENDBRANCH  24  29
ENDBRANCH  20  23
ENDBRANCH  17  19
ENDBRANCH   1  17
TORSDOF 10
ENDMDL
MODEL 4
REMARK VINA RESULT:      -6.6      1.923      2.543
REMARK  10 active torsions:
REMARK  status: ('A' for Active; 'I' for Inactive)
REMARK    1  A    between atoms: C_2  and  C_3 
REMARK    2  A    between atoms: C_3  and  C_4 
REMARK       I    between atoms: C_4  and  N_5 
REMARK    3  A    between atoms: N_5  and  C_6 
REMARK    4  A    between atoms: C_6  and  N_7 
REMARK    5  A    between atoms: C_6  and  C_21 
REMARK    6  A    between atoms: N_7  and  C_8 
REMARK    7  A    between atoms: C_8  and  N_9 
REMARK    8  A    between atoms: N_9  and  N_10 
REMARK       I    between atoms: N_10  and  C_11 
REMARK    9  A    between atoms: C_11  and  C_12 
REMARK   10  A    between atoms: C_13  and  O_14 
ROOT
HETATM    1  C   UNL     1     -41.935  56.891 -54.773  1.00  0.00     0.188 C 
HETATM    2  S   UNL     1     -41.876  58.519 -54.384  1.00  0.00    -0.039 SA
ENDROOT
BRANCH   1   3
HETATM    3  N   UNL     1     -42.293  56.022 -53.797  1.00  0.00    -0.341 N 
HETATM    4  H   UNL     1     -43.295  55.986 -53.621  1.00  0.00     0.164 HD
BRANCH   3   5
HETATM    5  C   UNL     1     -41.497  55.349 -52.776  1.00  0.00     0.241 C 
BRANCH   5   6
HETATM    6  N   UNL     1     -41.442  53.932 -53.125  1.00  0.00    -0.336 N 
HETATM    7  C   UNL     1     -40.696  53.429 -54.156  1.00  0.00     0.219 C 
HETATM    8  O   UNL     1     -39.997  54.136 -54.872  1.00  0.00    -0.274 OA
HETATM    9  H   UNL     1     -41.890  53.280 -52.494  1.00  0.00     0.164 HD
BRANCH   7  10
HETATM   10  C   UNL     1     -40.775  51.926 -54.328  1.00  0.00     0.102 C 
BRANCH  10  11
HETATM   11  C   UNL     1     -39.612  51.189 -53.670  1.00  0.00     0.005 C 
HETATM   12  C   UNL     1     -39.433  49.764 -54.175  1.00  0.00     0.005 C 
ENDBRANCH  10  11
ENDBRANCH   7  10
ENDBRANCH   5   6
BRANCH   5  13
HETATM   13  C   UNL     1     -41.869  55.725 -51.271  1.00  0.00     0.226 C 
HETATM   14 CL   UNL     1     -43.608  56.178 -51.128  1.00  0.00    -0.080 Cl
HETATM   15 CL   UNL     1     -41.631  54.267 -50.218  1.00  0.00    -0.080 Cl
HETATM   16 CL   UNL     1     -40.864  57.031 -50.568  1.00  0.00    -0.080 Cl
ENDBRANCH   5  13
ENDBRANCH   3   5
ENDBRANCH   1   3
BRANCH   1  17
HETATM   17  N   UNL     1     -41.633  56.380 -56.005  1.00  0.00    -0.274 N 
HETATM   18  H   UNL     1     -40.747  55.926 -56.215  1.00  0.00     0.189 HD
BRANCH  17  19
HETATM   19  N   UNL     1     -42.657  56.015 -56.891  1.00  0.00    -0.264 N 
HETATM   20  C   UNL     1     -42.896  56.829 -57.979  1.00  0.00     0.272 C 
HETATM   21  O   UNL     1     -42.296  57.888 -58.158  1.00  0.00    -0.266 OA
HETATM   22  H   UNL     1     -43.202  55.191 -56.649  1.00  0.00     0.190 HD
BRANCH  20  23
HETATM   23  C   UNL     1     -43.947  56.396 -58.937  1.00  0.00     0.066 A 
HETATM   24  C   UNL     1     -45.113  57.164 -59.076  1.00  0.00     0.081 A 
HETATM   25  C   UNL     1     -46.118  56.776 -59.960  1.00  0.00     0.037 A 
HETATM   26  C   UNL     1     -45.958  55.626 -60.734  1.00  0.00     0.003 A 
HETATM   27  C   UNL     1     -44.793  54.869 -60.626  1.00  0.00     0.001 A 
HETATM   28  C   UNL     1     -43.787  55.252 -59.733  1.00  0.00     0.020 A 
BRANCH  24  29
HETATM   29  O   UNL     1     -45.341  58.317 -58.373  1.00  0.00    -0.360 OA
HETATM   30  H   UNL     1     -45.636  58.071 -57.470  1.00  0.00     0.217 HD
ENDBRANCH  24  29
ENDBRANCH  20  23
ENDBRANCH  17  19
ENDBRANCH   1  17
TORSDOF 10
ENDMDL
MODEL 5
REMARK VINA RESULT:      -6.6      3.984      7.271
REMARK  10 active torsions:
REMARK  status: ('A' for Active; 'I' for Inactive)
REMARK    1  A    between atoms: C_2  and  C_3 
REMARK    2  A    between atoms: C_3  and  C_4 
REMARK       I    between atoms: C_4  and  N_5 
REMARK    3  A    between atoms: N_5  and  C_6 
REMARK    4  A    between atoms: C_6  and  N_7 
REMARK    5  A    between atoms: C_6  and  C_21 
REMARK    6  A    between atoms: N_7  and  C_8 
REMARK    7  A    between atoms: C_8  and  N_9 
REMARK    8  A    between atoms: N_9  and  N_10 
REMARK       I    between atoms: N_10  and  C_11 
REMARK    9  A    between atoms: C_11  and  C_12 
REMARK   10  A    between atoms: C_13  and  O_14 
ROOT
HETATM    1  C   UNL     1     -44.332  57.424 -53.236  1.00  0.00     0.188 C 
HETATM    2  S   UNL     1     -44.885  57.684 -54.795  1.00  0.00    -0.039 SA
ENDROOT
BRANCH   1   3
HETATM    3  N   UNL     1     -44.012  58.509 -52.490  1.00  0.00    -0.341 N 
HETATM    4  H   UNL     1     -43.986  59.381 -53.016  1.00  0.00     0.164 HD
BRANCH   3   5
HETATM    5  C   UNL     1     -43.432  58.614 -51.155  1.00  0.00     0.241 C 
BRANCH   5   6
HETATM    6  N   UNL     1     -44.010  59.794 -50.517  1.00  0.00    -0.336 N 
HETATM    7  C   UNL     1     -45.300  59.861 -50.066  1.00  0.00     0.219 C 
HETATM    8  O   UNL     1     -46.081  58.921 -50.154  1.00  0.00    -0.274 OA
HETATM    9  H   UNL     1     -43.384  60.556 -50.294  1.00  0.00     0.164 HD
BRANCH   7  10
HETATM   10  C   UNL     1     -45.684  61.176 -49.421  1.00  0.00     0.102 C 
BRANCH  10  11
HETATM   11  C   UNL     1     -44.663  61.657 -48.394  1.00  0.00     0.005 C 
HETATM   12  C   UNL     1     -44.893  61.094 -46.999  1.00  0.00     0.005 C 
ENDBRANCH  10  11
ENDBRANCH   7  10
ENDBRANCH   5   6
BRANCH   5  13
HETATM   13  C   UNL     1     -41.847  58.442 -51.092  1.00  0.00     0.226 C 
HETATM   14 CL   UNL     1     -41.124  58.488 -52.742  1.00  0.00    -0.080 Cl
HETATM   15 CL   UNL     1     -41.134  59.840 -50.181  1.00  0.00    -0.080 Cl
HETATM   16 CL   UNL     1     -41.301  56.957 -50.253  1.00  0.00    -0.080 Cl
ENDBRANCH   5  13
ENDBRANCH   3   5
ENDBRANCH   1   3
BRANCH   1  17
HETATM   17  N   UNL     1     -44.170  56.189 -52.670  1.00  0.00    -0.274 N 
HETATM   18  H   UNL     1     -44.946  55.642 -52.304  1.00  0.00     0.189 HD
BRANCH  17  19
HETATM   19  N   UNL     1     -43.049  55.408 -52.982  1.00  0.00    -0.264 N 
HETATM   20  C   UNL     1     -42.821  54.269 -52.237  1.00  0.00     0.272 C 
HETATM   21  O   UNL     1     -43.521  53.958 -51.274  1.00  0.00    -0.266 OA
HETATM   22  H   UNL     1     -42.435  55.757 -53.714  1.00  0.00     0.190 HD
BRANCH  20  23
HETATM   23  C   UNL     1     -41.660  53.424 -52.620  1.00  0.00     0.066 A 
HETATM   24  C   UNL     1     -40.784  52.964 -51.624  1.00  0.00     0.081 A 
HETATM   25  C   UNL     1     -39.683  52.177 -51.957  1.00  0.00     0.037 A 
HETATM   26  C   UNL     1     -39.457  51.823 -53.287  1.00  0.00     0.003 A 
HETATM   27  C   UNL     1     -40.335  52.250 -54.282  1.00  0.00     0.001 A 
HETATM   28  C   UNL     1     -41.436  53.047 -53.952  1.00  0.00     0.020 A 
BRANCH  24  29
HETATM   29  O   UNL     1     -40.945  53.245 -50.294  1.00  0.00    -0.360 OA
HETATM   30  H   UNL     1     -40.056  53.257 -49.875  1.00  0.00     0.217 HD
ENDBRANCH  24  29
ENDBRANCH  20  23
ENDBRANCH  17  19
ENDBRANCH   1  17
TORSDOF 10
ENDMDL
MODEL 6
REMARK VINA RESULT:      -6.4      3.095      7.029
REMARK  10 active torsions:
REMARK  status: ('A' for Active; 'I' for Inactive)
REMARK    1  A    between atoms: C_2  and  C_3 
REMARK    2  A    between atoms: C_3  and  C_4 
REMARK       I    between atoms: C_4  and  N_5 
REMARK    3  A    between atoms: N_5  and  C_6 
REMARK    4  A    between atoms: C_6  and  N_7 
REMARK    5  A    between atoms: C_6  and  C_21 
REMARK    6  A    between atoms: N_7  and  C_8 
REMARK    7  A    between atoms: C_8  and  N_9 
REMARK    8  A    between atoms: N_9  and  N_10 
REMARK       I    between atoms: N_10  and  C_11 
REMARK    9  A    between atoms: C_11  and  C_12 
REMARK   10  A    between atoms: C_13  and  O_14 
ROOT
HETATM    1  C   UNL     1     -43.938  56.648 -52.652  1.00  0.00     0.188 C 
HETATM    2  S   UNL     1     -43.613  58.217 -52.166  1.00  0.00    -0.039 SA
ENDROOT
BRANCH   1   3
HETATM    3  N   UNL     1     -44.415  56.462 -53.907  1.00  0.00    -0.341 N 
HETATM    4  H   UNL     1     -45.133  55.744 -53.975  1.00  0.00     0.164 HD
BRANCH   3   5
HETATM    5  C   UNL     1     -43.895  56.893 -55.200  1.00  0.00     0.241 C 
BRANCH   5   6
HETATM    6  N   UNL     1     -45.011  57.453 -55.957  1.00  0.00    -0.336 N 
HETATM    7  C   UNL     1     -45.034  58.729 -56.451  1.00  0.00     0.219 C 
HETATM    8  O   UNL     1     -44.103  59.511 -56.303  1.00  0.00    -0.274 OA
HETATM    9  H   UNL     1     -45.753  56.821 -56.228  1.00  0.00     0.164 HD
BRANCH   7  10
HETATM   10  C   UNL     1     -46.286  59.095 -57.221  1.00  0.00     0.102 C 
BRANCH  10  11
HETATM   11  C   UNL     1     -47.090  57.876 -57.665  1.00  0.00     0.005 C 
HETATM   12  C   UNL     1     -46.770  57.422 -59.082  1.00  0.00     0.005 C 
ENDBRANCH  10  11
ENDBRANCH   7  10
ENDBRANCH   5   6
BRANCH   5  13
HETATM   13  C   UNL     1     -42.959  55.835 -55.940  1.00  0.00     0.226 C 
HETATM   14 CL   UNL     1     -41.276  55.895 -55.295  1.00  0.00    -0.080 Cl
HETATM   15 CL   UNL     1     -43.574  54.161 -55.606  1.00  0.00    -0.080 Cl
HETATM   16 CL   UNL     1     -42.910  56.013 -57.722  1.00  0.00    -0.080 Cl
ENDBRANCH   5  13
ENDBRANCH   3   5
ENDBRANCH   1   3
BRANCH   1  17
HETATM   17  N   UNL     1     -43.766  55.543 -51.863  1.00  0.00    -0.274 N 
HETATM   18  H   UNL     1     -44.402  55.298 -51.108  1.00  0.00     0.189 HD
BRANCH  17  19
HETATM   19  N   UNL     1     -43.021  54.450 -52.327  1.00  0.00    -0.264 N 
HETATM   20  C   UNL     1     -41.673  54.413 -52.039  1.00  0.00     0.272 C 
HETATM   21  O   UNL     1     -41.095  55.331 -51.456  1.00  0.00    -0.266 OA
HETATM   22  H   UNL     1     -43.513  53.768 -52.898  1.00  0.00     0.190 HD
BRANCH  20  23
HETATM   23  C   UNL     1     -40.911  53.219 -52.490  1.00  0.00     0.066 A 
HETATM   24  C   UNL     1     -40.132  52.507 -51.565  1.00  0.00     0.081 A 
HETATM   25  C   UNL     1     -39.401  51.390 -51.964  1.00  0.00     0.037 A 
HETATM   26  C   UNL     1     -39.458  50.958 -53.289  1.00  0.00     0.003 A 
HETATM   27  C   UNL     1     -40.250  51.638 -54.211  1.00  0.00     0.001 A 
HETATM   28  C   UNL     1     -40.977  52.766 -53.816  1.00  0.00     0.020 A 
BRANCH  24  29
HETATM   29  O   UNL     1     -40.038  52.849 -50.242  1.00  0.00    -0.360 OA
HETATM   30  H   UNL     1     -40.770  53.470 -50.035  1.00  0.00     0.217 HD
ENDBRANCH  24  29
ENDBRANCH  20  23
ENDBRANCH  17  19
ENDBRANCH   1  17
TORSDOF 10
ENDMDL
MODEL 7
REMARK VINA RESULT:      -6.4      3.377      6.883
REMARK  10 active torsions:
REMARK  status: ('A' for Active; 'I' for Inactive)
REMARK    1  A    between atoms: C_2  and  C_3 
REMARK    2  A    between atoms: C_3  and  C_4 
REMARK       I    between atoms: C_4  and  N_5 
REMARK    3  A    between atoms: N_5  and  C_6 
REMARK    4  A    between atoms: C_6  and  N_7 
REMARK    5  A    between atoms: C_6  and  C_21 
REMARK    6  A    between atoms: N_7  and  C_8 
REMARK    7  A    between atoms: C_8  and  N_9 
REMARK    8  A    between atoms: N_9  and  N_10 
REMARK       I    between atoms: N_10  and  C_11 
REMARK    9  A    between atoms: C_11  and  C_12 
REMARK   10  A    between atoms: C_13  and  O_14 
ROOT
HETATM    1  C   UNL     1     -44.396  56.827 -54.376  1.00  0.00     0.188 C 
HETATM    2  S   UNL     1     -44.697  57.848 -53.083  1.00  0.00    -0.039 SA
ENDROOT
BRANCH   1   3
HETATM    3  N   UNL     1     -43.962  57.385 -55.533  1.00  0.00    -0.341 N 
HETATM    4  H   UNL     1     -42.971  57.617 -55.535  1.00  0.00     0.164 HD
BRANCH   3   5
HETATM    5  C   UNL     1     -44.700  57.964 -56.651  1.00  0.00     0.241 C 
BRANCH   5   6
HETATM    6  N   UNL     1     -44.437  57.137 -57.825  1.00  0.00    -0.336 N 
HETATM    7  C   UNL     1     -43.181  56.817 -58.266  1.00  0.00     0.219 C 
HETATM    8  O   UNL     1     -42.165  57.196 -57.697  1.00  0.00    -0.274 OA
HETATM    9  H   UNL     1     -45.229  56.684 -58.262  1.00  0.00     0.164 HD
BRANCH   7  10
HETATM   10  C   UNL     1     -43.142  55.932 -59.495  1.00  0.00     0.102 C 
BRANCH  10  11
HETATM   11  C   UNL     1     -44.301  56.191 -60.454  1.00  0.00     0.005 C 
HETATM   12  C   UNL     1     -44.981  54.919 -60.940  1.00  0.00     0.005 C 
ENDBRANCH  10  11
ENDBRANCH   7  10
ENDBRANCH   5   6
BRANCH   5  13
HETATM   13  C   UNL     1     -44.553  59.544 -56.812  1.00  0.00     0.226 C 
HETATM   14 CL   UNL     1     -45.778  60.414 -55.817  1.00  0.00    -0.080 Cl
HETATM   15 CL   UNL     1     -42.928  60.057 -56.187  1.00  0.00    -0.080 Cl
HETATM   16 CL   UNL     1     -44.653  60.124 -58.504  1.00  0.00    -0.080 Cl
ENDBRANCH   5  13
ENDBRANCH   3   5
ENDBRANCH   1   3
BRANCH   1  17
HETATM   17  N   UNL     1     -44.571  55.471 -54.347  1.00  0.00    -0.274 N 
HETATM   18  H   UNL     1     -45.127  54.969 -55.035  1.00  0.00     0.189 HD
BRANCH  17  19
HETATM   19  N   UNL     1     -43.641  54.651 -53.693  1.00  0.00    -0.264 N 
HETATM   20  C   UNL     1     -42.495  54.295 -54.373  1.00  0.00     0.272 C 
HETATM   21  O   UNL     1     -42.297  54.612 -55.546  1.00  0.00    -0.266 OA
HETATM   22  H   UNL     1     -43.892  54.322 -52.763  1.00  0.00     0.190 HD
BRANCH  20  23
HETATM   23  C   UNL     1     -41.495  53.473 -53.643  1.00  0.00     0.066 A 
HETATM   24  C   UNL     1     -41.156  53.809 -52.323  1.00  0.00     0.081 A 
HETATM   25  C   UNL     1     -40.214  53.060 -51.620  1.00  0.00     0.037 A 
HETATM   26  C   UNL     1     -39.617  51.952 -52.220  1.00  0.00     0.003 A 
HETATM   27  C   UNL     1     -39.965  51.590 -53.521  1.00  0.00     0.001 A 
HETATM   28  C   UNL     1     -40.903  52.346 -54.232  1.00  0.00     0.020 A 
BRANCH  24  29
HETATM   29  O   UNL     1     -41.710  54.865 -51.651  1.00  0.00    -0.360 OA
HETATM   30  H   UNL     1     -41.775  54.623 -50.702  1.00  0.00     0.217 HD
ENDBRANCH  24  29
ENDBRANCH  20  23
ENDBRANCH  17  19
ENDBRANCH   1  17
TORSDOF 10
ENDMDL
MODEL 8
REMARK VINA RESULT:      -6.4      4.002      6.164
REMARK  10 active torsions:
REMARK  status: ('A' for Active; 'I' for Inactive)
REMARK    1  A    between atoms: C_2  and  C_3 
REMARK    2  A    between atoms: C_3  and  C_4 
REMARK       I    between atoms: C_4  and  N_5 
REMARK    3  A    between atoms: N_5  and  C_6 
REMARK    4  A    between atoms: C_6  and  N_7 
REMARK    5  A    between atoms: C_6  and  C_21 
REMARK    6  A    between atoms: N_7  and  C_8 
REMARK    7  A    between atoms: C_8  and  N_9 
REMARK    8  A    between atoms: N_9  and  N_10 
REMARK       I    between atoms: N_10  and  C_11 
REMARK    9  A    between atoms: C_11  and  C_12 
REMARK   10  A    between atoms: C_13  and  O_14 
ROOT
HETATM    1  C   UNL     1     -45.145  57.839 -54.920  1.00  0.00     0.188 C 
HETATM    2  S   UNL     1     -45.302  58.450 -56.472  1.00  0.00    -0.039 SA
ENDROOT
BRANCH   1   3
HETATM    3  N   UNL     1     -44.900  58.717 -53.917  1.00  0.00    -0.341 N 
HETATM    4  H   UNL     1     -45.699  58.886 -53.309  1.00  0.00     0.164 HD
BRANCH   3   5
HETATM    5  C   UNL     1     -43.807  59.664 -53.722  1.00  0.00     0.241 C 
BRANCH   5   6
HETATM    6  N   UNL     1     -42.868  59.060 -52.780  1.00  0.00    -0.336 N 
HETATM    7  C   UNL     1     -41.509  59.077 -52.942  1.00  0.00     0.219 C 
HETATM    8  O   UNL     1     -40.965  59.614 -53.899  1.00  0.00    -0.274 OA
HETATM    9  H   UNL     1     -43.242  58.718 -51.905  1.00  0.00     0.164 HD
BRANCH   7  10
HETATM   10  C   UNL     1     -40.725  58.406 -51.834  1.00  0.00     0.102 C 
BRANCH  10  11
HETATM   11  C   UNL     1     -40.384  59.353 -50.686  1.00  0.00     0.005 C 
HETATM   12  C   UNL     1     -38.891  59.596 -50.523  1.00  0.00     0.005 C 
ENDBRANCH  10  11
ENDBRANCH   7  10
ENDBRANCH   5   6
BRANCH   5  13
HETATM   13  C   UNL     1     -44.257  61.170 -53.453  1.00  0.00     0.226 C 
HETATM   14 CL   UNL     1     -43.545  61.795 -51.919  1.00  0.00    -0.080 Cl
HETATM   15 CL   UNL     1     -43.616  62.228 -54.781  1.00  0.00    -0.080 Cl
HETATM   16 CL   UNL     1     -46.031  61.415 -53.418  1.00  0.00    -0.080 Cl
ENDBRANCH   5  13
ENDBRANCH   3   5
ENDBRANCH   1   3
BRANCH   1  17
HETATM   17  N   UNL     1     -45.236  56.512 -54.600  1.00  0.00    -0.274 N 
HETATM   18  H   UNL     1     -46.119  56.008 -54.574  1.00  0.00     0.189 HD
BRANCH  17  19
HETATM   19  N   UNL     1     -44.128  55.667 -54.759  1.00  0.00    -0.264 N 
HETATM   20  C   UNL     1     -43.254  55.534 -53.700  1.00  0.00     0.272 C 
HETATM   21  O   UNL     1     -43.374  56.179 -52.658  1.00  0.00    -0.266 OA
HETATM   22  H   UNL     1     -44.006  55.237 -55.672  1.00  0.00     0.190 HD
BRANCH  20  23
HETATM   23  C   UNL     1     -42.118  54.590 -53.867  1.00  0.00     0.066 A 
HETATM   24  C   UNL     1     -41.329  54.659 -55.026  1.00  0.00     0.081 A 
HETATM   25  C   UNL     1     -40.263  53.780 -55.211  1.00  0.00     0.037 A 
HETATM   26  C   UNL     1     -39.960  52.837 -54.229  1.00  0.00     0.003 A 
HETATM   27  C   UNL     1     -40.718  52.777 -53.061  1.00  0.00     0.001 A 
HETATM   28  C   UNL     1     -41.794  53.651 -52.877  1.00  0.00     0.020 A 
BRANCH  24  29
HETATM   29  O   UNL     1     -41.543  55.568 -56.027  1.00  0.00    -0.360 OA
HETATM   30  H   UNL     1     -42.073  55.130 -56.729  1.00  0.00     0.217 HD
ENDBRANCH  24  29
ENDBRANCH  20  23
ENDBRANCH  17  19
ENDBRANCH   1  17
TORSDOF 10
ENDMDL
MODEL 9
REMARK VINA RESULT:      -6.3      3.189      6.417
REMARK  10 active torsions:
REMARK  status: ('A' for Active; 'I' for Inactive)
REMARK    1  A    between atoms: C_2  and  C_3 
REMARK    2  A    between atoms: C_3  and  C_4 
REMARK       I    between atoms: C_4  and  N_5 
REMARK    3  A    between atoms: N_5  and  C_6 
REMARK    4  A    between atoms: C_6  and  N_7 
REMARK    5  A    between atoms: C_6  and  C_21 
REMARK    6  A    between atoms: N_7  and  C_8 
REMARK    7  A    between atoms: C_8  and  N_9 
REMARK    8  A    between atoms: N_9  and  N_10 
REMARK       I    between atoms: N_10  and  C_11 
REMARK    9  A    between atoms: C_11  and  C_12 
REMARK   10  A    between atoms: C_13  and  O_14 
ROOT
HETATM    1  C   UNL     1     -42.198  57.958 -52.787  1.00  0.00     0.188 C 
HETATM    2  S   UNL     1     -41.621  59.477 -52.380  1.00  0.00    -0.039 SA
ENDROOT
BRANCH   1   3
HETATM    3  N   UNL     1     -42.601  57.757 -54.065  1.00  0.00    -0.341 N 
HETATM    4  H   UNL     1     -41.869  57.902 -54.758  1.00  0.00     0.164 HD
BRANCH   3   5
HETATM    5  C   UNL     1     -43.937  57.650 -54.640  1.00  0.00     0.241 C 
BRANCH   5   6
HETATM    6  N   UNL     1     -43.908  56.566 -55.618  1.00  0.00    -0.336 N 
HETATM    7  C   UNL     1     -43.036  56.512 -56.671  1.00  0.00     0.219 C 
HETATM    8  O   UNL     1     -42.192  57.376 -56.874  1.00  0.00    -0.274 OA
HETATM    9  H   UNL     1     -44.488  55.757 -55.434  1.00  0.00     0.164 HD
BRANCH   7  10
HETATM   10  C   UNL     1     -43.171  55.287 -57.551  1.00  0.00     0.102 C 
BRANCH  10  11
HETATM   11  C   UNL     1     -43.263  55.627 -59.037  1.00  0.00     0.005 C 
HETATM   12  C   UNL     1     -44.292  54.793 -59.787  1.00  0.00     0.005 C 
ENDBRANCH  10  11
ENDBRANCH   7  10
ENDBRANCH   5   6
BRANCH   5  13
HETATM   13  C   UNL     1     -44.593  59.033 -55.091  1.00  0.00     0.226 C 
HETATM   14 CL   UNL     1     -45.818  58.777 -56.388  1.00  0.00    -0.080 Cl
HETATM   15 CL   UNL     1     -45.482  59.756 -53.684  1.00  0.00    -0.080 Cl
HETATM   16 CL   UNL     1     -43.412  60.266 -55.634  1.00  0.00    -0.080 Cl
ENDBRANCH   5  13
ENDBRANCH   3   5
ENDBRANCH   1   3
BRANCH   1  17
HETATM   17  N   UNL     1     -42.300  56.911 -51.912  1.00  0.00    -0.274 N 
HETATM   18  H   UNL     1     -43.129  56.740 -51.349  1.00  0.00     0.189 HD
BRANCH  17  19
HETATM   19  N   UNL     1     -41.507  55.767 -52.081  1.00  0.00    -0.264 N 
HETATM   20  C   UNL     1     -42.062  54.678 -52.718  1.00  0.00     0.272 C 
HETATM   21  O   UNL     1     -43.240  54.651 -53.077  1.00  0.00    -0.266 OA
HETATM   22  H   UNL     1     -40.575  55.791 -51.674  1.00  0.00     0.190 HD
BRANCH  20  23
HETATM   23  C   UNL     1     -41.188  53.496 -52.938  1.00  0.00     0.066 A 
HETATM   24  C   UNL     1     -40.460  52.967 -51.861  1.00  0.00     0.081 A 
HETATM   25  C   UNL     1     -39.626  51.865 -52.042  1.00  0.00     0.037 A 
HETATM   26  C   UNL     1     -39.529  51.265 -53.297  1.00  0.00     0.003 A 
HETATM   27  C   UNL     1     -40.268  51.763 -54.368  1.00  0.00     0.001 A 
HETATM   28  C   UNL     1     -41.098  52.874 -54.192  1.00  0.00     0.020 A 
BRANCH  24  29
HETATM   29  O   UNL     1     -40.515  53.480 -50.593  1.00  0.00    -0.360 OA
HETATM   30  H   UNL     1     -39.598  53.682 -50.305  1.00  0.00     0.217 HD
ENDBRANCH  24  29
ENDBRANCH  20  23
ENDBRANCH  17  19
ENDBRANCH   1  17
TORSDOF 10
ENDMDL
MODEL 10
REMARK VINA RESULT:      -6.3     14.939     16.467
REMARK  10 active torsions:
REMARK  status: ('A' for Active; 'I' for Inactive)
REMARK    1  A    between atoms: C_2  and  C_3 
REMARK    2  A    between atoms: C_3  and  C_4 
REMARK       I    between atoms: C_4  and  N_5 
REMARK    3  A    between atoms: N_5  and  C_6 
REMARK    4  A    between atoms: C_6  and  N_7 
REMARK    5  A    between atoms: C_6  and  C_21 
REMARK    6  A    between atoms: N_7  and  C_8 
REMARK    7  A    between atoms: C_8  and  N_9 
REMARK    8  A    between atoms: N_9  and  N_10 
REMARK       I    between atoms: N_10  and  C_11 
REMARK    9  A    between atoms: C_11  and  C_12 
REMARK   10  A    between atoms: C_13  and  O_14 
ROOT
HETATM    1  C   UNL     1     -37.211  40.649 -53.097  1.00  0.00     0.188 C 
HETATM    2  S   UNL     1     -37.853  40.138 -51.636  1.00  0.00    -0.039 SA
ENDROOT
BRANCH   1   3
HETATM    3  N   UNL     1     -35.973  40.209 -53.431  1.00  0.00    -0.341 N 
HETATM    4  H   UNL     1     -35.948  39.241 -53.745  1.00  0.00     0.164 HD
BRANCH   3   5
HETATM    5  C   UNL     1     -34.654  40.769 -53.157  1.00  0.00     0.241 C 
BRANCH   5   6
HETATM    6  N   UNL     1     -33.980  40.949 -54.440  1.00  0.00    -0.336 N 
HETATM    7  C   UNL     1     -33.907  39.981 -55.405  1.00  0.00     0.219 C 
HETATM    8  O   UNL     1     -34.417  38.875 -55.271  1.00  0.00    -0.274 OA
HETATM    9  H   UNL     1     -33.653  41.879 -54.668  1.00  0.00     0.164 HD
BRANCH   7  10
HETATM   10  C   UNL     1     -33.173  40.389 -56.665  1.00  0.00     0.102 C 
BRANCH  10  11
HETATM   11  C   UNL     1     -31.691  40.025 -56.638  1.00  0.00     0.005 C 
HETATM   12  C   UNL     1     -31.406  38.604 -57.102  1.00  0.00     0.005 C 
ENDBRANCH  10  11
ENDBRANCH   7  10
ENDBRANCH   5   6
BRANCH   5  13
HETATM   13  C   UNL     1     -33.841  40.047 -51.990  1.00  0.00     0.226 C 
HETATM   14 CL   UNL     1     -34.199  40.798 -50.391  1.00  0.00    -0.080 Cl
HETATM   15 CL   UNL     1     -34.377  38.317 -51.875  1.00  0.00    -0.080 Cl
HETATM   16 CL   UNL     1     -32.067  40.015 -52.239  1.00  0.00    -0.080 Cl
ENDBRANCH   5  13
ENDBRANCH   3   5
ENDBRANCH   1   3
BRANCH   1  17
HETATM   17  N   UNL     1     -37.848  41.489 -53.969  1.00  0.00    -0.274 N 
HETATM   18  H   UNL     1     -37.972  42.482 -53.789  1.00  0.00     0.189 HD
BRANCH  17  19
HETATM   19  N   UNL     1     -37.935  41.164 -55.330  1.00  0.00    -0.264 N 
HETATM   20  C   UNL     1     -37.014  41.722 -56.192  1.00  0.00     0.272 C 
HETATM   21  O   UNL     1     -36.172  42.541 -55.822  1.00  0.00    -0.266 OA
HETATM   22  H   UNL     1     -38.710  40.570 -55.611  1.00  0.00     0.190 HD
BRANCH  20  23
HETATM   23  C   UNL     1     -37.087  41.321 -57.622  1.00  0.00     0.066 A 
HETATM   24  C   UNL     1     -37.045  39.959 -57.959  1.00  0.00     0.081 A 
HETATM   25  C   UNL     1     -37.103  39.558 -59.293  1.00  0.00     0.037 A 
HETATM   26  C   UNL     1     -37.226  40.512 -60.303  1.00  0.00     0.003 A 
HETATM   27  C   UNL     1     -37.296  41.866 -59.979  1.00  0.00     0.001 A 
HETATM   28  C   UNL     1     -37.230  42.273 -58.643  1.00  0.00     0.020 A 
BRANCH  24  29
HETATM   29  O   UNL     1     -36.949  38.958 -57.031  1.00  0.00    -0.360 OA
HETATM   30  H   UNL     1     -37.752  38.397 -57.103  1.00  0.00     0.217 HD
ENDBRANCH  24  29
ENDBRANCH  20  23
ENDBRANCH  17  19
ENDBRANCH   1  17
TORSDOF 10
ENDMDL
