MODEL 1
REMARK VINA RESULT:      -9.2      0.000      0.000
REMARK  5 active torsions:
REMARK  status: ('A' for Active; 'I' for Inactive)
REMARK    1  A    between atoms: C_4  and  C_5 
REMARK    2  A    between atoms: C_17  and  C_18 
REMARK    3  A    between atoms: C_18  and  N_19 
REMARK       I    between atoms: N_19  and  C_20 
REMARK    4  A    between atoms: C_20  and  C_21 
REMARK    5  A    between atoms: C_21  and  C_22 
ROOT
HETATM    1  C   UNL     1     -40.132  53.908 -47.773  1.00  0.00     0.048 C 
HETATM    2  C   UNL     1     -40.616  54.182 -49.167  1.00  0.00    -0.060 A 
HETATM    3  C   UNL     1     -41.338  55.359 -49.458  1.00  0.00     0.024 A 
HETATM    4  C   UNL     1     -41.784  55.661 -50.761  1.00  0.00     0.034 A 
HETATM    5  C   UNL     1     -41.454  54.749 -51.756  1.00  0.00     0.088 A 
HETATM    6  C   UNL     1     -40.740  53.589 -51.482  1.00  0.00    -0.021 A 
HETATM    7  C   UNL     1     -40.466  52.850 -52.733  1.00  0.00     0.075 C 
HETATM    8  C   UNL     1     -41.362  53.628 -53.706  1.00  0.00     0.151 C 
HETATM    9  O   UNL     1     -41.721  54.897 -53.096  1.00  0.00    -0.342 OA
HETATM   10  C   UNL     1     -40.313  53.289 -50.199  1.00  0.00     0.017 A 
ENDROOT
BRANCH   8  11
HETATM   11  C   UNL     1     -40.668  53.914 -55.044  1.00  0.00     0.155 C 
BRANCH  11  12
HETATM   12  N   UNL     1     -41.227  55.041 -55.772  1.00  0.00    -0.359 N 
HETATM   13  C   UNL     1     -42.508  55.019 -56.276  1.00  0.00     0.219 C 
HETATM   14  O   UNL     1     -43.254  54.054 -56.163  1.00  0.00    -0.274 OA
HETATM   15  H   UNL     1     -40.683  55.894 -55.829  1.00  0.00     0.162 HD
BRANCH  13  16
HETATM   16  C   UNL     1     -42.879  56.300 -56.991  1.00  0.00     0.128 C 
BRANCH  16  17
HETATM   17  C   UNL     1     -43.388  56.077 -58.422  1.00  0.00     0.094 C 
HETATM   18  N   UNL     1     -44.780  56.510 -58.513  1.00  0.00    -0.362 N 
HETATM   19  C   UNL     1     -45.167  57.767 -58.846  1.00  0.00     0.168 C 
HETATM   20  H   UNL     1     -45.510  55.907 -58.149  1.00  0.00     0.162 HD
HETATM   21  S   UNL     1     -46.744  58.254 -58.676  1.00  0.00    -0.041 SA
HETATM   22  N   UNL     1     -44.225  58.601 -59.348  1.00  0.00    -0.363 N 
HETATM   23  C   UNL     1     -42.805  58.298 -59.424  1.00  0.00     0.081 C 
HETATM   24  H   UNL     1     -44.535  59.549 -59.526  1.00  0.00     0.162 HD
HETATM   25  C   UNL     1     -42.169  59.015 -60.610  1.00  0.00     0.032 C 
HETATM   26  C   UNL     1     -42.580  56.790 -59.511  1.00  0.00     0.050 C 
ENDBRANCH  16  17
ENDBRANCH  13  16
ENDBRANCH  11  12
ENDBRANCH   8  11
BRANCH   4  27
HETATM   27  C   UNL     1     -42.530  56.909 -50.979  1.00  0.00     0.112 A 
HETATM   28  S   UNL     1     -41.732  58.377 -51.395  1.00  0.00    -0.067 SA
HETATM   29  C   UNL     1     -43.246  59.180 -51.527  1.00  0.00     0.035 A 
HETATM   30  C   UNL     1     -44.266  58.267 -51.261  1.00  0.00     0.075 A 
HETATM   31  C   UNL     1     -43.516  60.521 -51.848  1.00  0.00     0.021 A 
HETATM   32  N   UNL     1     -43.848  56.981 -50.966  1.00  0.00    -0.239 NA
HETATM   33  C   UNL     1     -45.604  58.709 -51.318  1.00  0.00     0.033 A 
HETATM   34  C   UNL     1     -45.884  60.041 -51.637  1.00  0.00     0.002 A 
HETATM   35  C   UNL     1     -44.851  60.935 -51.898  1.00  0.00     0.002 A 
ENDBRANCH   4  27
TORSDOF 5
ENDMDL
MODEL 2
REMARK VINA RESULT:      -8.8      1.402      1.826
REMARK  5 active torsions:
REMARK  status: ('A' for Active; 'I' for Inactive)
REMARK    1  A    between atoms: C_4  and  C_5 
REMARK    2  A    between atoms: C_17  and  C_18 
REMARK    3  A    between atoms: C_18  and  N_19 
REMARK       I    between atoms: N_19  and  C_20 
REMARK    4  A    between atoms: C_20  and  C_21 
REMARK    5  A    between atoms: C_21  and  C_22 
ROOT
HETATM    1  C   UNL     1     -40.166  53.927 -47.773  1.00  0.00     0.048 C 
HETATM    2  C   UNL     1     -40.630  54.210 -49.172  1.00  0.00    -0.060 A 
HETATM    3  C   UNL     1     -41.289  55.419 -49.478  1.00  0.00     0.024 A 
HETATM    4  C   UNL     1     -41.714  55.730 -50.787  1.00  0.00     0.034 A 
HETATM    5  C   UNL     1     -41.427  54.791 -51.771  1.00  0.00     0.088 A 
HETATM    6  C   UNL     1     -40.774  53.599 -51.481  1.00  0.00    -0.021 A 
HETATM    7  C   UNL     1     -40.532  52.834 -52.724  1.00  0.00     0.075 C 
HETATM    8  C   UNL     1     -41.384  53.647 -53.709  1.00  0.00     0.151 C 
HETATM    9  O   UNL     1     -41.680  54.939 -53.113  1.00  0.00    -0.342 OA
HETATM   10  C   UNL     1     -40.367  53.292 -50.194  1.00  0.00     0.017 A 
ENDROOT
BRANCH   8  11
HETATM   11  C   UNL     1     -40.670  53.883 -55.046  1.00  0.00     0.155 C 
BRANCH  11  12
HETATM   12  N   UNL     1     -41.287  54.906 -55.874  1.00  0.00    -0.359 N 
HETATM   13  C   UNL     1     -42.614  54.844 -56.239  1.00  0.00     0.219 C 
HETATM   14  O   UNL     1     -43.355  53.926 -55.911  1.00  0.00    -0.274 OA
HETATM   15  H   UNL     1     -40.743  55.726 -56.110  1.00  0.00     0.162 HD
BRANCH  13  16
HETATM   16  C   UNL     1     -43.041  56.016 -57.096  1.00  0.00     0.128 C 
BRANCH  16  17
HETATM   17  C   UNL     1     -42.292  57.316 -56.774  1.00  0.00     0.094 C 
HETATM   18  N   UNL     1     -41.930  57.987 -58.021  1.00  0.00    -0.362 N 
HETATM   19  C   UNL     1     -42.713  58.896 -58.652  1.00  0.00     0.168 C 
HETATM   20  H   UNL     1     -41.134  57.648 -58.550  1.00  0.00     0.162 HD
HETATM   21  S   UNL     1     -42.358  59.418 -60.186  1.00  0.00    -0.041 SA
HETATM   22  N   UNL     1     -43.780  59.384 -57.973  1.00  0.00    -0.363 N 
HETATM   23  C   UNL     1     -44.229  58.902 -56.678  1.00  0.00     0.081 C 
HETATM   24  H   UNL     1     -44.377  60.013 -58.498  1.00  0.00     0.162 HD
HETATM   25  C   UNL     1     -44.897  60.026 -55.892  1.00  0.00     0.032 C 
HETATM   26  C   UNL     1     -43.064  58.302 -55.893  1.00  0.00     0.050 C 
ENDBRANCH  16  17
ENDBRANCH  13  16
ENDBRANCH  11  12
ENDBRANCH   8  11
BRANCH   4  27
HETATM   27  C   UNL     1     -42.395  57.011 -51.022  1.00  0.00     0.112 A 
HETATM   28  S   UNL     1     -41.514  58.476 -51.235  1.00  0.00    -0.067 SA
HETATM   29  C   UNL     1     -42.978  59.333 -51.513  1.00  0.00     0.035 A 
HETATM   30  C   UNL     1     -44.045  58.438 -51.442  1.00  0.00     0.075 A 
HETATM   31  C   UNL     1     -43.170  60.699 -51.781  1.00  0.00     0.021 A 
HETATM   32  N   UNL     1     -43.701  57.125 -51.177  1.00  0.00    -0.239 NA
HETATM   33  C   UNL     1     -45.352  58.925 -51.646  1.00  0.00     0.033 A 
HETATM   34  C   UNL     1     -45.557  60.282 -51.914  1.00  0.00     0.002 A 
HETATM   35  C   UNL     1     -44.477  61.156 -51.980  1.00  0.00     0.002 A 
ENDBRANCH   4  27
TORSDOF 5
ENDMDL
MODEL 3
REMARK VINA RESULT:      -8.7      2.297      6.824
REMARK  5 active torsions:
REMARK  status: ('A' for Active; 'I' for Inactive)
REMARK    1  A    between atoms: C_4  and  C_5 
REMARK    2  A    between atoms: C_17  and  C_18 
REMARK    3  A    between atoms: C_18  and  N_19 
REMARK       I    between atoms: N_19  and  C_20 
REMARK    4  A    between atoms: C_20  and  C_21 
REMARK    5  A    between atoms: C_21  and  C_22 
ROOT
HETATM    1  C   UNL     1     -39.888  51.960 -53.932  1.00  0.00     0.048 C 
HETATM    2  C   UNL     1     -40.726  53.196 -53.783  1.00  0.00    -0.060 A 
HETATM    3  C   UNL     1     -41.197  53.885 -54.919  1.00  0.00     0.024 A 
HETATM    4  C   UNL     1     -42.009  55.034 -54.816  1.00  0.00     0.034 A 
HETATM    5  C   UNL     1     -42.346  55.441 -53.530  1.00  0.00     0.088 A 
HETATM    6  C   UNL     1     -41.892  54.766 -52.404  1.00  0.00    -0.021 A 
HETATM    7  C   UNL     1     -42.466  55.368 -51.181  1.00  0.00     0.075 C 
HETATM    8  C   UNL     1     -43.089  56.639 -51.776  1.00  0.00     0.151 C 
HETATM    9  O   UNL     1     -43.189  56.479 -53.217  1.00  0.00    -0.342 OA
HETATM   10  C   UNL     1     -41.085  53.645 -52.508  1.00  0.00     0.017 A 
ENDROOT
BRANCH   8  11
HETATM   11  C   UNL     1     -44.492  56.921 -51.222  1.00  0.00     0.155 C 
BRANCH  11  12
HETATM   12  N   UNL     1     -45.089  58.149 -51.719  1.00  0.00    -0.359 N 
HETATM   13  C   UNL     1     -45.759  59.021 -50.890  1.00  0.00     0.219 C 
HETATM   14  O   UNL     1     -45.912  58.819 -49.691  1.00  0.00    -0.274 OA
HETATM   15  H   UNL     1     -44.928  58.405 -52.686  1.00  0.00     0.162 HD
BRANCH  13  16
HETATM   16  C   UNL     1     -46.293  60.233 -51.622  1.00  0.00     0.128 C 
BRANCH  16  17
HETATM   17  C   UNL     1     -45.501  61.517 -51.339  1.00  0.00     0.094 C 
HETATM   18  N   UNL     1     -44.259  61.178 -50.650  1.00  0.00    -0.362 N 
HETATM   19  C   UNL     1     -43.089  60.901 -51.278  1.00  0.00     0.168 C 
HETATM   20  H   UNL     1     -44.287  60.966 -49.658  1.00  0.00     0.162 HD
HETATM   21  S   UNL     1     -41.797  60.273 -50.449  1.00  0.00    -0.041 SA
HETATM   22  N   UNL     1     -43.007  61.182 -52.601  1.00  0.00    -0.363 N 
HETATM   23  C   UNL     1     -44.119  61.623 -53.426  1.00  0.00     0.081 C 
HETATM   24  H   UNL     1     -42.142  60.904 -53.050  1.00  0.00     0.162 HD
HETATM   25  C   UNL     1     -43.621  62.511 -54.562  1.00  0.00     0.032 C 
HETATM   26  C   UNL     1     -45.162  62.350 -52.580  1.00  0.00     0.050 C 
ENDBRANCH  16  17
ENDBRANCH  13  16
ENDBRANCH  11  12
ENDBRANCH   8  11
BRANCH   4  27
HETATM   27  C   UNL     1     -42.458  55.694 -56.050  1.00  0.00     0.112 A 
HETATM   28  S   UNL     1     -42.265  57.389 -56.289  1.00  0.00    -0.067 SA
HETATM   29  C   UNL     1     -42.919  57.256 -57.872  1.00  0.00     0.035 A 
HETATM   30  C   UNL     1     -43.226  55.919 -58.123  1.00  0.00     0.075 A 
HETATM   31  C   UNL     1     -43.140  58.261 -58.830  1.00  0.00     0.021 A 
HETATM   32  N   UNL     1     -42.947  55.043 -57.089  1.00  0.00    -0.239 NA
HETATM   33  C   UNL     1     -43.774  55.572 -59.375  1.00  0.00     0.033 A 
HETATM   34  C   UNL     1     -43.999  56.563 -60.336  1.00  0.00     0.002 A 
HETATM   35  C   UNL     1     -43.684  57.891 -60.064  1.00  0.00     0.002 A 
ENDBRANCH   4  27
TORSDOF 5
ENDMDL
MODEL 4
REMARK VINA RESULT:      -8.6      2.692      5.985
REMARK  5 active torsions:
REMARK  status: ('A' for Active; 'I' for Inactive)
REMARK    1  A    between atoms: C_4  and  C_5 
REMARK    2  A    between atoms: C_17  and  C_18 
REMARK    3  A    between atoms: C_18  and  N_19 
REMARK       I    between atoms: N_19  and  C_20 
REMARK    4  A    between atoms: C_20  and  C_21 
REMARK    5  A    between atoms: C_21  and  C_22 
ROOT
HETATM    1  C   UNL     1     -41.871  58.748 -51.195  1.00  0.00     0.048 C 
HETATM    2  C   UNL     1     -41.796  57.758 -52.321  1.00  0.00    -0.060 A 
HETATM    3  C   UNL     1     -41.348  56.441 -52.089  1.00  0.00     0.024 A 
HETATM    4  C   UNL     1     -41.291  55.478 -53.117  1.00  0.00     0.034 A 
HETATM    5  C   UNL     1     -41.724  55.885 -54.373  1.00  0.00     0.088 A 
HETATM    6  C   UNL     1     -42.172  57.179 -54.612  1.00  0.00    -0.021 A 
HETATM    7  C   UNL     1     -42.642  57.308 -56.008  1.00  0.00     0.075 C 
HETATM    8  C   UNL     1     -42.140  55.977 -56.584  1.00  0.00     0.151 C 
HETATM    9  O   UNL     1     -41.826  55.082 -55.483  1.00  0.00    -0.342 OA
HETATM   10  C   UNL     1     -42.217  58.126 -53.602  1.00  0.00     0.017 A 
ENDROOT
BRANCH   8  11
HETATM   11  C   UNL     1     -43.181  55.295 -57.481  1.00  0.00     0.155 C 
BRANCH  11  12
HETATM   12  N   UNL     1     -44.041  56.221 -58.198  1.00  0.00    -0.359 N 
HETATM   13  C   UNL     1     -43.854  56.503 -59.534  1.00  0.00     0.219 C 
HETATM   14  O   UNL     1     -42.950  56.012 -60.200  1.00  0.00    -0.274 OA
HETATM   15  H   UNL     1     -44.850  56.597 -57.719  1.00  0.00     0.162 HD
BRANCH  13  16
HETATM   16  C   UNL     1     -44.867  57.488 -60.073  1.00  0.00     0.128 C 
BRANCH  16  17
HETATM   17  C   UNL     1     -46.270  57.314 -59.474  1.00  0.00     0.094 C 
HETATM   18  N   UNL     1     -46.835  58.628 -59.175  1.00  0.00    -0.362 N 
HETATM   19  C   UNL     1     -47.577  59.355 -60.047  1.00  0.00     0.168 C 
HETATM   20  H   UNL     1     -46.530  59.117 -58.341  1.00  0.00     0.162 HD
HETATM   21  S   UNL     1     -47.962  60.938 -59.735  1.00  0.00    -0.041 SA
HETATM   22  N   UNL     1     -48.015  58.733 -61.168  1.00  0.00    -0.363 N 
HETATM   23  C   UNL     1     -47.633  57.391 -61.575  1.00  0.00     0.081 C 
HETATM   24  H   UNL     1     -48.513  59.323 -61.825  1.00  0.00     0.162 HD
HETATM   25  C   UNL     1     -48.756  56.734 -62.372  1.00  0.00     0.032 C 
HETATM   26  C   UNL     1     -47.256  56.546 -60.360  1.00  0.00     0.050 C 
ENDBRANCH  16  17
ENDBRANCH  13  16
ENDBRANCH  11  12
ENDBRANCH   8  11
BRANCH   4  27
HETATM   27  C   UNL     1     -40.811  54.127 -52.792  1.00  0.00     0.112 A 
HETATM   28  S   UNL     1     -40.649  53.594 -51.163  1.00  0.00    -0.067 SA
HETATM   29  C   UNL     1     -40.170  52.034 -51.705  1.00  0.00     0.035 A 
HETATM   30  C   UNL     1     -40.183  52.018 -53.099  1.00  0.00     0.075 A 
HETATM   31  C   UNL     1     -39.814  50.903 -50.951  1.00  0.00     0.021 A 
HETATM   32  N   UNL     1     -40.561  53.204 -53.702  1.00  0.00    -0.239 NA
HETATM   33  C   UNL     1     -39.828  50.827 -53.766  1.00  0.00     0.033 A 
HETATM   34  C   UNL     1     -39.471  49.695 -53.027  1.00  0.00     0.002 A 
HETATM   35  C   UNL     1     -39.465  49.735 -51.637  1.00  0.00     0.002 A 
ENDBRANCH   4  27
TORSDOF 5
ENDMDL
MODEL 5
REMARK VINA RESULT:      -8.5      2.357      5.622
REMARK  5 active torsions:
REMARK  status: ('A' for Active; 'I' for Inactive)
REMARK    1  A    between atoms: C_4  and  C_5 
REMARK    2  A    between atoms: C_17  and  C_18 
REMARK    3  A    between atoms: C_18  and  N_19 
REMARK       I    between atoms: N_19  and  C_20 
REMARK    4  A    between atoms: C_20  and  C_21 
REMARK    5  A    between atoms: C_21  and  C_22 
ROOT
HETATM    1  C   UNL     1     -45.855  59.313 -50.274  1.00  0.00     0.048 C 
HETATM    2  C   UNL     1     -44.852  59.202 -51.385  1.00  0.00    -0.060 A 
HETATM    3  C   UNL     1     -44.254  57.962 -51.690  1.00  0.00     0.024 A 
HETATM    4  C   UNL     1     -43.328  57.816 -52.744  1.00  0.00     0.034 A 
HETATM    5  C   UNL     1     -43.051  58.956 -53.488  1.00  0.00     0.088 A 
HETATM    6  C   UNL     1     -43.638  60.182 -53.199  1.00  0.00    -0.021 A 
HETATM    7  C   UNL     1     -43.225  61.194 -54.195  1.00  0.00     0.075 C 
HETATM    8  C   UNL     1     -42.114  60.420 -54.918  1.00  0.00     0.151 C 
HETATM    9  O   UNL     1     -42.246  59.008 -54.600  1.00  0.00    -0.342 OA
HETATM   10  C   UNL     1     -44.539  60.325 -52.157  1.00  0.00     0.017 A 
ENDROOT
BRANCH   8  11
HETATM   11  C   UNL     1     -42.182  60.582 -56.442  1.00  0.00     0.155 C 
BRANCH  11  12
HETATM   12  N   UNL     1     -42.038  59.335 -57.176  1.00  0.00    -0.359 N 
HETATM   13  C   UNL     1     -42.678  59.119 -58.377  1.00  0.00     0.219 C 
HETATM   14  O   UNL     1     -43.418  59.946 -58.898  1.00  0.00    -0.274 OA
HETATM   15  H   UNL     1     -41.380  58.647 -56.832  1.00  0.00     0.162 HD
BRANCH  13  16
HETATM   16  C   UNL     1     -42.381  57.756 -58.963  1.00  0.00     0.128 C 
BRANCH  16  17
HETATM   17  C   UNL     1     -43.270  56.640 -58.398  1.00  0.00     0.094 C 
HETATM   18  N   UNL     1     -44.529  57.215 -57.928  1.00  0.00    -0.362 N 
HETATM   19  C   UNL     1     -45.636  57.356 -58.698  1.00  0.00     0.168 C 
HETATM   20  H   UNL     1     -44.548  57.696 -57.036  1.00  0.00     0.162 HD
HETATM   21  S   UNL     1     -46.935  58.249 -58.180  1.00  0.00    -0.041 SA
HETATM   22  N   UNL     1     -45.654  56.718 -59.894  1.00  0.00    -0.363 N 
HETATM   23  C   UNL     1     -44.524  56.013 -60.474  1.00  0.00     0.081 C 
HETATM   24  H   UNL     1     -46.470  56.896 -60.468  1.00  0.00     0.162 HD
HETATM   25  C   UNL     1     -45.007  54.864 -61.354  1.00  0.00     0.032 C 
HETATM   26  C   UNL     1     -43.585  55.508 -59.381  1.00  0.00     0.050 C 
ENDBRANCH  16  17
ENDBRANCH  13  16
ENDBRANCH  11  12
ENDBRANCH   8  11
BRANCH   4  27
HETATM   27  C   UNL     1     -42.750  56.488 -52.996  1.00  0.00     0.112 A 
HETATM   28  S   UNL     1     -43.100  55.609 -54.435  1.00  0.00    -0.067 SA
HETATM   29  C   UNL     1     -42.028  54.356 -53.949  1.00  0.00     0.035 A 
HETATM   30  C   UNL     1     -41.457  54.701 -52.725  1.00  0.00     0.075 A 
HETATM   31  C   UNL     1     -41.708  53.156 -54.606  1.00  0.00     0.021 A 
HETATM   32  N   UNL     1     -41.863  55.917 -52.203  1.00  0.00    -0.239 NA
HETATM   33  C   UNL     1     -40.532  53.815 -52.134  1.00  0.00     0.033 A 
HETATM   34  C   UNL     1     -40.206  52.618 -52.778  1.00  0.00     0.002 A 
HETATM   35  C   UNL     1     -40.788  52.295 -54.000  1.00  0.00     0.002 A 
ENDBRANCH   4  27
TORSDOF 5
ENDMDL
MODEL 6
REMARK VINA RESULT:      -8.4      2.806      5.797
REMARK  5 active torsions:
REMARK  status: ('A' for Active; 'I' for Inactive)
REMARK    1  A    between atoms: C_4  and  C_5 
REMARK    2  A    between atoms: C_17  and  C_18 
REMARK    3  A    between atoms: C_18  and  N_19 
REMARK       I    between atoms: N_19  and  C_20 
REMARK    4  A    between atoms: C_20  and  C_21 
REMARK    5  A    between atoms: C_21  and  C_22 
ROOT
HETATM    1  C   UNL     1     -41.301  58.735 -51.221  1.00  0.00     0.048 C 
HETATM    2  C   UNL     1     -41.368  57.723 -52.327  1.00  0.00    -0.060 A 
HETATM    3  C   UNL     1     -40.983  56.385 -52.100  1.00  0.00     0.024 A 
HETATM    4  C   UNL     1     -41.059  55.402 -53.108  1.00  0.00     0.034 A 
HETATM    5  C   UNL     1     -41.558  55.813 -54.338  1.00  0.00     0.088 A 
HETATM    6  C   UNL     1     -41.944  57.128 -54.572  1.00  0.00    -0.021 A 
HETATM    7  C   UNL     1     -42.505  57.261 -55.934  1.00  0.00     0.075 C 
HETATM    8  C   UNL     1     -42.127  55.891 -56.515  1.00  0.00     0.151 C 
HETATM    9  O   UNL     1     -41.787  54.998 -55.420  1.00  0.00    -0.342 OA
HETATM   10  C   UNL     1     -41.858  58.093 -53.583  1.00  0.00     0.017 A 
ENDROOT
BRANCH   8  11
HETATM   11  C   UNL     1     -43.269  55.258 -57.320  1.00  0.00     0.155 C 
BRANCH  11  12
HETATM   12  N   UNL     1     -43.922  56.174 -58.241  1.00  0.00    -0.359 N 
HETATM   13  C   UNL     1     -43.468  56.358 -59.529  1.00  0.00     0.219 C 
HETATM   14  O   UNL     1     -42.485  55.782 -59.979  1.00  0.00    -0.274 OA
HETATM   15  H   UNL     1     -44.783  56.618 -57.948  1.00  0.00     0.162 HD
BRANCH  13  16
HETATM   16  C   UNL     1     -44.302  57.352 -60.308  1.00  0.00     0.128 C 
BRANCH  16  17
HETATM   17  C   UNL     1     -43.530  58.616 -60.710  1.00  0.00     0.094 C 
HETATM   18  N   UNL     1     -44.469  59.617 -61.210  1.00  0.00    -0.362 N 
HETATM   19  C   UNL     1     -45.077  60.547 -60.433  1.00  0.00     0.168 C 
HETATM   20  H   UNL     1     -44.831  59.526 -62.153  1.00  0.00     0.162 HD
HETATM   21  S   UNL     1     -46.320  61.476 -61.019  1.00  0.00    -0.041 SA
HETATM   22  N   UNL     1     -44.615  60.708 -59.169  1.00  0.00    -0.363 N 
HETATM   23  C   UNL     1     -43.612  59.865 -58.540  1.00  0.00     0.081 C 
HETATM   24  H   UNL     1     -45.132  61.366 -58.599  1.00  0.00     0.162 HD
HETATM   25  C   UNL     1     -42.811  60.662 -57.516  1.00  0.00     0.032 C 
HETATM   26  C   UNL     1     -42.694  59.243 -59.590  1.00  0.00     0.050 C 
ENDBRANCH  16  17
ENDBRANCH  13  16
ENDBRANCH  11  12
ENDBRANCH   8  11
BRANCH   4  27
HETATM   27  C   UNL     1     -40.638  54.030 -52.789  1.00  0.00     0.112 A 
HETATM   28  S   UNL     1     -40.507  53.481 -51.162  1.00  0.00    -0.067 SA
HETATM   29  C   UNL     1     -40.091  51.906 -51.711  1.00  0.00     0.035 A 
HETATM   30  C   UNL     1     -40.098  51.898 -53.105  1.00  0.00     0.075 A 
HETATM   31  C   UNL     1     -39.788  50.756 -50.963  1.00  0.00     0.021 A 
HETATM   32  N   UNL     1     -40.422  53.103 -53.703  1.00  0.00    -0.239 NA
HETATM   33  C   UNL     1     -39.789  50.698 -53.777  1.00  0.00     0.033 A 
HETATM   34  C   UNL     1     -39.484  49.547 -53.044  1.00  0.00     0.002 A 
HETATM   35  C   UNL     1     -39.485  49.578 -51.653  1.00  0.00     0.002 A 
ENDBRANCH   4  27
TORSDOF 5
ENDMDL
MODEL 7
REMARK VINA RESULT:      -8.4      3.422      8.211
REMARK  5 active torsions:
REMARK  status: ('A' for Active; 'I' for Inactive)
REMARK    1  A    between atoms: C_4  and  C_5 
REMARK    2  A    between atoms: C_17  and  C_18 
REMARK    3  A    between atoms: C_18  and  N_19 
REMARK       I    between atoms: N_19  and  C_20 
REMARK    4  A    between atoms: C_20  and  C_21 
REMARK    5  A    between atoms: C_21  and  C_22 
ROOT
HETATM    1  C   UNL     1     -39.966  52.289 -53.702  1.00  0.00     0.048 C 
HETATM    2  C   UNL     1     -40.810  53.529 -53.649  1.00  0.00    -0.060 A 
HETATM    3  C   UNL     1     -41.287  54.123 -54.836  1.00  0.00     0.024 A 
HETATM    4  C   UNL     1     -42.105  55.272 -54.823  1.00  0.00     0.034 A 
HETATM    5  C   UNL     1     -42.440  55.779 -53.573  1.00  0.00     0.088 A 
HETATM    6  C   UNL     1     -41.979  55.199 -52.397  1.00  0.00    -0.021 A 
HETATM    7  C   UNL     1     -42.553  55.895 -51.225  1.00  0.00     0.075 C 
HETATM    8  C   UNL     1     -43.184  57.111 -51.918  1.00  0.00     0.151 C 
HETATM    9  O   UNL     1     -43.287  56.835 -53.341  1.00  0.00    -0.342 OA
HETATM   10  C   UNL     1     -41.167  54.077 -52.413  1.00  0.00     0.017 A 
ENDROOT
BRANCH   8  11
HETATM   11  C   UNL     1     -44.586  57.430 -51.383  1.00  0.00     0.155 C 
BRANCH  11  12
HETATM   12  N   UNL     1     -44.617  58.512 -50.413  1.00  0.00    -0.359 N 
HETATM   13  C   UNL     1     -45.601  59.476 -50.429  1.00  0.00     0.219 C 
HETATM   14  O   UNL     1     -46.498  59.501 -51.262  1.00  0.00    -0.274 OA
HETATM   15  H   UNL     1     -43.945  58.498 -49.656  1.00  0.00     0.162 HD
BRANCH  13  16
HETATM   16  C   UNL     1     -45.437  60.499 -49.326  1.00  0.00     0.128 C 
BRANCH  16  17
HETATM   17  C   UNL     1     -46.001  61.881 -49.684  1.00  0.00     0.094 C 
HETATM   18  N   UNL     1     -46.704  62.431 -48.527  1.00  0.00    -0.362 N 
HETATM   19  C   UNL     1     -46.120  63.199 -47.574  1.00  0.00     0.168 C 
HETATM   20  H   UNL     1     -47.637  62.095 -48.312  1.00  0.00     0.162 HD
HETATM   21  S   UNL     1     -46.911  63.567 -46.163  1.00  0.00    -0.041 SA
HETATM   22  N   UNL     1     -44.878  63.678 -47.829  1.00  0.00    -0.363 N 
HETATM   23  C   UNL     1     -44.070  63.314 -48.980  1.00  0.00     0.081 C 
HETATM   24  H   UNL     1     -44.449  64.195 -47.070  1.00  0.00     0.162 HD
HETATM   25  C   UNL     1     -43.150  64.466 -49.372  1.00  0.00     0.032 C 
HETATM   26  C   UNL     1     -44.957  62.900 -50.152  1.00  0.00     0.050 C 
ENDBRANCH  16  17
ENDBRANCH  13  16
ENDBRANCH  11  12
ENDBRANCH   8  11
BRANCH   4  27
HETATM   27  C   UNL     1     -42.560  55.829 -56.105  1.00  0.00     0.112 A 
HETATM   28  S   UNL     1     -42.399  57.504 -56.469  1.00  0.00    -0.067 SA
HETATM   29  C   UNL     1     -43.043  57.240 -58.040  1.00  0.00     0.035 A 
HETATM   30  C   UNL     1     -43.322  55.883 -58.190  1.00  0.00     0.075 A 
HETATM   31  C   UNL     1     -43.279  58.166 -59.071  1.00  0.00     0.021 A 
HETATM   32  N   UNL     1     -43.032  55.092 -57.093  1.00  0.00    -0.239 NA
HETATM   33  C   UNL     1     -43.858  55.432 -59.415  1.00  0.00     0.033 A 
HETATM   34  C   UNL     1     -44.097  56.343 -60.448  1.00  0.00     0.002 A 
HETATM   35  C   UNL     1     -43.810  57.693 -60.276  1.00  0.00     0.002 A 
ENDBRANCH   4  27
TORSDOF 5
ENDMDL
MODEL 8
REMARK VINA RESULT:      -8.3      2.924      5.924
REMARK  5 active torsions:
REMARK  status: ('A' for Active; 'I' for Inactive)
REMARK    1  A    between atoms: C_4  and  C_5 
REMARK    2  A    between atoms: C_17  and  C_18 
REMARK    3  A    between atoms: C_18  and  N_19 
REMARK       I    between atoms: N_19  and  C_20 
REMARK    4  A    between atoms: C_20  and  C_21 
REMARK    5  A    between atoms: C_21  and  C_22 
ROOT
HETATM    1  C   UNL     1     -41.331  58.620 -50.665  1.00  0.00     0.048 C 
HETATM    2  C   UNL     1     -41.400  57.789 -51.913  1.00  0.00    -0.060 A 
HETATM    3  C   UNL     1     -41.012  56.433 -51.893  1.00  0.00     0.024 A 
HETATM    4  C   UNL     1     -41.088  55.615 -53.040  1.00  0.00     0.034 A 
HETATM    5  C   UNL     1     -41.592  56.209 -54.191  1.00  0.00     0.088 A 
HETATM    6  C   UNL     1     -41.982  57.542 -54.220  1.00  0.00    -0.021 A 
HETATM    7  C   UNL     1     -42.549  57.881 -55.544  1.00  0.00     0.075 C 
HETATM    8  C   UNL     1     -42.169  56.617 -56.329  1.00  0.00     0.151 C 
HETATM    9  O   UNL     1     -41.824  55.568 -55.384  1.00  0.00    -0.342 OA
HETATM   10  C   UNL     1     -41.895  58.346 -53.096  1.00  0.00     0.017 A 
ENDROOT
BRANCH   8  11
HETATM   11  C   UNL     1     -43.313  56.112 -57.217  1.00  0.00     0.155 C 
BRANCH  11  12
HETATM   12  N   UNL     1     -43.424  56.805 -58.490  1.00  0.00    -0.359 N 
HETATM   13  C   UNL     1     -44.518  57.581 -58.803  1.00  0.00     0.219 C 
HETATM   14  O   UNL     1     -45.472  57.728 -58.048  1.00  0.00    -0.274 OA
HETATM   15  H   UNL     1     -42.633  56.782 -59.121  1.00  0.00     0.162 HD
BRANCH  13  16
HETATM   16  C   UNL     1     -44.418  58.209 -60.176  1.00  0.00     0.128 C 
BRANCH  16  17
HETATM   17  C   UNL     1     -44.633  59.729 -60.172  1.00  0.00     0.094 C 
HETATM   18  N   UNL     1     -43.919  60.315 -59.040  1.00  0.00    -0.362 N 
HETATM   19  C   UNL     1     -42.637  60.755 -59.092  1.00  0.00     0.168 C 
HETATM   20  H   UNL     1     -44.324  60.246 -58.112  1.00  0.00     0.162 HD
HETATM   21  S   UNL     1     -41.812  61.164 -57.712  1.00  0.00    -0.041 SA
HETATM   22  N   UNL     1     -42.064  60.874 -60.314  1.00  0.00    -0.363 N 
HETATM   23  C   UNL     1     -42.669  60.432 -61.560  1.00  0.00     0.081 C 
HETATM   24  H   UNL     1     -41.088  61.145 -60.311  1.00  0.00     0.162 HD
HETATM   25  C   UNL     1     -42.195  61.302 -62.720  1.00  0.00     0.032 C 
HETATM   26  C   UNL     1     -44.192  60.445 -61.453  1.00  0.00     0.050 C 
ENDBRANCH  16  17
ENDBRANCH  13  16
ENDBRANCH  11  12
ENDBRANCH   8  11
BRANCH   4  27
HETATM   27  C   UNL     1     -40.664  54.212 -52.936  1.00  0.00     0.112 A 
HETATM   28  S   UNL     1     -40.254  53.503 -51.421  1.00  0.00    -0.067 SA
HETATM   29  C   UNL     1     -40.001  51.983 -52.183  1.00  0.00     0.035 A 
HETATM   30  C   UNL     1     -40.265  52.113 -53.546  1.00  0.00     0.075 A 
HETATM   31  C   UNL     1     -39.604  50.760 -51.617  1.00  0.00     0.021 A 
HETATM   32  N   UNL     1     -40.653  53.376 -53.957  1.00  0.00    -0.239 NA
HETATM   33  C   UNL     1     -40.127  50.981 -54.375  1.00  0.00     0.033 A 
HETATM   34  C   UNL     1     -39.732  49.758 -53.823  1.00  0.00     0.002 A 
HETATM   35  C   UNL     1     -39.475  49.651 -52.460  1.00  0.00     0.002 A 
ENDBRANCH   4  27
TORSDOF 5
ENDMDL
MODEL 9
REMARK VINA RESULT:      -8.2      2.572      5.982
REMARK  5 active torsions:
REMARK  status: ('A' for Active; 'I' for Inactive)
REMARK    1  A    between atoms: C_4  and  C_5 
REMARK    2  A    between atoms: C_17  and  C_18 
REMARK    3  A    between atoms: C_18  and  N_19 
REMARK       I    between atoms: N_19  and  C_20 
REMARK    4  A    between atoms: C_20  and  C_21 
REMARK    5  A    between atoms: C_21  and  C_22 
ROOT
HETATM    1  C   UNL     1     -45.160  57.978 -51.052  1.00  0.00     0.048 C 
HETATM    2  C   UNL     1     -44.307  57.573 -52.218  1.00  0.00    -0.060 A 
HETATM    3  C   UNL     1     -43.484  56.430 -52.142  1.00  0.00     0.024 A 
HETATM    4  C   UNL     1     -42.690  56.005 -53.228  1.00  0.00     0.034 A 
HETATM    5  C   UNL     1     -42.778  56.758 -54.392  1.00  0.00     0.088 A 
HETATM    6  C   UNL     1     -43.589  57.884 -54.479  1.00  0.00    -0.021 A 
HETATM    7  C   UNL     1     -43.547  58.439 -55.850  1.00  0.00     0.075 C 
HETATM    8  C   UNL     1     -42.389  57.619 -56.435  1.00  0.00     0.151 C 
HETATM    9  O   UNL     1     -42.154  56.467 -55.581  1.00  0.00    -0.342 OA
HETATM   10  C   UNL     1     -44.359  58.305 -53.408  1.00  0.00     0.017 A 
ENDROOT
BRANCH   8  11
HETATM   11  C   UNL     1     -42.683  57.116 -57.854  1.00  0.00     0.155 C 
BRANCH  11  12
HETATM   12  N   UNL     1     -42.039  57.891 -58.902  1.00  0.00    -0.359 N 
HETATM   13  C   UNL     1     -42.683  58.200 -60.080  1.00  0.00     0.219 C 
HETATM   14  O   UNL     1     -43.825  57.835 -60.333  1.00  0.00    -0.274 OA
HETATM   15  H   UNL     1     -41.124  58.284 -58.717  1.00  0.00     0.162 HD
BRANCH  13  16
HETATM   16  C   UNL     1     -41.824  59.016 -61.021  1.00  0.00     0.128 C 
BRANCH  16  17
HETATM   17  C   UNL     1     -42.393  60.411 -61.316  1.00  0.00     0.094 C 
HETATM   18  N   UNL     1     -43.512  60.677 -60.415  1.00  0.00    -0.362 N 
HETATM   19  C   UNL     1     -43.389  61.265 -59.199  1.00  0.00     0.168 C 
HETATM   20  H   UNL     1     -44.414  60.257 -60.612  1.00  0.00     0.162 HD
HETATM   21  S   UNL     1     -44.655  61.298 -58.129  1.00  0.00    -0.041 SA
HETATM   22  N   UNL     1     -42.202  61.849 -58.902  1.00  0.00    -0.363 N 
HETATM   23  C   UNL     1     -41.010  61.769 -59.728  1.00  0.00     0.081 C 
HETATM   24  H   UNL     1     -42.126  62.223 -57.964  1.00  0.00     0.162 HD
HETATM   25  C   UNL     1     -40.157  63.023 -59.558  1.00  0.00     0.032 C 
HETATM   26  C   UNL     1     -41.382  61.556 -61.194  1.00  0.00     0.050 C 
ENDBRANCH  16  17
ENDBRANCH  13  16
ENDBRANCH  11  12
ENDBRANCH   8  11
BRANCH   4  27
HETATM   27  C   UNL     1     -41.860  54.802 -53.066  1.00  0.00     0.112 A 
HETATM   28  S   UNL     1     -41.109  54.418 -51.565  1.00  0.00    -0.067 SA
HETATM   29  C   UNL     1     -40.495  52.957 -52.229  1.00  0.00     0.035 A 
HETATM   30  C   UNL     1     -40.921  52.848 -53.552  1.00  0.00     0.075 A 
HETATM   31  C   UNL     1     -39.698  51.971 -51.622  1.00  0.00     0.021 A 
HETATM   32  N   UNL     1     -41.704  53.892 -54.010  1.00  0.00    -0.239 NA
HETATM   33  C   UNL     1     -40.537  51.715 -54.297  1.00  0.00     0.033 A 
HETATM   34  C   UNL     1     -39.744  50.727 -53.704  1.00  0.00     0.002 A 
HETATM   35  C   UNL     1     -39.332  50.856 -52.382  1.00  0.00     0.002 A 
ENDBRANCH   4  27
TORSDOF 5
ENDMDL
MODEL 10
REMARK VINA RESULT:      -8.2      1.742      2.516
REMARK  5 active torsions:
REMARK  status: ('A' for Active; 'I' for Inactive)
REMARK    1  A    between atoms: C_4  and  C_5 
REMARK    2  A    between atoms: C_17  and  C_18 
REMARK    3  A    between atoms: C_18  and  N_19 
REMARK       I    between atoms: N_19  and  C_20 
REMARK    4  A    between atoms: C_20  and  C_21 
REMARK    5  A    between atoms: C_21  and  C_22 
ROOT
HETATM    1  C   UNL     1     -39.877  53.865 -49.606  1.00  0.00     0.048 C 
HETATM    2  C   UNL     1     -40.738  54.378 -50.724  1.00  0.00    -0.060 A 
HETATM    3  C   UNL     1     -41.421  55.605 -50.597  1.00  0.00     0.024 A 
HETATM    4  C   UNL     1     -42.216  56.130 -51.637  1.00  0.00     0.034 A 
HETATM    5  C   UNL     1     -42.273  55.386 -52.810  1.00  0.00     0.088 A 
HETATM    6  C   UNL     1     -41.600  54.178 -52.947  1.00  0.00    -0.021 A 
HETATM    7  C   UNL     1     -41.774  53.648 -54.316  1.00  0.00     0.075 C 
HETATM    8  C   UNL     1     -42.860  54.600 -54.836  1.00  0.00     0.151 C 
HETATM    9  O   UNL     1     -42.921  55.760 -53.963  1.00  0.00    -0.342 OA
HETATM   10  C   UNL     1     -40.829  53.660 -51.920  1.00  0.00     0.017 A 
ENDROOT
BRANCH   8  11
HETATM   11  C   UNL     1     -42.583  55.084 -56.265  1.00  0.00     0.155 C 
BRANCH  11  12
HETATM   12  N   UNL     1     -43.641  55.906 -56.827  1.00  0.00    -0.359 N 
HETATM   13  C   UNL     1     -43.525  56.496 -58.067  1.00  0.00     0.219 C 
HETATM   14  O   UNL     1     -42.527  56.384 -58.768  1.00  0.00    -0.274 OA
HETATM   15  H   UNL     1     -44.519  55.970 -56.325  1.00  0.00     0.162 HD
BRANCH  13  16
HETATM   16  C   UNL     1     -44.748  57.301 -58.450  1.00  0.00     0.128 C 
BRANCH  16  17
HETATM   17  C   UNL     1     -44.539  58.818 -58.344  1.00  0.00     0.094 C 
HETATM   18  N   UNL     1     -45.754  59.505 -58.776  1.00  0.00    -0.362 N 
HETATM   19  C   UNL     1     -46.773  59.846 -57.948  1.00  0.00     0.168 C 
HETATM   20  H   UNL     1     -45.946  59.590 -59.769  1.00  0.00     0.162 HD
HETATM   21  S   UNL     1     -48.223  60.384 -58.546  1.00  0.00    -0.041 SA
HETATM   22  N   UNL     1     -46.552  59.757 -56.614  1.00  0.00    -0.363 N 
HETATM   23  C   UNL     1     -45.360  59.191 -56.007  1.00  0.00     0.081 C 
HETATM   24  H   UNL     1     -47.354  59.960 -56.028  1.00  0.00     0.162 HD
HETATM   25  C   UNL     1     -45.075  59.859 -54.665  1.00  0.00     0.032 C 
HETATM   26  C   UNL     1     -44.163  59.321 -56.946  1.00  0.00     0.050 C 
ENDBRANCH  16  17
ENDBRANCH  13  16
ENDBRANCH  11  12
ENDBRANCH   8  11
BRANCH   4  27
HETATM   27  C   UNL     1     -42.897  57.416 -51.425  1.00  0.00     0.112 A 
HETATM   28  S   UNL     1     -42.038  58.909 -51.462  1.00  0.00    -0.067 SA
HETATM   29  C   UNL     1     -43.504  59.775 -51.234  1.00  0.00     0.035 A 
HETATM   30  C   UNL     1     -44.559  58.866 -51.163  1.00  0.00     0.075 A 
HETATM   31  C   UNL     1     -43.710  61.162 -51.131  1.00  0.00     0.021 A 
HETATM   32  N   UNL     1     -44.204  57.535 -51.287  1.00  0.00    -0.239 NA
HETATM   33  C   UNL     1     -45.868  59.359 -50.982  1.00  0.00     0.033 A 
HETATM   34  C   UNL     1     -46.086  60.736 -50.879  1.00  0.00     0.002 A 
HETATM   35  C   UNL     1     -45.018  61.625 -50.953  1.00  0.00     0.002 A 
ENDBRANCH   4  27
TORSDOF 5
ENDMDL
