MODEL 1
REMARK VINA RESULT:      -8.4      0.000      0.000
REMARK  9 active torsions:
REMARK  status: ('A' for Active; 'I' for Inactive)
REMARK    1  A    between atoms: C_2  and  C_3 
REMARK    2  A    between atoms: C_3  and  C_4 
REMARK    3  A    between atoms: C_4  and  C_5 
REMARK    4  A    between atoms: C_5  and  N_6 
REMARK    5  A    between atoms: C_15  and  C_16 
REMARK       I    between atoms: C_16  and  N_17 
REMARK    6  A    between atoms: N_17  and  C_18 
REMARK    7  A    between atoms: C_18  and  C_19 
REMARK    8  A    between atoms: C_19  and  N_20 
REMARK    9  A    between atoms: N_24  and  C_25 
ROOT
HETATM    1  C   UNL     1     -45.473  60.176 -52.137  1.00  0.00     0.251 C 
HETATM    2  N   UNL     1     -44.538  59.168 -52.114  1.00  0.00    -0.355 N 
HETATM    3  O   UNL     1     -46.073  60.496 -53.159  1.00  0.00    -0.268 OA
HETATM    4  H   UNL     1     -44.106  58.944 -51.223  1.00  0.00     0.162 HD
ENDROOT
BRANCH   1   5
HETATM    5  C   UNL     1     -45.752  60.883 -50.863  1.00  0.00     0.034 A 
HETATM    6  C   UNL     1     -45.288  60.388 -49.636  1.00  0.00     0.047 A 
HETATM    7  C   UNL     1     -45.465  61.152 -48.479  1.00  0.00     0.053 A 
HETATM    8  N   UNL     1     -44.978  60.694 -47.259  1.00  0.00    -0.308 N 
HETATM    9  C   UNL     1     -46.106  62.385 -48.539  1.00  0.00     0.059 A 
HETATM   10  C   UNL     1     -45.046  61.406 -46.093  1.00  0.00     0.329 A 
HETATM   11  H   UNL     1     -44.516  59.797 -47.172  1.00  0.00     0.170 HD
HETATM   12  N   UNL     1     -45.632  62.659 -46.160  1.00  0.00    -0.266 N 
HETATM   13  O   UNL     1     -44.587  60.903 -45.070  1.00  0.00    -0.246 OA
HETATM   14  C   UNL     1     -46.228  63.181 -47.304  1.00  0.00     0.264 A 
HETATM   15  O   UNL     1     -46.833  64.250 -47.348  1.00  0.00    -0.267 OA
HETATM   16  C   UNL     1     -46.587  62.871 -49.759  1.00  0.00     0.020 A 
HETATM   17  C   UNL     1     -46.399  62.124 -50.922  1.00  0.00     0.018 A 
BRANCH  12  18
HETATM   18  C   UNL     1     -45.683  63.460 -44.941  1.00  0.00     0.137 C 
BRANCH  18  19
HETATM   19  C   UNL     1     -44.658  64.597 -44.958  1.00  0.00     0.020 C 
BRANCH  19  20
HETATM   20  C   UNL     1     -44.026  64.782 -43.578  1.00  0.00     0.001 C 
BRANCH  20  21
HETATM   21  C   UNL     1     -44.113  63.503 -42.746  1.00  0.00    -0.004 C 
HETATM   22  C   UNL     1     -43.493  63.694 -41.371  1.00  0.00     0.005 C 
ENDBRANCH  20  21
ENDBRANCH  19  20
ENDBRANCH  18  19
ENDBRANCH  12  18
ENDBRANCH   1   5
BRANCH   2  23
HETATM   23  C   UNL     1     -43.907  58.595 -53.304  1.00  0.00     0.150 C 
BRANCH  23  24
HETATM   24  C   UNL     1     -44.396  57.202 -53.774  1.00  0.00     0.254 C 
BRANCH  24  25
HETATM   25  N   UNL     1     -43.304  56.343 -54.353  1.00  0.00    -0.067 N 
HETATM   26  H   UNL     1     -43.190  56.659 -55.339  1.00  0.00     0.280 HD
HETATM   27  C   UNL     1     -41.924  56.519 -53.726  1.00  0.00     0.254 C 
HETATM   28  C   UNL     1     -40.875  55.725 -54.533  1.00  0.00     0.150 C 
HETATM   29  N   UNL     1     -41.259  54.308 -54.642  1.00  0.00    -0.378 N 
HETATM   30  C   UNL     1     -42.600  54.074 -55.215  1.00  0.00     0.150 C 
HETATM   31  C   UNL     1     -43.675  54.866 -54.435  1.00  0.00     0.254 C 
BRANCH  29  32
HETATM   32  C   UNL     1     -40.675  53.330 -53.845  1.00  0.00     0.031 A 
HETATM   33  C   UNL     1     -40.306  52.068 -54.335  1.00  0.00     0.053 A 
HETATM   34  C   UNL     1     -39.750  51.092 -53.498  1.00  0.00     0.036 A 
HETATM   35 CL   UNL     1     -39.307  49.565 -54.158  1.00  0.00    -0.084 Cl
HETATM   36  C   UNL     1     -39.553  51.343 -52.147  1.00  0.00     0.024 A 
HETATM   37  C   UNL     1     -39.920  52.580 -51.630  1.00  0.00     0.004 A 
HETATM   38  C   UNL     1     -40.474  53.553 -52.471  1.00  0.00     0.029 A 
ENDBRANCH  29  32
ENDBRANCH  24  25
ENDBRANCH  23  24
ENDBRANCH   2  23
TORSDOF 9
ENDMDL
MODEL 2
REMARK VINA RESULT:      -8.3      5.740      9.418
REMARK  9 active torsions:
REMARK  status: ('A' for Active; 'I' for Inactive)
REMARK    1  A    between atoms: C_2  and  C_3 
REMARK    2  A    between atoms: C_3  and  C_4 
REMARK    3  A    between atoms: C_4  and  C_5 
REMARK    4  A    between atoms: C_5  and  N_6 
REMARK    5  A    between atoms: C_15  and  C_16 
REMARK       I    between atoms: C_16  and  N_17 
REMARK    6  A    between atoms: N_17  and  C_18 
REMARK    7  A    between atoms: C_18  and  C_19 
REMARK    8  A    between atoms: C_19  and  N_20 
REMARK    9  A    between atoms: N_24  and  C_25 
ROOT
HETATM    1  C   UNL     1     -45.550  60.574 -54.195  1.00  0.00     0.251 C 
HETATM    2  N   UNL     1     -46.139  60.589 -55.438  1.00  0.00    -0.355 N 
HETATM    3  O   UNL     1     -45.474  61.576 -53.491  1.00  0.00    -0.268 OA
HETATM    4  H   UNL     1     -46.188  59.712 -55.947  1.00  0.00     0.162 HD
ENDROOT
BRANCH   1   5
HETATM    5  C   UNL     1     -45.003  59.284 -53.710  1.00  0.00     0.034 A 
HETATM    6  C   UNL     1     -44.903  58.168 -54.553  1.00  0.00     0.047 A 
HETATM    7  C   UNL     1     -44.264  57.016 -54.089  1.00  0.00     0.053 A 
HETATM    8  N   UNL     1     -44.123  55.912 -54.925  1.00  0.00    -0.308 N 
HETATM    9  C   UNL     1     -43.743  56.967 -52.801  1.00  0.00     0.059 A 
HETATM   10  C   UNL     1     -43.454  54.770 -54.578  1.00  0.00     0.329 A 
HETATM   11  H   UNL     1     -44.499  55.904 -55.865  1.00  0.00     0.170 HD
HETATM   12  N   UNL     1     -42.884  54.741 -53.317  1.00  0.00    -0.266 N 
HETATM   13  O   UNL     1     -43.394  53.853 -55.394  1.00  0.00    -0.246 OA
HETATM   14  C   UNL     1     -43.034  55.749 -52.368  1.00  0.00     0.264 A 
HETATM   15  O   UNL     1     -42.612  55.689 -51.216  1.00  0.00    -0.267 OA
HETATM   16  C   UNL     1     -43.859  58.072 -51.951  1.00  0.00     0.020 A 
HETATM   17  C   UNL     1     -44.479  59.234 -52.411  1.00  0.00     0.018 A 
BRANCH  12  18
HETATM   18  C   UNL     1     -42.127  53.553 -52.931  1.00  0.00     0.137 C 
BRANCH  18  19
HETATM   19  C   UNL     1     -40.641  53.683 -53.274  1.00  0.00     0.020 C 
BRANCH  19  20
HETATM   20  C   UNL     1     -40.241  52.679 -54.355  1.00  0.00     0.001 C 
BRANCH  20  21
HETATM   21  C   UNL     1     -39.551  51.454 -53.756  1.00  0.00    -0.004 C 
HETATM   22  C   UNL     1     -40.164  50.163 -54.275  1.00  0.00     0.005 C 
ENDBRANCH  20  21
ENDBRANCH  19  20
ENDBRANCH  18  19
ENDBRANCH  12  18
ENDBRANCH   1   5
BRANCH   2  23
HETATM   23  C   UNL     1     -46.432  61.801 -56.203  1.00  0.00     0.150 C 
BRANCH  23  24
HETATM   24  C   UNL     1     -45.235  62.558 -56.832  1.00  0.00     0.254 C 
BRANCH  24  25
HETATM   25  N   UNL     1     -44.498  61.760 -57.875  1.00  0.00    -0.067 N 
HETATM   26  H   UNL     1     -44.062  62.462 -58.510  1.00  0.00     0.280 HD
HETATM   27  C   UNL     1     -43.332  60.921 -57.362  1.00  0.00     0.254 C 
HETATM   28  C   UNL     1     -42.560  60.312 -58.551  1.00  0.00     0.150 C 
HETATM   29  N   UNL     1     -43.460  59.537 -59.421  1.00  0.00    -0.378 N 
HETATM   30  C   UNL     1     -44.628  60.288 -59.926  1.00  0.00     0.150 C 
HETATM   31  C   UNL     1     -45.418  60.923 -58.758  1.00  0.00     0.254 C 
BRANCH  29  32
HETATM   32  C   UNL     1     -43.511  58.149 -59.369  1.00  0.00     0.031 A 
HETATM   33  C   UNL     1     -44.197  57.375 -60.317  1.00  0.00     0.053 A 
HETATM   34  C   UNL     1     -44.256  55.979 -60.217  1.00  0.00     0.036 A 
HETATM   35 CL   UNL     1     -45.104  55.082 -61.417  1.00  0.00    -0.084 Cl
HETATM   36  C   UNL     1     -43.639  55.315 -59.166  1.00  0.00     0.024 A 
HETATM   37  C   UNL     1     -42.962  56.055 -58.205  1.00  0.00     0.004 A 
HETATM   38  C   UNL     1     -42.904  57.450 -58.309  1.00  0.00     0.029 A 
ENDBRANCH  29  32
ENDBRANCH  24  25
ENDBRANCH  23  24
ENDBRANCH   2  23
TORSDOF 9
ENDMDL
MODEL 3
REMARK VINA RESULT:      -8.2      2.286      3.895
REMARK  9 active torsions:
REMARK  status: ('A' for Active; 'I' for Inactive)
REMARK    1  A    between atoms: C_2  and  C_3 
REMARK    2  A    between atoms: C_3  and  C_4 
REMARK    3  A    between atoms: C_4  and  C_5 
REMARK    4  A    between atoms: C_5  and  N_6 
REMARK    5  A    between atoms: C_15  and  C_16 
REMARK       I    between atoms: C_16  and  N_17 
REMARK    6  A    between atoms: N_17  and  C_18 
REMARK    7  A    between atoms: C_18  and  C_19 
REMARK    8  A    between atoms: C_19  and  N_20 
REMARK    9  A    between atoms: N_24  and  C_25 
ROOT
HETATM    1  C   UNL     1     -42.777  59.477 -56.146  1.00  0.00     0.251 C 
HETATM    2  N   UNL     1     -43.462  58.476 -56.794  1.00  0.00    -0.355 N 
HETATM    3  O   UNL     1     -41.663  59.851 -56.503  1.00  0.00    -0.268 OA
HETATM    4  H   UNL     1     -44.390  58.244 -56.455  1.00  0.00     0.162 HD
ENDROOT
BRANCH   1   5
HETATM    5  C   UNL     1     -43.435  60.117 -54.981  1.00  0.00     0.034 A 
HETATM    6  C   UNL     1     -44.118  59.358 -54.020  1.00  0.00     0.047 A 
HETATM    7  C   UNL     1     -44.611  59.990 -52.875  1.00  0.00     0.053 A 
HETATM    8  N   UNL     1     -45.259  59.247 -51.893  1.00  0.00    -0.308 N 
HETATM    9  C   UNL     1     -44.439  61.358 -52.693  1.00  0.00     0.059 A 
HETATM   10  C   UNL     1     -45.712  59.769 -50.713  1.00  0.00     0.329 A 
HETATM   11  H   UNL     1     -45.414  58.251 -51.994  1.00  0.00     0.170 HD
HETATM   12  N   UNL     1     -45.491  61.120 -50.503  1.00  0.00    -0.266 N 
HETATM   13  O   UNL     1     -46.275  59.022 -49.916  1.00  0.00    -0.246 OA
HETATM   14  C   UNL     1     -44.932  61.975 -51.448  1.00  0.00     0.264 A 
HETATM   15  O   UNL     1     -44.820  63.191 -51.307  1.00  0.00    -0.267 OA
HETATM   16  C   UNL     1     -43.775  62.120 -53.660  1.00  0.00     0.020 A 
HETATM   17  C   UNL     1     -43.263  61.496 -54.798  1.00  0.00     0.018 A 
BRANCH  12  18
HETATM   18  C   UNL     1     -45.925  61.699 -49.235  1.00  0.00     0.137 C 
BRANCH  18  19
HETATM   19  C   UNL     1     -44.800  61.722 -48.198  1.00  0.00     0.020 C 
BRANCH  19  20
HETATM   20  C   UNL     1     -45.189  60.924 -46.954  1.00  0.00     0.001 C 
BRANCH  20  21
HETATM   21  C   UNL     1     -45.073  61.770 -45.686  1.00  0.00    -0.004 C 
HETATM   22  C   UNL     1     -44.256  61.061 -44.618  1.00  0.00     0.005 C 
ENDBRANCH  20  21
ENDBRANCH  19  20
ENDBRANCH  18  19
ENDBRANCH  12  18
ENDBRANCH   1   5
BRANCH   2  23
HETATM   23  C   UNL     1     -42.857  57.529 -57.732  1.00  0.00     0.150 C 
BRANCH  23  24
HETATM   24  C   UNL     1     -42.949  56.022 -57.387  1.00  0.00     0.254 C 
BRANCH  24  25
HETATM   25  N   UNL     1     -42.769  55.726 -55.921  1.00  0.00    -0.067 N 
HETATM   26  H   UNL     1     -43.330  56.446 -55.418  1.00  0.00     0.280 HD
HETATM   27  C   UNL     1     -43.332  54.391 -55.444  1.00  0.00     0.254 C 
HETATM   28  C   UNL     1     -43.247  54.304 -53.906  1.00  0.00     0.150 C 
HETATM   29  N   UNL     1     -41.866  54.522 -53.443  1.00  0.00    -0.378 N 
HETATM   30  C   UNL     1     -41.255  55.787 -53.899  1.00  0.00     0.150 C 
HETATM   31  C   UNL     1     -41.335  55.911 -55.438  1.00  0.00     0.254 C 
BRANCH  29  32
HETATM   32  C   UNL     1     -41.048  53.465 -53.063  1.00  0.00     0.031 A 
HETATM   33  C   UNL     1     -40.722  52.406 -53.924  1.00  0.00     0.053 A 
HETATM   34  C   UNL     1     -39.921  51.338 -53.500  1.00  0.00     0.036 A 
HETATM   35 CL   UNL     1     -39.546  50.072 -54.605  1.00  0.00    -0.084 Cl
HETATM   36  C   UNL     1     -39.428  51.291 -52.203  1.00  0.00     0.024 A 
HETATM   37  C   UNL     1     -39.743  52.320 -51.324  1.00  0.00     0.004 A 
HETATM   38  C   UNL     1     -40.543  53.386 -51.753  1.00  0.00     0.029 A 
ENDBRANCH  29  32
ENDBRANCH  24  25
ENDBRANCH  23  24
ENDBRANCH   2  23
TORSDOF 9
ENDMDL
MODEL 4
REMARK VINA RESULT:      -8.1      4.780      9.066
REMARK  9 active torsions:
REMARK  status: ('A' for Active; 'I' for Inactive)
REMARK    1  A    between atoms: C_2  and  C_3 
REMARK    2  A    between atoms: C_3  and  C_4 
REMARK    3  A    between atoms: C_4  and  C_5 
REMARK    4  A    between atoms: C_5  and  N_6 
REMARK    5  A    between atoms: C_15  and  C_16 
REMARK       I    between atoms: C_16  and  N_17 
REMARK    6  A    between atoms: N_17  and  C_18 
REMARK    7  A    between atoms: C_18  and  C_19 
REMARK    8  A    between atoms: C_19  and  N_20 
REMARK    9  A    between atoms: N_24  and  C_25 
ROOT
HETATM    1  C   UNL     1     -46.219  60.061 -51.477  1.00  0.00     0.251 C 
HETATM    2  N   UNL     1     -46.993  60.666 -52.440  1.00  0.00    -0.355 N 
HETATM    3  O   UNL     1     -46.234  60.415 -50.302  1.00  0.00    -0.268 OA
HETATM    4  H   UNL     1     -46.945  60.297 -53.384  1.00  0.00     0.162 HD
ENDROOT
BRANCH   1   5
HETATM    5  C   UNL     1     -45.349  58.937 -51.901  1.00  0.00     0.034 A 
HETATM    6  C   UNL     1     -44.704  58.118 -50.963  1.00  0.00     0.047 A 
HETATM    7  C   UNL     1     -43.999  56.996 -51.407  1.00  0.00     0.053 A 
HETATM    8  N   UNL     1     -43.384  56.151 -50.488  1.00  0.00    -0.308 N 
HETATM    9  C   UNL     1     -43.925  56.698 -52.763  1.00  0.00     0.059 A 
HETATM   10  C   UNL     1     -42.732  54.997 -50.827  1.00  0.00     0.329 A 
HETATM   11  H   UNL     1     -43.404  56.340 -49.493  1.00  0.00     0.170 HD
HETATM   12  N   UNL     1     -42.707  54.667 -52.171  1.00  0.00    -0.266 N 
HETATM   13  O   UNL     1     -42.220  54.327 -49.933  1.00  0.00    -0.246 OA
HETATM   14  C   UNL     1     -43.213  55.478 -53.183  1.00  0.00     0.264 A 
HETATM   15  O   UNL     1     -43.110  55.239 -54.384  1.00  0.00    -0.267 OA
HETATM   16  C   UNL     1     -44.552  57.525 -53.701  1.00  0.00     0.020 A 
HETATM   17  C   UNL     1     -45.274  58.638 -53.268  1.00  0.00     0.018 A 
BRANCH  12  18
HETATM   18  C   UNL     1     -42.056  53.420 -52.561  1.00  0.00     0.137 C 
BRANCH  18  19
HETATM   19  C   UNL     1     -40.611  53.644 -53.014  1.00  0.00     0.020 C 
BRANCH  19  20
HETATM   20  C   UNL     1     -40.212  52.630 -54.086  1.00  0.00     0.001 C 
BRANCH  20  21
HETATM   21  C   UNL     1     -39.629  51.360 -53.467  1.00  0.00    -0.004 C 
HETATM   22  C   UNL     1     -39.891  50.145 -54.343  1.00  0.00     0.005 C 
ENDBRANCH  20  21
ENDBRANCH  19  20
ENDBRANCH  18  19
ENDBRANCH  12  18
ENDBRANCH   1   5
BRANCH   2  23
HETATM   23  C   UNL     1     -47.647  61.966 -52.282  1.00  0.00     0.150 C 
BRANCH  23  24
HETATM   24  C   UNL     1     -47.084  63.155 -53.102  1.00  0.00     0.254 C 
BRANCH  24  25
HETATM   25  N   UNL     1     -45.621  63.021 -53.432  1.00  0.00    -0.067 N 
HETATM   26  H   UNL     1     -45.365  63.895 -53.938  1.00  0.00     0.280 HD
HETATM   27  C   UNL     1     -44.676  62.974 -52.234  1.00  0.00     0.254 C 
HETATM   28  C   UNL     1     -43.212  63.025 -52.717  1.00  0.00     0.150 C 
HETATM   29  N   UNL     1     -42.939  61.947 -53.683  1.00  0.00    -0.378 N 
HETATM   30  C   UNL     1     -43.842  61.922 -54.852  1.00  0.00     0.150 C 
HETATM   31  C   UNL     1     -45.321  61.882 -54.401  1.00  0.00     0.254 C 
BRANCH  29  32
HETATM   32  C   UNL     1     -42.267  60.788 -53.312  1.00  0.00     0.031 A 
HETATM   33  C   UNL     1     -41.990  60.461 -51.976  1.00  0.00     0.053 A 
HETATM   34  C   UNL     1     -41.282  59.302 -51.638  1.00  0.00     0.036 A 
HETATM   35 CL   UNL     1     -40.981  58.948 -49.980  1.00  0.00    -0.084 Cl
HETATM   36  C   UNL     1     -40.822  58.437 -52.622  1.00  0.00     0.024 A 
HETATM   37  C   UNL     1     -41.071  58.740 -53.955  1.00  0.00     0.004 A 
HETATM   38  C   UNL     1     -41.781  59.900 -54.289  1.00  0.00     0.029 A 
ENDBRANCH  29  32
ENDBRANCH  24  25
ENDBRANCH  23  24
ENDBRANCH   2  23
TORSDOF 9
ENDMDL
MODEL 5
REMARK VINA RESULT:      -8.1      6.995      9.993
REMARK  9 active torsions:
REMARK  status: ('A' for Active; 'I' for Inactive)
REMARK    1  A    between atoms: C_2  and  C_3 
REMARK    2  A    between atoms: C_3  and  C_4 
REMARK    3  A    between atoms: C_4  and  C_5 
REMARK    4  A    between atoms: C_5  and  N_6 
REMARK    5  A    between atoms: C_15  and  C_16 
REMARK       I    between atoms: C_16  and  N_17 
REMARK    6  A    between atoms: N_17  and  C_18 
REMARK    7  A    between atoms: C_18  and  C_19 
REMARK    8  A    between atoms: C_19  and  N_20 
REMARK    9  A    between atoms: N_24  and  C_25 
ROOT
HETATM    1  C   UNL     1     -42.024  60.878 -56.601  1.00  0.00     0.251 C 
HETATM    2  N   UNL     1     -42.814  61.958 -56.280  1.00  0.00    -0.355 N 
HETATM    3  O   UNL     1     -41.255  60.885 -57.557  1.00  0.00    -0.268 OA
HETATM    4  H   UNL     1     -43.402  61.884 -55.457  1.00  0.00     0.162 HD
ENDROOT
BRANCH   1   5
HETATM    5  C   UNL     1     -42.120  59.676 -55.737  1.00  0.00     0.034 A 
HETATM    6  C   UNL     1     -42.569  58.447 -56.242  1.00  0.00     0.047 A 
HETATM    7  C   UNL     1     -42.521  57.315 -55.425  1.00  0.00     0.053 A 
HETATM    8  N   UNL     1     -42.927  56.079 -55.921  1.00  0.00    -0.308 N 
HETATM    9  C   UNL     1     -42.048  57.404 -54.120  1.00  0.00     0.059 A 
HETATM   10  C   UNL     1     -42.851  54.909 -55.216  1.00  0.00     0.329 A 
HETATM   11  H   UNL     1     -43.288  55.975 -56.861  1.00  0.00     0.170 HD
HETATM   12  N   UNL     1     -42.325  54.986 -53.937  1.00  0.00    -0.266 N 
HETATM   13  O   UNL     1     -43.241  53.874 -55.750  1.00  0.00    -0.246 OA
HETATM   14  C   UNL     1     -41.969  56.175 -53.309  1.00  0.00     0.264 A 
HETATM   15  O   UNL     1     -41.593  56.261 -52.142  1.00  0.00    -0.267 OA
HETATM   16  C   UNL     1     -41.619  58.633 -53.608  1.00  0.00     0.020 A 
HETATM   17  C   UNL     1     -41.645  59.766 -54.422  1.00  0.00     0.018 A 
BRANCH  12  18
HETATM   18  C   UNL     1     -42.192  53.748 -53.173  1.00  0.00     0.137 C 
BRANCH  18  19
HETATM   19  C   UNL     1     -40.749  53.239 -53.152  1.00  0.00     0.020 C 
BRANCH  19  20
HETATM   20  C   UNL     1     -40.508  52.233 -54.278  1.00  0.00     0.001 C 
BRANCH  20  21
HETATM   21  C   UNL     1     -39.732  51.013 -53.783  1.00  0.00    -0.004 C 
HETATM   22  C   UNL     1     -39.515  51.066 -52.280  1.00  0.00     0.005 C 
ENDBRANCH  20  21
ENDBRANCH  19  20
ENDBRANCH  18  19
ENDBRANCH  12  18
ENDBRANCH   1   5
BRANCH   2  23
HETATM   23  C   UNL     1     -43.092  63.078 -57.180  1.00  0.00     0.150 C 
BRANCH  23  24
HETATM   24  C   UNL     1     -44.517  63.178 -57.779  1.00  0.00     0.254 C 
BRANCH  24  25
HETATM   25  N   UNL     1     -44.843  62.071 -58.748  1.00  0.00    -0.067 N 
HETATM   26  H   UNL     1     -45.633  62.428 -59.327  1.00  0.00     0.280 HD
HETATM   27  C   UNL     1     -43.747  61.729 -59.752  1.00  0.00     0.254 C 
HETATM   28  C   UNL     1     -44.281  60.721 -60.791  1.00  0.00     0.150 C 
HETATM   29  N   UNL     1     -44.821  59.522 -60.129  1.00  0.00    -0.378 N 
HETATM   30  C   UNL     1     -45.868  59.791 -59.121  1.00  0.00     0.150 C 
HETATM   31  C   UNL     1     -45.367  60.809 -58.071  1.00  0.00     0.254 C 
BRANCH  29  32
HETATM   32  C   UNL     1     -44.100  58.336 -60.066  1.00  0.00     0.031 A 
HETATM   33  C   UNL     1     -44.711  57.077 -59.958  1.00  0.00     0.053 A 
HETATM   34  C   UNL     1     -43.954  55.902 -59.863  1.00  0.00     0.036 A 
HETATM   35 CL   UNL     1     -44.760  54.385 -59.745  1.00  0.00    -0.084 Cl
HETATM   36  C   UNL     1     -42.567  55.948 -59.865  1.00  0.00     0.024 A 
HETATM   37  C   UNL     1     -41.933  57.181 -59.959  1.00  0.00     0.004 A 
HETATM   38  C   UNL     1     -42.694  58.353 -60.055  1.00  0.00     0.029 A 
ENDBRANCH  29  32
ENDBRANCH  24  25
ENDBRANCH  23  24
ENDBRANCH   2  23
TORSDOF 9
ENDMDL
MODEL 6
REMARK VINA RESULT:      -7.9      5.669      9.833
REMARK  9 active torsions:
REMARK  status: ('A' for Active; 'I' for Inactive)
REMARK    1  A    between atoms: C_2  and  C_3 
REMARK    2  A    between atoms: C_3  and  C_4 
REMARK    3  A    between atoms: C_4  and  C_5 
REMARK    4  A    between atoms: C_5  and  N_6 
REMARK    5  A    between atoms: C_15  and  C_16 
REMARK       I    between atoms: C_16  and  N_17 
REMARK    6  A    between atoms: N_17  and  C_18 
REMARK    7  A    between atoms: C_18  and  C_19 
REMARK    8  A    between atoms: C_19  and  N_20 
REMARK    9  A    between atoms: N_24  and  C_25 
ROOT
HETATM    1  C   UNL     1     -44.116  57.642 -53.657  1.00  0.00     0.251 C 
HETATM    2  N   UNL     1     -43.604  58.102 -52.466  1.00  0.00    -0.355 N 
HETATM    3  O   UNL     1     -45.088  56.894 -53.711  1.00  0.00    -0.268 OA
HETATM    4  H   UNL     1     -42.816  58.741 -52.507  1.00  0.00     0.162 HD
ENDROOT
BRANCH   1   5
HETATM    5  C   UNL     1     -43.455  58.088 -54.907  1.00  0.00     0.034 A 
HETATM    6  C   UNL     1     -43.608  57.380 -56.108  1.00  0.00     0.047 A 
HETATM    7  C   UNL     1     -43.072  57.908 -57.286  1.00  0.00     0.053 A 
HETATM    8  N   UNL     1     -43.247  57.238 -58.493  1.00  0.00    -0.308 N 
HETATM    9  C   UNL     1     -42.382  59.114 -57.269  1.00  0.00     0.059 A 
HETATM   10  C   UNL     1     -42.816  57.713 -59.701  1.00  0.00     0.329 A 
HETATM   11  H   UNL     1     -43.732  56.351 -58.544  1.00  0.00     0.170 HD
HETATM   12  N   UNL     1     -42.179  58.943 -59.696  1.00  0.00    -0.266 N 
HETATM   13  O   UNL     1     -43.020  57.036 -60.706  1.00  0.00    -0.246 OA
HETATM   14  C   UNL     1     -41.874  59.659 -58.542  1.00  0.00     0.264 A 
HETATM   15  O   UNL     1     -41.227  60.703 -58.521  1.00  0.00    -0.267 OA
HETATM   16  C   UNL     1     -42.211  59.812 -56.069  1.00  0.00     0.020 A 
HETATM   17  C   UNL     1     -42.758  59.304 -54.890  1.00  0.00     0.018 A 
BRANCH  12  18
HETATM   18  C   UNL     1     -41.745  59.498 -60.974  1.00  0.00     0.137 C 
BRANCH  18  19
HETATM   19  C   UNL     1     -42.807  60.407 -61.597  1.00  0.00     0.020 C 
BRANCH  19  20
HETATM   20  C   UNL     1     -42.426  61.879 -61.439  1.00  0.00     0.001 C 
BRANCH  20  21
HETATM   21  C   UNL     1     -41.154  62.215 -62.215  1.00  0.00    -0.004 C 
HETATM   22  C   UNL     1     -40.151  62.953 -61.343  1.00  0.00     0.005 C 
ENDBRANCH  20  21
ENDBRANCH  19  20
ENDBRANCH  18  19
ENDBRANCH  12  18
ENDBRANCH   1   5
BRANCH   2  23
HETATM   23  C   UNL     1     -43.907  57.527 -51.155  1.00  0.00     0.150 C 
BRANCH  23  24
HETATM   24  C   UNL     1     -43.788  55.990 -51.003  1.00  0.00     0.254 C 
BRANCH  24  25
HETATM   25  N   UNL     1     -42.391  55.470 -51.213  1.00  0.00    -0.067 N 
HETATM   26  H   UNL     1     -41.773  56.309 -51.197  1.00  0.00     0.280 HD
HETATM   27  C   UNL     1     -41.850  54.568 -50.107  1.00  0.00     0.254 C 
HETATM   28  C   UNL     1     -40.358  54.265 -50.358  1.00  0.00     0.150 C 
HETATM   29  N   UNL     1     -40.157  53.684 -51.697  1.00  0.00    -0.378 N 
HETATM   30  C   UNL     1     -40.688  54.499 -52.809  1.00  0.00     0.150 C 
HETATM   31  C   UNL     1     -42.181  54.830 -52.581  1.00  0.00     0.254 C 
BRANCH  29  32
HETATM   32  C   UNL     1     -39.965  52.321 -51.879  1.00  0.00     0.031 A 
HETATM   33  C   UNL     1     -39.881  51.725 -53.147  1.00  0.00     0.053 A 
HETATM   34  C   UNL     1     -39.720  50.342 -53.297  1.00  0.00     0.036 A 
HETATM   35 CL   UNL     1     -39.612  49.670 -54.878  1.00  0.00    -0.084 Cl
HETATM   36  C   UNL     1     -39.646  49.511 -52.188  1.00  0.00     0.024 A 
HETATM   37  C   UNL     1     -39.738  50.070 -50.919  1.00  0.00     0.004 A 
HETATM   38  C   UNL     1     -39.897  51.453 -50.774  1.00  0.00     0.029 A 
ENDBRANCH  29  32
ENDBRANCH  24  25
ENDBRANCH  23  24
ENDBRANCH   2  23
TORSDOF 9
ENDMDL
MODEL 7
REMARK VINA RESULT:      -7.9      4.593      8.258
REMARK  9 active torsions:
REMARK  status: ('A' for Active; 'I' for Inactive)
REMARK    1  A    between atoms: C_2  and  C_3 
REMARK    2  A    between atoms: C_3  and  C_4 
REMARK    3  A    between atoms: C_4  and  C_5 
REMARK    4  A    between atoms: C_5  and  N_6 
REMARK    5  A    between atoms: C_15  and  C_16 
REMARK       I    between atoms: C_16  and  N_17 
REMARK    6  A    between atoms: N_17  and  C_18 
REMARK    7  A    between atoms: C_18  and  C_19 
REMARK    8  A    between atoms: C_19  and  N_20 
REMARK    9  A    between atoms: N_24  and  C_25 
ROOT
HETATM    1  C   UNL     1     -43.344  60.805 -51.420  1.00  0.00     0.251 C 
HETATM    2  N   UNL     1     -44.625  60.890 -51.914  1.00  0.00    -0.355 N 
HETATM    3  O   UNL     1     -42.632  61.792 -51.262  1.00  0.00    -0.268 OA
HETATM    4  H   UNL     1     -45.160  60.030 -51.989  1.00  0.00     0.162 HD
ENDROOT
BRANCH   1   5
HETATM    5  C   UNL     1     -42.832  59.458 -51.068  1.00  0.00     0.034 A 
HETATM    6  C   UNL     1     -43.549  58.296 -51.388  1.00  0.00     0.047 A 
HETATM    7  C   UNL     1     -42.968  57.048 -51.152  1.00  0.00     0.053 A 
HETATM    8  N   UNL     1     -43.650  55.885 -51.497  1.00  0.00    -0.308 N 
HETATM    9  C   UNL     1     -41.698  56.954 -50.593  1.00  0.00     0.059 A 
HETATM   10  C   UNL     1     -43.131  54.626 -51.365  1.00  0.00     0.329 A 
HETATM   11  H   UNL     1     -44.581  55.911 -51.895  1.00  0.00     0.170 HD
HETATM   12  N   UNL     1     -41.844  54.532 -50.863  1.00  0.00    -0.266 N 
HETATM   13  O   UNL     1     -43.823  53.667 -51.698  1.00  0.00    -0.246 OA
HETATM   14  C   UNL     1     -41.103  55.618 -50.405  1.00  0.00     0.264 A 
HETATM   15  O   UNL     1     -40.000  55.533 -49.872  1.00  0.00    -0.267 OA
HETATM   16  C   UNL     1     -40.990  58.111 -50.255  1.00  0.00     0.020 A 
HETATM   17  C   UNL     1     -41.553  59.363 -50.504  1.00  0.00     0.018 A 
BRANCH  12  18
HETATM   18  C   UNL     1     -41.246  53.205 -50.748  1.00  0.00     0.137 C 
BRANCH  18  19
HETATM   19  C   UNL     1     -39.971  53.075 -51.586  1.00  0.00     0.020 C 
BRANCH  19  20
HETATM   20  C   UNL     1     -40.249  52.322 -52.888  1.00  0.00     0.001 C 
BRANCH  20  21
HETATM   21  C   UNL     1     -39.633  50.924 -52.869  1.00  0.00    -0.004 C 
HETATM   22  C   UNL     1     -39.701  50.270 -54.239  1.00  0.00     0.005 C 
ENDBRANCH  20  21
ENDBRANCH  19  20
ENDBRANCH  18  19
ENDBRANCH  12  18
ENDBRANCH   1   5
BRANCH   2  23
HETATM   23  C   UNL     1     -45.171  62.058 -52.606  1.00  0.00     0.150 C 
BRANCH  23  24
HETATM   24  C   UNL     1     -45.907  61.816 -53.948  1.00  0.00     0.254 C 
BRANCH  24  25
HETATM   25  N   UNL     1     -45.181  60.876 -54.873  1.00  0.00    -0.067 N 
HETATM   26  H   UNL     1     -45.478  61.143 -55.836  1.00  0.00     0.280 HD
HETATM   27  C   UNL     1     -43.660  61.006 -54.885  1.00  0.00     0.254 C 
HETATM   28  C   UNL     1     -43.066  60.125 -56.003  1.00  0.00     0.150 C 
HETATM   29  N   UNL     1     -43.502  58.726 -55.858  1.00  0.00    -0.378 N 
HETATM   30  C   UNL     1     -44.967  58.538 -55.810  1.00  0.00     0.150 C 
HETATM   31  C   UNL     1     -45.596  59.419 -54.705  1.00  0.00     0.254 C 
BRANCH  29  32
HETATM   32  C   UNL     1     -42.670  57.754 -55.315  1.00  0.00     0.031 A 
HETATM   33  C   UNL     1     -42.918  56.379 -55.445  1.00  0.00     0.053 A 
HETATM   34  C   UNL     1     -42.077  55.425 -54.859  1.00  0.00     0.036 A 
HETATM   35 CL   UNL     1     -42.426  53.752 -55.062  1.00  0.00    -0.084 Cl
HETATM   36  C   UNL     1     -40.968  55.814 -54.119  1.00  0.00     0.024 A 
HETATM   37  C   UNL     1     -40.704  57.169 -53.962  1.00  0.00     0.004 A 
HETATM   38  C   UNL     1     -41.546  58.119 -54.552  1.00  0.00     0.029 A 
ENDBRANCH  29  32
ENDBRANCH  24  25
ENDBRANCH  23  24
ENDBRANCH   2  23
TORSDOF 9
ENDMDL
MODEL 8
REMARK VINA RESULT:      -7.8      5.919      9.739
REMARK  9 active torsions:
REMARK  status: ('A' for Active; 'I' for Inactive)
REMARK    1  A    between atoms: C_2  and  C_3 
REMARK    2  A    between atoms: C_3  and  C_4 
REMARK    3  A    between atoms: C_4  and  C_5 
REMARK    4  A    between atoms: C_5  and  N_6 
REMARK    5  A    between atoms: C_15  and  C_16 
REMARK       I    between atoms: C_16  and  N_17 
REMARK    6  A    between atoms: N_17  and  C_18 
REMARK    7  A    between atoms: C_18  and  C_19 
REMARK    8  A    between atoms: C_19  and  N_20 
REMARK    9  A    between atoms: N_24  and  C_25 
ROOT
HETATM    1  C   UNL     1     -42.358  59.654 -52.924  1.00  0.00     0.251 C 
HETATM    2  N   UNL     1     -43.672  60.056 -52.981  1.00  0.00    -0.355 N 
HETATM    3  O   UNL     1     -41.439  60.346 -53.351  1.00  0.00    -0.268 OA
HETATM    4  H   UNL     1     -44.372  59.439 -52.580  1.00  0.00     0.162 HD
ENDROOT
BRANCH   1   5
HETATM    5  C   UNL     1     -42.068  58.335 -52.312  1.00  0.00     0.034 A 
HETATM    6  C   UNL     1     -42.186  57.146 -53.047  1.00  0.00     0.047 A 
HETATM    7  C   UNL     1     -41.781  55.941 -52.467  1.00  0.00     0.053 A 
HETATM    8  N   UNL     1     -41.856  54.757 -53.195  1.00  0.00    -0.308 N 
HETATM    9  C   UNL     1     -41.278  55.914 -51.171  1.00  0.00     0.059 A 
HETATM   10  C   UNL     1     -41.419  53.546 -52.732  1.00  0.00     0.329 A 
HETATM   11  H   UNL     1     -42.227  54.733 -54.136  1.00  0.00     0.170 HD
HETATM   12  N   UNL     1     -40.864  53.527 -51.464  1.00  0.00    -0.266 N 
HETATM   13  O   UNL     1     -41.537  52.562 -53.459  1.00  0.00    -0.246 OA
HETATM   14  C   UNL     1     -40.816  54.629 -50.616  1.00  0.00     0.264 A 
HETATM   15  O   UNL     1     -40.413  54.598 -49.456  1.00  0.00    -0.267 OA
HETATM   16  C   UNL     1     -41.178  57.096 -50.429  1.00  0.00     0.020 A 
HETATM   17  C   UNL     1     -41.563  58.308 -51.005  1.00  0.00     0.018 A 
BRANCH  12  18
HETATM   18  C   UNL     1     -40.350  52.257 -50.958  1.00  0.00     0.137 C 
BRANCH  18  19
HETATM   19  C   UNL     1     -39.144  51.764 -51.762  1.00  0.00     0.020 C 
BRANCH  19  20
HETATM   20  C   UNL     1     -39.078  50.236 -51.763  1.00  0.00     0.001 C 
BRANCH  20  21
HETATM   21  C   UNL     1     -39.900  49.640 -52.905  1.00  0.00    -0.004 C 
HETATM   22  C   UNL     1     -39.325  50.022 -54.260  1.00  0.00     0.005 C 
ENDBRANCH  20  21
ENDBRANCH  19  20
ENDBRANCH  18  19
ENDBRANCH  12  18
ENDBRANCH   1   5
BRANCH   2  23
HETATM   23  C   UNL     1     -44.171  61.145 -53.821  1.00  0.00     0.150 C 
BRANCH  23  24
HETATM   24  C   UNL     1     -44.818  60.766 -55.176  1.00  0.00     0.254 C 
BRANCH  24  25
HETATM   25  N   UNL     1     -44.101  59.653 -55.896  1.00  0.00    -0.067 N 
HETATM   26  H   UNL     1     -43.146  59.620 -55.482  1.00  0.00     0.280 HD
HETATM   27  C   UNL     1     -44.669  58.254 -55.679  1.00  0.00     0.254 C 
HETATM   28  C   UNL     1     -43.735  57.203 -56.315  1.00  0.00     0.150 C 
HETATM   29  N   UNL     1     -43.510  57.496 -57.740  1.00  0.00    -0.378 N 
HETATM   30  C   UNL     1     -42.987  58.849 -58.017  1.00  0.00     0.150 C 
HETATM   31  C   UNL     1     -43.896  59.928 -57.382  1.00  0.00     0.254 C 
BRANCH  29  32
HETATM   32  C   UNL     1     -44.176  56.801 -58.743  1.00  0.00     0.031 A 
HETATM   33  C   UNL     1     -45.363  57.264 -59.331  1.00  0.00     0.053 A 
HETATM   34  C   UNL     1     -46.028  56.524 -60.316  1.00  0.00     0.036 A 
HETATM   35 CL   UNL     1     -47.475  57.148 -61.009  1.00  0.00    -0.084 Cl
HETATM   36  C   UNL     1     -45.534  55.297 -60.739  1.00  0.00     0.024 A 
HETATM   37  C   UNL     1     -44.367  54.807 -60.166  1.00  0.00     0.004 A 
HETATM   38  C   UNL     1     -43.704  55.551 -59.183  1.00  0.00     0.029 A 
ENDBRANCH  29  32
ENDBRANCH  24  25
ENDBRANCH  23  24
ENDBRANCH   2  23
TORSDOF 9
ENDMDL
MODEL 9
REMARK VINA RESULT:      -7.8      5.784      9.610
REMARK  9 active torsions:
REMARK  status: ('A' for Active; 'I' for Inactive)
REMARK    1  A    between atoms: C_2  and  C_3 
REMARK    2  A    between atoms: C_3  and  C_4 
REMARK    3  A    between atoms: C_4  and  C_5 
REMARK    4  A    between atoms: C_5  and  N_6 
REMARK    5  A    between atoms: C_15  and  C_16 
REMARK       I    between atoms: C_16  and  N_17 
REMARK    6  A    between atoms: N_17  and  C_18 
REMARK    7  A    between atoms: C_18  and  C_19 
REMARK    8  A    between atoms: C_19  and  N_20 
REMARK    9  A    between atoms: N_24  and  C_25 
ROOT
HETATM    1  C   UNL     1     -43.119  59.459 -52.528  1.00  0.00     0.251 C 
HETATM    2  N   UNL     1     -44.047  59.747 -53.501  1.00  0.00    -0.355 N 
HETATM    3  O   UNL     1     -42.711  60.304 -51.735  1.00  0.00    -0.268 OA
HETATM    4  H   UNL     1     -44.355  58.988 -54.100  1.00  0.00     0.162 HD
ENDROOT
BRANCH   1   5
HETATM    5  C   UNL     1     -42.613  58.067 -52.452  1.00  0.00     0.034 A 
HETATM    6  C   UNL     1     -41.775  57.650 -51.408  1.00  0.00     0.047 A 
HETATM    7  C   UNL     1     -41.428  56.300 -51.308  1.00  0.00     0.053 A 
HETATM    8  N   UNL     1     -40.628  55.862 -50.257  1.00  0.00    -0.308 N 
HETATM    9  C   UNL     1     -41.896  55.380 -52.239  1.00  0.00     0.059 A 
HETATM   10  C   UNL     1     -40.296  54.552 -50.043  1.00  0.00     0.329 A 
HETATM   11  H   UNL     1     -40.258  56.502 -49.565  1.00  0.00     0.170 HD
HETATM   12  N   UNL     1     -40.808  53.625 -50.936  1.00  0.00    -0.266 N 
HETATM   13  O   UNL     1     -39.579  54.276 -49.084  1.00  0.00    -0.246 OA
HETATM   14  C   UNL     1     -41.545  53.957 -52.069  1.00  0.00     0.264 A 
HETATM   15  O   UNL     1     -41.922  53.151 -52.916  1.00  0.00    -0.267 OA
HETATM   16  C   UNL     1     -42.715  55.797 -53.293  1.00  0.00     0.020 A 
HETATM   17  C   UNL     1     -43.083  57.140 -53.391  1.00  0.00     0.018 A 
BRANCH  12  18
HETATM   18  C   UNL     1     -40.507  52.214 -50.711  1.00  0.00     0.137 C 
BRANCH  18  19
HETATM   19  C   UNL     1     -39.503  51.672 -51.732  1.00  0.00     0.020 C 
BRANCH  19  20
HETATM   20  C   UNL     1     -39.517  50.144 -51.752  1.00  0.00     0.001 C 
BRANCH  20  21
HETATM   21  C   UNL     1     -39.533  49.602 -53.181  1.00  0.00    -0.004 C 
HETATM   22  C   UNL     1     -39.974  50.667 -54.172  1.00  0.00     0.005 C 
ENDBRANCH  20  21
ENDBRANCH  19  20
ENDBRANCH  18  19
ENDBRANCH  12  18
ENDBRANCH   1   5
BRANCH   2  23
HETATM   23  C   UNL     1     -44.406  61.099 -53.931  1.00  0.00     0.150 C 
BRANCH  23  24
HETATM   24  C   UNL     1     -43.338  61.911 -54.705  1.00  0.00     0.254 C 
BRANCH  24  25
HETATM   25  N   UNL     1     -43.116  61.427 -56.114  1.00  0.00    -0.067 N 
HETATM   26  H   UNL     1     -42.692  62.230 -56.624  1.00  0.00     0.280 HD
HETATM   27  C   UNL     1     -42.111  60.290 -56.270  1.00  0.00     0.254 C 
HETATM   28  C   UNL     1     -41.845  60.025 -57.767  1.00  0.00     0.150 C 
HETATM   29  N   UNL     1     -43.103  59.756 -58.484  1.00  0.00    -0.378 N 
HETATM   30  C   UNL     1     -44.130  60.809 -58.346  1.00  0.00     0.150 C 
HETATM   31  C   UNL     1     -44.411  61.108 -56.855  1.00  0.00     0.254 C 
BRANCH  29  32
HETATM   32  C   UNL     1     -43.489  58.465 -58.822  1.00  0.00     0.031 A 
HETATM   33  C   UNL     1     -44.813  58.123 -59.137  1.00  0.00     0.053 A 
HETATM   34  C   UNL     1     -45.176  56.805 -59.441  1.00  0.00     0.036 A 
HETATM   35 CL   UNL     1     -46.814  56.448 -59.831  1.00  0.00    -0.084 Cl
HETATM   36  C   UNL     1     -44.231  55.788 -59.433  1.00  0.00     0.024 A 
HETATM   37  C   UNL     1     -42.914  56.093 -59.113  1.00  0.00     0.004 A 
HETATM   38  C   UNL     1     -42.555  57.413 -58.811  1.00  0.00     0.029 A 
ENDBRANCH  29  32
ENDBRANCH  24  25
ENDBRANCH  23  24
ENDBRANCH   2  23
TORSDOF 9
ENDMDL
MODEL 10
REMARK VINA RESULT:      -7.7      7.414     11.461
REMARK  9 active torsions:
REMARK  status: ('A' for Active; 'I' for Inactive)
REMARK    1  A    between atoms: C_2  and  C_3 
REMARK    2  A    between atoms: C_3  and  C_4 
REMARK    3  A    between atoms: C_4  and  C_5 
REMARK    4  A    between atoms: C_5  and  N_6 
REMARK    5  A    between atoms: C_15  and  C_16 
REMARK       I    between atoms: C_16  and  N_17 
REMARK    6  A    between atoms: N_17  and  C_18 
REMARK    7  A    between atoms: C_18  and  C_19 
REMARK    8  A    between atoms: C_19  and  N_20 
REMARK    9  A    between atoms: N_24  and  C_25 
ROOT
HETATM    1  C   UNL     1     -44.178  58.052 -57.914  1.00  0.00     0.251 C 
HETATM    2  N   UNL     1     -43.843  59.005 -56.980  1.00  0.00    -0.355 N 
HETATM    3  O   UNL     1     -43.654  56.942 -57.939  1.00  0.00    -0.268 OA
HETATM    4  H   UNL     1     -44.342  59.889 -57.008  1.00  0.00     0.162 HD
ENDROOT
BRANCH   1   5
HETATM    5  C   UNL     1     -45.219  58.402 -58.910  1.00  0.00     0.034 A 
HETATM    6  C   UNL     1     -45.742  57.443 -59.789  1.00  0.00     0.047 A 
HETATM    7  C   UNL     1     -46.810  57.789 -60.622  1.00  0.00     0.053 A 
HETATM    8  N   UNL     1     -47.366  56.840 -61.473  1.00  0.00    -0.308 N 
HETATM    9  C   UNL     1     -47.342  59.074 -60.591  1.00  0.00     0.059 A 
HETATM   10  C   UNL     1     -48.453  57.072 -62.271  1.00  0.00     0.329 A 
HETATM   11  H   UNL     1     -47.000  55.898 -61.533  1.00  0.00     0.170 HD
HETATM   12  N   UNL     1     -49.021  58.332 -62.200  1.00  0.00    -0.266 N 
HETATM   13  O   UNL     1     -48.860  56.161 -62.989  1.00  0.00    -0.246 OA
HETATM   14  C   UNL     1     -48.499  59.383 -61.451  1.00  0.00     0.264 A 
HETATM   15  O   UNL     1     -48.941  60.529 -61.456  1.00  0.00    -0.267 OA
HETATM   16  C   UNL     1     -46.809  60.037 -59.729  1.00  0.00     0.020 A 
HETATM   17  C   UNL     1     -45.754  59.697 -58.880  1.00  0.00     0.018 A 
BRANCH  12  18
HETATM   18  C   UNL     1     -50.208  58.598 -63.007  1.00  0.00     0.137 C 
BRANCH  18  19
HETATM   19  C   UNL     1     -51.501  58.403 -62.211  1.00  0.00     0.020 C 
BRANCH  19  20
HETATM   20  C   UNL     1     -52.232  59.732 -62.023  1.00  0.00     0.001 C 
BRANCH  20  21
HETATM   21  C   UNL     1     -53.608  59.531 -61.390  1.00  0.00    -0.004 C 
HETATM   22  C   UNL     1     -53.980  58.058 -61.328  1.00  0.00     0.005 C 
ENDBRANCH  20  21
ENDBRANCH  19  20
ENDBRANCH  18  19
ENDBRANCH  12  18
ENDBRANCH   1   5
BRANCH   2  23
HETATM   23  C   UNL     1     -42.640  58.963 -56.147  1.00  0.00     0.150 C 
BRANCH  23  24
HETATM   24  C   UNL     1     -42.756  58.293 -54.755  1.00  0.00     0.254 C 
BRANCH  24  25
HETATM   25  N   UNL     1     -42.861  56.792 -54.816  1.00  0.00    -0.067 N 
HETATM   26  H   UNL     1     -43.719  56.592 -55.372  1.00  0.00     0.280 HD
HETATM   27  C   UNL     1     -41.737  56.082 -55.564  1.00  0.00     0.254 C 
HETATM   28  C   UNL     1     -42.067  54.582 -55.708  1.00  0.00     0.150 C 
HETATM   29  N   UNL     1     -42.330  53.973 -54.393  1.00  0.00    -0.378 N 
HETATM   30  C   UNL     1     -43.389  54.636 -53.607  1.00  0.00     0.150 C 
HETATM   31  C   UNL     1     -43.094  56.147 -53.454  1.00  0.00     0.254 C 
BRANCH  29  32
HETATM   32  C   UNL     1     -41.374  53.203 -53.741  1.00  0.00     0.031 A 
HETATM   33  C   UNL     1     -40.831  52.034 -54.293  1.00  0.00     0.053 A 
HETATM   34  C   UNL     1     -39.893  51.262 -53.596  1.00  0.00     0.036 A 
HETATM   35 CL   UNL     1     -39.254  49.842 -54.329  1.00  0.00    -0.084 Cl
HETATM   36  C   UNL     1     -39.475  51.630 -52.324  1.00  0.00     0.024 A 
HETATM   37  C   UNL     1     -40.004  52.778 -51.746  1.00  0.00     0.004 A 
HETATM   38  C   UNL     1     -40.940  53.546 -52.448  1.00  0.00     0.029 A 
ENDBRANCH  29  32
ENDBRANCH  24  25
ENDBRANCH  23  24
ENDBRANCH   2  23
TORSDOF 9
ENDMDL
