MODEL 1
REMARK VINA RESULT:      -8.8      0.000      0.000
REMARK  3 active torsions:
REMARK  status: ('A' for Active; 'I' for Inactive)
REMARK    1  A    between atoms: N_4  and  C_5 
REMARK    2  A    between atoms: C_16  and  C_17 
REMARK       I    between atoms: C_17  and  N_18 
REMARK    3  A    between atoms: N_18  and  C_19 
ROOT
HETATM    1  C   UNL     1     -41.466  59.034 -53.569  1.00  0.00     0.073 C 
HETATM    2  C   UNL     1     -41.514  57.645 -54.088  1.00  0.00     0.069 A 
HETATM    3  N   UNL     1     -40.836  56.665 -53.473  1.00  0.00    -0.170 NA
HETATM    4  N   UNL     1     -41.130  55.525 -54.169  1.00  0.00    -0.216 N 
HETATM    5  C   UNL     1     -41.875  55.833 -55.296  1.00  0.00     0.145 A 
HETATM    6  C   UNL     1     -42.172  57.175 -55.237  1.00  0.00     0.087 A 
HETATM    7  N   UNL     1     -42.240  55.053 -56.342  1.00  0.00    -0.349 N 
HETATM    8  C   UNL     1     -42.925  55.647 -57.390  1.00  0.00     0.111 A 
HETATM    9  C   UNL     1     -43.311  56.943 -57.429  1.00  0.00     0.098 A 
HETATM   10  C   UNL     1     -42.959  57.827 -56.264  1.00  0.00     0.205 A 
HETATM   11  O   UNL     1     -43.303  59.004 -56.207  1.00  0.00    -0.286 OA
HETATM   12  H   UNL     1     -41.830  54.140 -56.536  1.00  0.00     0.167 HD
ENDROOT
BRANCH   9  13
HETATM   13  C   UNL     1     -44.032  57.426 -58.649  1.00  0.00     0.261 C 
HETATM   14  N   UNL     1     -45.351  57.031 -58.731  1.00  0.00    -0.323 N 
HETATM   15  H   UNL     1     -45.700  56.432 -57.982  1.00  0.00     0.169 HD
HETATM   16  O   UNL     1     -43.436  58.112 -59.476  1.00  0.00    -0.267 OA
BRANCH  14  17
HETATM   17  C   UNL     1     -46.296  57.362 -59.723  1.00  0.00     0.035 A 
HETATM   18  C   UNL     1     -46.764  58.655 -59.962  1.00  0.00     0.029 A 
HETATM   19  C   UNL     1     -47.718  58.891 -60.958  1.00  0.00     0.002 A 
HETATM   20  C   UNL     1     -48.208  57.837 -61.726  1.00  0.00     0.000 A 
HETATM   21  C   UNL     1     -47.747  56.544 -61.497  1.00  0.00     0.002 A 
HETATM   22  C   UNL     1     -46.799  56.308 -60.499  1.00  0.00     0.029 A 
ENDBRANCH  14  17
ENDBRANCH   9  13
BRANCH   4  23
HETATM   23  C   UNL     1     -40.682  54.263 -53.681  1.00  0.00     0.060 A 
HETATM   24  C   UNL     1     -40.279  53.238 -54.548  1.00  0.00     0.034 A 
HETATM   25  C   UNL     1     -39.847  52.013 -54.030  1.00  0.00     0.044 A 
HETATM   26  C   UNL     1     -39.826  51.811 -52.655  1.00  0.00     0.116 A 
HETATM   27  F   UNL     1     -39.411  50.636 -52.167  1.00  0.00    -0.206 F 
HETATM   28  C   UNL     1     -40.243  52.807 -51.782  1.00  0.00     0.044 A 
HETATM   29  C   UNL     1     -40.681  54.031 -52.293  1.00  0.00     0.034 A 
ENDBRANCH   4  23
TORSDOF 3
ENDMDL
MODEL 2
REMARK VINA RESULT:      -8.5      2.982      3.544
REMARK  3 active torsions:
REMARK  status: ('A' for Active; 'I' for Inactive)
REMARK    1  A    between atoms: N_4  and  C_5 
REMARK    2  A    between atoms: C_16  and  C_17 
REMARK       I    between atoms: C_17  and  N_18 
REMARK    3  A    between atoms: N_18  and  C_19 
ROOT
HETATM    1  C   UNL     1     -41.631  56.887 -51.098  1.00  0.00     0.073 C 
HETATM    2  C   UNL     1     -41.428  55.839 -52.128  1.00  0.00     0.069 A 
HETATM    3  N   UNL     1     -40.822  54.685 -51.814  1.00  0.00    -0.170 NA
HETATM    4  N   UNL     1     -40.841  53.940 -52.961  1.00  0.00    -0.216 N 
HETATM    5  C   UNL     1     -41.332  54.695 -54.013  1.00  0.00     0.145 A 
HETATM    6  C   UNL     1     -41.758  55.896 -53.493  1.00  0.00     0.087 A 
HETATM    7  N   UNL     1     -41.372  54.423 -55.341  1.00  0.00    -0.349 N 
HETATM    8  C   UNL     1     -41.850  55.406 -56.193  1.00  0.00     0.111 A 
HETATM    9  C   UNL     1     -42.336  56.605 -55.799  1.00  0.00     0.098 A 
HETATM   10  C   UNL     1     -42.345  56.923 -54.329  1.00  0.00     0.205 A 
HETATM   11  O   UNL     1     -42.802  57.974 -53.888  1.00  0.00    -0.286 OA
HETATM   12  H   UNL     1     -40.845  53.668 -55.778  1.00  0.00     0.167 HD
ENDROOT
BRANCH   9  13
HETATM   13  C   UNL     1     -42.798  57.558 -56.857  1.00  0.00     0.261 C 
HETATM   14  N   UNL     1     -41.787  58.098 -57.625  1.00  0.00    -0.323 N 
HETATM   15  H   UNL     1     -40.832  57.828 -57.386  1.00  0.00     0.169 HD
HETATM   16  O   UNL     1     -43.996  57.801 -56.976  1.00  0.00    -0.267 OA
BRANCH  14  17
HETATM   17  C   UNL     1     -41.905  58.980 -58.719  1.00  0.00     0.035 A 
HETATM   18  C   UNL     1     -42.136  58.572 -60.034  1.00  0.00     0.029 A 
HETATM   19  C   UNL     1     -42.221  59.516 -61.063  1.00  0.00     0.002 A 
HETATM   20  C   UNL     1     -42.080  60.874 -60.786  1.00  0.00     0.000 A 
HETATM   21  C   UNL     1     -41.851  61.290 -59.479  1.00  0.00     0.002 A 
HETATM   22  C   UNL     1     -41.761  60.348 -58.451  1.00  0.00     0.029 A 
ENDBRANCH  14  17
ENDBRANCH   9  13
BRANCH   4  23
HETATM   23  C   UNL     1     -40.401  52.584 -52.930  1.00  0.00     0.060 A 
HETATM   24  C   UNL     1     -40.431  51.773 -54.073  1.00  0.00     0.034 A 
HETATM   25  C   UNL     1     -39.992  50.447 -54.001  1.00  0.00     0.044 A 
HETATM   26  C   UNL     1     -39.535  49.933 -52.792  1.00  0.00     0.116 A 
HETATM   27  F   UNL     1     -39.117  48.663 -52.732  1.00  0.00    -0.206 F 
HETATM   28  C   UNL     1     -39.521  50.715 -51.645  1.00  0.00     0.044 A 
HETATM   29  C   UNL     1     -39.963  52.038 -51.709  1.00  0.00     0.034 A 
ENDBRANCH   4  23
TORSDOF 3
ENDMDL
MODEL 3
REMARK VINA RESULT:      -8.5      4.206      8.590
REMARK  3 active torsions:
REMARK  status: ('A' for Active; 'I' for Inactive)
REMARK    1  A    between atoms: N_4  and  C_5 
REMARK    2  A    between atoms: C_16  and  C_17 
REMARK       I    between atoms: C_17  and  N_18 
REMARK    3  A    between atoms: N_18  and  C_19 
ROOT
HETATM    1  C   UNL     1     -42.074  60.128 -53.188  1.00  0.00     0.073 C 
HETATM    2  C   UNL     1     -42.073  59.409 -54.485  1.00  0.00     0.069 A 
HETATM    3  N   UNL     1     -42.286  60.073 -55.630  1.00  0.00    -0.170 NA
HETATM    4  N   UNL     1     -42.173  59.137 -56.621  1.00  0.00    -0.216 N 
HETATM    5  C   UNL     1     -42.031  57.874 -56.071  1.00  0.00     0.145 A 
HETATM    6  C   UNL     1     -41.917  58.030 -54.708  1.00  0.00     0.087 A 
HETATM    7  N   UNL     1     -42.053  56.654 -56.663  1.00  0.00    -0.349 N 
HETATM    8  C   UNL     1     -41.968  55.534 -55.851  1.00  0.00     0.111 A 
HETATM    9  C   UNL     1     -41.810  55.559 -54.508  1.00  0.00     0.098 A 
HETATM   10  C   UNL     1     -41.740  56.898 -53.823  1.00  0.00     0.205 A 
HETATM   11  O   UNL     1     -41.561  57.006 -52.614  1.00  0.00    -0.286 OA
HETATM   12  H   UNL     1     -42.383  56.494 -57.613  1.00  0.00     0.167 HD
ENDROOT
BRANCH   9  13
HETATM   13  C   UNL     1     -41.753  54.252 -53.781  1.00  0.00     0.261 C 
HETATM   14  N   UNL     1     -40.626  53.501 -54.040  1.00  0.00    -0.323 N 
HETATM   15  H   UNL     1     -39.961  53.883 -54.714  1.00  0.00     0.169 HD
HETATM   16  O   UNL     1     -42.672  53.931 -53.032  1.00  0.00    -0.267 OA
BRANCH  14  17
HETATM   17  C   UNL     1     -40.262  52.259 -53.478  1.00  0.00     0.035 A 
HETATM   18  C   UNL     1     -39.862  52.084 -52.153  1.00  0.00     0.029 A 
HETATM   19  C   UNL     1     -39.501  50.817 -51.683  1.00  0.00     0.002 A 
HETATM   20  C   UNL     1     -39.541  49.714 -52.533  1.00  0.00     0.000 A 
HETATM   21  C   UNL     1     -39.940  49.877 -53.856  1.00  0.00     0.002 A 
HETATM   22  C   UNL     1     -40.296  51.143 -54.326  1.00  0.00     0.029 A 
ENDBRANCH  14  17
ENDBRANCH   9  13
BRANCH   4  23
HETATM   23  C   UNL     1     -42.199  59.546 -57.986  1.00  0.00     0.060 A 
HETATM   24  C   UNL     1     -42.869  58.801 -58.967  1.00  0.00     0.034 A 
HETATM   25  C   UNL     1     -42.870  59.235 -60.296  1.00  0.00     0.044 A 
HETATM   26  C   UNL     1     -42.198  60.401 -60.644  1.00  0.00     0.116 A 
HETATM   27  F   UNL     1     -42.203  60.810 -61.919  1.00  0.00    -0.206 F 
HETATM   28  C   UNL     1     -41.510  61.139 -59.691  1.00  0.00     0.044 A 
HETATM   29  C   UNL     1     -41.500  60.708 -58.363  1.00  0.00     0.034 A 
ENDBRANCH   4  23
TORSDOF 3
ENDMDL
MODEL 4
REMARK VINA RESULT:      -8.5      1.575      2.086
REMARK  3 active torsions:
REMARK  status: ('A' for Active; 'I' for Inactive)
REMARK    1  A    between atoms: N_4  and  C_5 
REMARK    2  A    between atoms: C_16  and  C_17 
REMARK       I    between atoms: C_17  and  N_18 
REMARK    3  A    between atoms: N_18  and  C_19 
ROOT
HETATM    1  C   UNL     1     -41.828  57.143 -51.259  1.00  0.00     0.073 C 
HETATM    2  C   UNL     1     -41.696  56.089 -52.295  1.00  0.00     0.069 A 
HETATM    3  N   UNL     1     -41.001  54.971 -52.042  1.00  0.00    -0.170 NA
HETATM    4  N   UNL     1     -41.117  54.206 -53.170  1.00  0.00    -0.216 N 
HETATM    5  C   UNL     1     -41.765  54.919 -54.166  1.00  0.00     0.145 A 
HETATM    6  C   UNL     1     -42.185  56.107 -53.612  1.00  0.00     0.087 A 
HETATM    7  N   UNL     1     -41.946  54.624 -55.476  1.00  0.00    -0.349 N 
HETATM    8  C   UNL     1     -42.569  55.568 -56.277  1.00  0.00     0.111 A 
HETATM    9  C   UNL     1     -43.063  56.750 -55.842  1.00  0.00     0.098 A 
HETATM   10  C   UNL     1     -42.916  57.091 -54.384  1.00  0.00     0.205 A 
HETATM   11  O   UNL     1     -43.369  58.126 -53.904  1.00  0.00    -0.286 OA
HETATM   12  H   UNL     1     -41.438  53.888 -55.964  1.00  0.00     0.167 HD
ENDROOT
BRANCH   9  13
HETATM   13  C   UNL     1     -43.693  57.662 -56.848  1.00  0.00     0.261 C 
HETATM   14  N   UNL     1     -44.918  57.239 -57.318  1.00  0.00    -0.323 N 
HETATM   15  H   UNL     1     -45.263  56.345 -56.968  1.00  0.00     0.169 HD
HETATM   16  O   UNL     1     -43.109  58.688 -57.188  1.00  0.00    -0.267 OA
BRANCH  14  17
HETATM   17  C   UNL     1     -45.774  57.897 -58.227  1.00  0.00     0.035 A 
HETATM   18  C   UNL     1     -45.700  57.760 -59.614  1.00  0.00     0.029 A 
HETATM   19  C   UNL     1     -46.579  58.465 -60.442  1.00  0.00     0.002 A 
HETATM   20  C   UNL     1     -47.542  59.308 -59.891  1.00  0.00     0.000 A 
HETATM   21  C   UNL     1     -47.625  59.450 -58.510  1.00  0.00     0.002 A 
HETATM   22  C   UNL     1     -46.744  58.750 -57.682  1.00  0.00     0.029 A 
ENDBRANCH  14  17
ENDBRANCH   9  13
BRANCH   4  23
HETATM   23  C   UNL     1     -40.610  52.874 -53.176  1.00  0.00     0.060 A 
HETATM   24  C   UNL     1     -40.734  52.042 -54.299  1.00  0.00     0.034 A 
HETATM   25  C   UNL     1     -40.225  50.740 -54.264  1.00  0.00     0.044 A 
HETATM   26  C   UNL     1     -39.605  50.269 -53.113  1.00  0.00     0.116 A 
HETATM   27  F   UNL     1     -39.121  49.022 -53.089  1.00  0.00    -0.206 F 
HETATM   28  C   UNL     1     -39.494  51.071 -51.985  1.00  0.00     0.044 A 
HETATM   29  C   UNL     1     -40.005  52.370 -52.010  1.00  0.00     0.034 A 
ENDBRANCH   4  23
TORSDOF 3
ENDMDL
MODEL 5
REMARK VINA RESULT:      -8.1      3.573      8.755
REMARK  3 active torsions:
REMARK  status: ('A' for Active; 'I' for Inactive)
REMARK    1  A    between atoms: N_4  and  C_5 
REMARK    2  A    between atoms: C_16  and  C_17 
REMARK       I    between atoms: C_17  and  N_18 
REMARK    3  A    between atoms: N_18  and  C_19 
ROOT
HETATM    1  C   UNL     1     -44.793  58.892 -53.435  1.00  0.00     0.073 C 
HETATM    2  C   UNL     1     -44.649  58.319 -54.796  1.00  0.00     0.069 A 
HETATM    3  N   UNL     1     -45.498  58.668 -55.774  1.00  0.00    -0.170 NA
HETATM    4  N   UNL     1     -45.061  58.007 -56.889  1.00  0.00    -0.216 N 
HETATM    5  C   UNL     1     -44.029  57.143 -56.558  1.00  0.00     0.145 A 
HETATM    6  C   UNL     1     -43.719  57.361 -55.236  1.00  0.00     0.087 A 
HETATM    7  N   UNL     1     -43.419  56.186 -57.299  1.00  0.00    -0.349 N 
HETATM    8  C   UNL     1     -42.458  55.399 -56.684  1.00  0.00     0.111 A 
HETATM    9  C   UNL     1     -42.037  55.545 -55.407  1.00  0.00     0.098 A 
HETATM   10  C   UNL     1     -42.664  56.626 -54.569  1.00  0.00     0.205 A 
HETATM   11  O   UNL     1     -42.312  56.846 -53.414  1.00  0.00    -0.286 OA
HETATM   12  H   UNL     1     -43.789  55.833 -58.181  1.00  0.00     0.167 HD
ENDROOT
BRANCH   9  13
HETATM   13  C   UNL     1     -40.999  54.596 -54.895  1.00  0.00     0.261 C 
HETATM   14  N   UNL     1     -41.503  53.501 -54.225  1.00  0.00    -0.323 N 
HETATM   15  H   UNL     1     -42.517  53.455 -54.114  1.00  0.00     0.169 HD
HETATM   16  O   UNL     1     -39.810  54.833 -55.087  1.00  0.00    -0.267 OA
BRANCH  14  17
HETATM   17  C   UNL     1     -40.790  52.416 -53.674  1.00  0.00     0.035 A 
HETATM   18  C   UNL     1     -40.563  51.209 -54.337  1.00  0.00     0.029 A 
HETATM   19  C   UNL     1     -39.859  50.177 -53.708  1.00  0.00     0.002 A 
HETATM   20  C   UNL     1     -39.373  50.345 -52.413  1.00  0.00     0.000 A 
HETATM   21  C   UNL     1     -39.592  51.545 -51.745  1.00  0.00     0.002 A 
HETATM   22  C   UNL     1     -40.300  52.574 -52.371  1.00  0.00     0.029 A 
ENDBRANCH  14  17
ENDBRANCH   9  13
BRANCH   4  23
HETATM   23  C   UNL     1     -45.663  58.277 -58.152  1.00  0.00     0.060 A 
HETATM   24  C   UNL     1     -46.411  57.309 -58.835  1.00  0.00     0.034 A 
HETATM   25  C   UNL     1     -46.985  57.613 -60.074  1.00  0.00     0.044 A 
HETATM   26  C   UNL     1     -46.803  58.874 -60.630  1.00  0.00     0.116 A 
HETATM   27  F   UNL     1     -47.355  59.156 -61.817  1.00  0.00    -0.206 F 
HETATM   28  C   UNL     1     -46.045  59.838 -59.979  1.00  0.00     0.044 A 
HETATM   29  C   UNL     1     -45.465  59.539 -58.744  1.00  0.00     0.034 A 
ENDBRANCH   4  23
TORSDOF 3
ENDMDL
MODEL 6
REMARK VINA RESULT:      -7.9     16.152     19.717
REMARK  3 active torsions:
REMARK  status: ('A' for Active; 'I' for Inactive)
REMARK    1  A    between atoms: N_4  and  C_5 
REMARK    2  A    between atoms: C_16  and  C_17 
REMARK       I    between atoms: C_17  and  N_18 
REMARK    3  A    between atoms: N_18  and  C_19 
ROOT
HETATM    1  C   UNL     1     -39.117  41.402 -52.462  1.00  0.00     0.073 C 
HETATM    2  C   UNL     1     -38.136  41.158 -53.548  1.00  0.00     0.069 A 
HETATM    3  N   UNL     1     -38.543  41.061 -54.822  1.00  0.00    -0.170 NA
HETATM    4  N   UNL     1     -37.402  40.886 -55.557  1.00  0.00    -0.216 N 
HETATM    5  C   UNL     1     -36.311  40.735 -54.716  1.00  0.00     0.145 A 
HETATM    6  C   UNL     1     -36.751  40.953 -53.430  1.00  0.00     0.087 A 
HETATM    7  N   UNL     1     -35.034  40.379 -54.996  1.00  0.00    -0.349 N 
HETATM    8  C   UNL     1     -34.154  40.221 -53.937  1.00  0.00     0.111 A 
HETATM    9  C   UNL     1     -34.455  40.448 -52.638  1.00  0.00     0.098 A 
HETATM   10  C   UNL     1     -35.853  40.885 -52.296  1.00  0.00     0.205 A 
HETATM   11  O   UNL     1     -36.195  41.145 -51.146  1.00  0.00    -0.286 OA
HETATM   12  H   UNL     1     -34.743  39.972 -55.884  1.00  0.00     0.167 HD
ENDROOT
BRANCH   9  13
HETATM   13  C   UNL     1     -33.385  40.212 -51.617  1.00  0.00     0.261 C 
HETATM   14  N   UNL     1     -33.842  39.725 -50.410  1.00  0.00    -0.323 N 
HETATM   15  H   UNL     1     -34.851  39.602 -50.314  1.00  0.00     0.169 HD
HETATM   16  O   UNL     1     -32.214  40.457 -51.894  1.00  0.00    -0.267 OA
BRANCH  14  17
HETATM   17  C   UNL     1     -33.084  39.360 -49.278  1.00  0.00     0.035 A 
HETATM   18  C   UNL     1     -31.937  40.032 -48.853  1.00  0.00     0.029 A 
HETATM   19  C   UNL     1     -31.234  39.591 -47.726  1.00  0.00     0.002 A 
HETATM   20  C   UNL     1     -31.675  38.477 -47.014  1.00  0.00     0.000 A 
HETATM   21  C   UNL     1     -32.818  37.802 -47.430  1.00  0.00     0.002 A 
HETATM   22  C   UNL     1     -33.517  38.239 -48.557  1.00  0.00     0.029 A 
ENDBRANCH  14  17
ENDBRANCH   9  13
BRANCH   4  23
HETATM   23  C   UNL     1     -37.470  40.895 -56.980  1.00  0.00     0.060 A 
HETATM   24  C   UNL     1     -37.973  39.803 -57.702  1.00  0.00     0.034 A 
HETATM   25  C   UNL     1     -38.021  39.850 -59.099  1.00  0.00     0.044 A 
HETATM   26  C   UNL     1     -37.560  40.976 -59.770  1.00  0.00     0.116 A 
HETATM   27  F   UNL     1     -37.609  41.012 -61.107  1.00  0.00    -0.206 F 
HETATM   28  C   UNL     1     -37.037  42.057 -59.073  1.00  0.00     0.044 A 
HETATM   29  C   UNL     1     -36.981  42.015 -57.678  1.00  0.00     0.034 A 
ENDBRANCH   4  23
TORSDOF 3
ENDMDL
MODEL 7
REMARK VINA RESULT:      -7.8      1.690      2.016
REMARK  3 active torsions:
REMARK  status: ('A' for Active; 'I' for Inactive)
REMARK    1  A    between atoms: N_4  and  C_5 
REMARK    2  A    between atoms: C_16  and  C_17 
REMARK       I    between atoms: C_17  and  N_18 
REMARK    3  A    between atoms: N_18  and  C_19 
ROOT
HETATM    1  C   UNL     1     -41.475  58.923 -53.277  1.00  0.00     0.073 C 
HETATM    2  C   UNL     1     -41.509  57.555 -53.850  1.00  0.00     0.069 A 
HETATM    3  N   UNL     1     -40.828  56.557 -53.268  1.00  0.00    -0.170 NA
HETATM    4  N   UNL     1     -41.110  55.442 -54.009  1.00  0.00    -0.216 N 
HETATM    5  C   UNL     1     -41.850  55.788 -55.128  1.00  0.00     0.145 A 
HETATM    6  C   UNL     1     -42.156  57.125 -55.021  1.00  0.00     0.087 A 
HETATM    7  N   UNL     1     -42.202  55.046 -56.206  1.00  0.00    -0.349 N 
HETATM    8  C   UNL     1     -42.885  55.675 -57.235  1.00  0.00     0.111 A 
HETATM    9  C   UNL     1     -43.280  56.969 -57.228  1.00  0.00     0.098 A 
HETATM   10  C   UNL     1     -42.942  57.809 -56.027  1.00  0.00     0.205 A 
HETATM   11  O   UNL     1     -43.295  58.981 -55.927  1.00  0.00    -0.286 OA
HETATM   12  H   UNL     1     -41.784  54.144 -56.432  1.00  0.00     0.167 HD
ENDROOT
BRANCH   9  13
HETATM   13  C   UNL     1     -43.996  57.493 -58.433  1.00  0.00     0.261 C 
HETATM   14  N   UNL     1     -43.695  58.799 -58.756  1.00  0.00    -0.323 N 
HETATM   15  H   UNL     1     -43.047  59.290 -58.139  1.00  0.00     0.169 HD
HETATM   16  O   UNL     1     -44.780  56.766 -59.039  1.00  0.00    -0.267 OA
BRANCH  14  17
HETATM   17  C   UNL     1     -44.164  59.553 -59.853  1.00  0.00     0.035 A 
HETATM   18  C   UNL     1     -43.418  59.812 -61.004  1.00  0.00     0.029 A 
HETATM   19  C   UNL     1     -43.957  60.585 -62.037  1.00  0.00     0.002 A 
HETATM   20  C   UNL     1     -45.247  61.102 -61.930  1.00  0.00     0.000 A 
HETATM   21  C   UNL     1     -45.999  60.847 -60.788  1.00  0.00     0.002 A 
HETATM   22  C   UNL     1     -45.459  60.080 -59.754  1.00  0.00     0.029 A 
ENDBRANCH  14  17
ENDBRANCH   9  13
BRANCH   4  23
HETATM   23  C   UNL     1     -40.655  54.166 -53.566  1.00  0.00     0.060 A 
HETATM   24  C   UNL     1     -40.280  53.162 -54.471  1.00  0.00     0.034 A 
HETATM   25  C   UNL     1     -39.841  51.922 -53.996  1.00  0.00     0.044 A 
HETATM   26  C   UNL     1     -39.786  51.684 -52.628  1.00  0.00     0.116 A 
HETATM   27  F   UNL     1     -39.365  50.494 -52.183  1.00  0.00    -0.206 F 
HETATM   28  C   UNL     1     -40.176  52.658 -51.719  1.00  0.00     0.044 A 
HETATM   29  C   UNL     1     -40.621  53.897 -52.186  1.00  0.00     0.034 A 
ENDBRANCH   4  23
TORSDOF 3
ENDMDL
MODEL 8
REMARK VINA RESULT:      -7.7      5.134      8.657
REMARK  3 active torsions:
REMARK  status: ('A' for Active; 'I' for Inactive)
REMARK    1  A    between atoms: N_4  and  C_5 
REMARK    2  A    between atoms: C_16  and  C_17 
REMARK       I    between atoms: C_17  and  N_18 
REMARK    3  A    between atoms: N_18  and  C_19 
ROOT
HETATM    1  C   UNL     1     -43.206  54.664 -52.130  1.00  0.00     0.073 C 
HETATM    2  C   UNL     1     -43.381  55.736 -53.140  1.00  0.00     0.069 A 
HETATM    3  N   UNL     1     -42.867  55.600 -54.371  1.00  0.00    -0.170 NA
HETATM    4  N   UNL     1     -43.246  56.725 -55.051  1.00  0.00    -0.216 N 
HETATM    5  C   UNL     1     -43.871  57.614 -54.191  1.00  0.00     0.145 A 
HETATM    6  C   UNL     1     -44.010  56.982 -52.978  1.00  0.00     0.087 A 
HETATM    7  N   UNL     1     -44.253  58.900 -54.389  1.00  0.00    -0.349 N 
HETATM    8  C   UNL     1     -44.790  59.593 -53.316  1.00  0.00     0.111 A 
HETATM    9  C   UNL     1     -45.017  59.069 -52.090  1.00  0.00     0.098 A 
HETATM   10  C   UNL     1     -44.643  57.632 -51.848  1.00  0.00     0.205 A 
HETATM   11  O   UNL     1     -44.850  57.073 -50.775  1.00  0.00    -0.286 OA
HETATM   12  H   UNL     1     -43.940  59.466 -55.177  1.00  0.00     0.167 HD
ENDROOT
BRANCH   9  13
HETATM   13  C   UNL     1     -45.591  59.965 -51.037  1.00  0.00     0.261 C 
HETATM   14  N   UNL     1     -44.745  60.221 -49.978  1.00  0.00    -0.323 N 
HETATM   15  H   UNL     1     -43.835  59.760 -49.993  1.00  0.00     0.169 HD
HETATM   16  O   UNL     1     -46.732  60.401 -51.165  1.00  0.00    -0.267 OA
BRANCH  14  17
HETATM   17  C   UNL     1     -44.975  61.058 -48.866  1.00  0.00     0.035 A 
HETATM   18  C   UNL     1     -44.614  62.405 -48.810  1.00  0.00     0.029 A 
HETATM   19  C   UNL     1     -44.864  63.158 -47.658  1.00  0.00     0.002 A 
HETATM   20  C   UNL     1     -45.481  62.572 -46.555  1.00  0.00     0.000 A 
HETATM   21  C   UNL     1     -45.847  61.230 -46.602  1.00  0.00     0.002 A 
HETATM   22  C   UNL     1     -45.592  60.477 -47.750  1.00  0.00     0.029 A 
ENDBRANCH  14  17
ENDBRANCH   9  13
BRANCH   4  23
HETATM   23  C   UNL     1     -42.983  56.829 -56.448  1.00  0.00     0.060 A 
HETATM   24  C   UNL     1     -43.249  55.772 -57.330  1.00  0.00     0.034 A 
HETATM   25  C   UNL     1     -42.976  55.913 -58.694  1.00  0.00     0.044 A 
HETATM   26  C   UNL     1     -42.432  57.099 -59.172  1.00  0.00     0.116 A 
HETATM   27  F   UNL     1     -42.173  57.225 -60.479  1.00  0.00    -0.206 F 
HETATM   28  C   UNL     1     -42.140  58.148 -58.310  1.00  0.00     0.044 A 
HETATM   29  C   UNL     1     -42.405  58.012 -56.946  1.00  0.00     0.034 A 
ENDBRANCH   4  23
TORSDOF 3
ENDMDL
MODEL 9
REMARK VINA RESULT:      -7.6      5.363      9.021
REMARK  3 active torsions:
REMARK  status: ('A' for Active; 'I' for Inactive)
REMARK    1  A    between atoms: N_4  and  C_5 
REMARK    2  A    between atoms: C_16  and  C_17 
REMARK       I    between atoms: C_17  and  N_18 
REMARK    3  A    between atoms: N_18  and  C_19 
ROOT
HETATM    1  C   UNL     1     -41.183  59.950 -50.192  1.00  0.00     0.073 C 
HETATM    2  C   UNL     1     -42.176  59.691 -51.263  1.00  0.00     0.069 A 
HETATM    3  N   UNL     1     -42.968  60.678 -51.708  1.00  0.00    -0.170 NA
HETATM    4  N   UNL     1     -43.716  60.121 -52.709  1.00  0.00    -0.216 N 
HETATM    5  C   UNL     1     -43.481  58.757 -52.779  1.00  0.00     0.145 A 
HETATM    6  C   UNL     1     -42.465  58.470 -51.896  1.00  0.00     0.087 A 
HETATM    7  N   UNL     1     -44.114  57.796 -53.495  1.00  0.00    -0.349 N 
HETATM    8  C   UNL     1     -43.720  56.480 -53.310  1.00  0.00     0.111 A 
HETATM    9  C   UNL     1     -42.709  56.078 -52.506  1.00  0.00     0.098 A 
HETATM   10  C   UNL     1     -41.958  57.124 -51.729  1.00  0.00     0.205 A 
HETATM   11  O   UNL     1     -41.006  56.845 -51.005  1.00  0.00    -0.286 OA
HETATM   12  H   UNL     1     -45.014  57.934 -53.953  1.00  0.00     0.167 HD
ENDROOT
BRANCH   9  13
HETATM   13  C   UNL     1     -42.427  54.611 -52.410  1.00  0.00     0.261 C 
HETATM   14  N   UNL     1     -41.211  54.225 -52.934  1.00  0.00    -0.323 N 
HETATM   15  H   UNL     1     -40.639  54.956 -53.358  1.00  0.00     0.169 HD
HETATM   16  O   UNL     1     -43.257  53.863 -51.899  1.00  0.00    -0.267 OA
BRANCH  14  17
HETATM   17  C   UNL     1     -40.643  52.934 -52.950  1.00  0.00     0.035 A 
HETATM   18  C   UNL     1     -40.008  52.343 -51.856  1.00  0.00     0.029 A 
HETATM   19  C   UNL     1     -39.455  51.063 -51.966  1.00  0.00     0.002 A 
HETATM   20  C   UNL     1     -39.537  50.362 -53.167  1.00  0.00     0.000 A 
HETATM   21  C   UNL     1     -40.169  50.942 -54.262  1.00  0.00     0.002 A 
HETATM   22  C   UNL     1     -40.717  52.222 -54.155  1.00  0.00     0.029 A 
ENDBRANCH  14  17
ENDBRANCH   9  13
BRANCH   4  23
HETATM   23  C   UNL     1     -44.565  60.947 -53.501  1.00  0.00     0.060 A 
HETATM   24  C   UNL     1     -45.178  60.472 -54.669  1.00  0.00     0.034 A 
HETATM   25  C   UNL     1     -46.003  61.315 -55.419  1.00  0.00     0.044 A 
HETATM   26  C   UNL     1     -46.207  62.628 -55.010  1.00  0.00     0.116 A 
HETATM   27  F   UNL     1     -46.999  63.428 -55.734  1.00  0.00    -0.206 F 
HETATM   28  C   UNL     1     -45.591  63.122 -53.869  1.00  0.00     0.044 A 
HETATM   29  C   UNL     1     -44.761  62.287 -53.118  1.00  0.00     0.034 A 
ENDBRANCH   4  23
TORSDOF 3
ENDMDL
MODEL 10
REMARK VINA RESULT:      -7.6      3.859      8.606
REMARK  3 active torsions:
REMARK  status: ('A' for Active; 'I' for Inactive)
REMARK    1  A    between atoms: N_4  and  C_5 
REMARK    2  A    between atoms: C_16  and  C_17 
REMARK       I    between atoms: C_17  and  N_18 
REMARK    3  A    between atoms: N_18  and  C_19 
ROOT
HETATM    1  C   UNL     1     -42.058  59.911 -52.924  1.00  0.00     0.073 C 
HETATM    2  C   UNL     1     -42.795  59.184 -53.987  1.00  0.00     0.069 A 
HETATM    3  N   UNL     1     -43.914  59.703 -54.515  1.00  0.00    -0.170 NA
HETATM    4  N   UNL     1     -44.305  58.818 -55.482  1.00  0.00    -0.216 N 
HETATM    5  C   UNL     1     -43.504  57.688 -55.447  1.00  0.00     0.145 A 
HETATM    6  C   UNL     1     -42.504  57.922 -54.532  1.00  0.00     0.087 A 
HETATM    7  N   UNL     1     -43.631  56.507 -56.099  1.00  0.00    -0.349 N 
HETATM    8  C   UNL     1     -42.719  55.503 -55.813  1.00  0.00     0.111 A 
HETATM    9  C   UNL     1     -41.670  55.626 -54.967  1.00  0.00     0.098 A 
HETATM   10  C   UNL     1     -41.475  56.940 -54.259  1.00  0.00     0.205 A 
HETATM   11  O   UNL     1     -40.529  57.143 -53.505  1.00  0.00    -0.286 OA
HETATM   12  H   UNL     1     -44.482  56.215 -56.578  1.00  0.00     0.167 HD
ENDROOT
BRANCH   9  13
HETATM   13  C   UNL     1     -40.789  54.434 -54.761  1.00  0.00     0.261 C 
HETATM   14  N   UNL     1     -41.202  53.583 -53.756  1.00  0.00    -0.323 N 
HETATM   15  H   UNL     1     -42.036  53.855 -53.235  1.00  0.00     0.169 HD
HETATM   16  O   UNL     1     -39.791  54.285 -55.461  1.00  0.00    -0.267 OA
BRANCH  14  17
HETATM   17  C   UNL     1     -40.617  52.363 -53.357  1.00  0.00     0.035 A 
HETATM   18  C   UNL     1     -40.017  52.150 -52.115  1.00  0.00     0.029 A 
HETATM   19  C   UNL     1     -39.445  50.911 -51.808  1.00  0.00     0.002 A 
HETATM   20  C   UNL     1     -39.473  49.874 -52.738  1.00  0.00     0.000 A 
HETATM   21  C   UNL     1     -40.071  50.076 -53.978  1.00  0.00     0.002 A 
HETATM   22  C   UNL     1     -40.637  51.315 -54.287  1.00  0.00     0.029 A 
ENDBRANCH  14  17
ENDBRANCH   9  13
BRANCH   4  23
HETATM   23  C   UNL     1     -45.392  59.148 -56.343  1.00  0.00     0.060 A 
HETATM   24  C   UNL     1     -45.743  60.478 -56.613  1.00  0.00     0.034 A 
HETATM   25  C   UNL     1     -46.817  60.760 -57.463  1.00  0.00     0.044 A 
HETATM   26  C   UNL     1     -47.541  59.719 -58.032  1.00  0.00     0.116 A 
HETATM   27  F   UNL     1     -48.568  59.997 -58.844  1.00  0.00    -0.206 F 
HETATM   28  C   UNL     1     -47.222  58.396 -57.758  1.00  0.00     0.044 A 
HETATM   29  C   UNL     1     -46.154  58.107 -56.906  1.00  0.00     0.034 A 
ENDBRANCH   4  23
TORSDOF 3
ENDMDL
