MODEL 1
REMARK VINA RESULT:      -8.5      0.000      0.000
REMARK  8 active torsions:
REMARK  status: ('A' for Active; 'I' for Inactive)
REMARK    1  A    between atoms: C_2  and  C_3 
REMARK    2  A    between atoms: C_3  and  N_4 
REMARK    3  A    between atoms: N_7  and  C_8 
REMARK    4  A    between atoms: C_8  and  C_9 
REMARK       I    between atoms: C_9  and  N_10 
REMARK    5  A    between atoms: N_10  and  C_11 
REMARK    6  A    between atoms: C_24  and  C_25 
REMARK       I    between atoms: C_25  and  N_26 
REMARK    7  A    between atoms: N_26  and  C_27 
REMARK    8  A    between atoms: C_27  and  C_28 
ROOT
HETATM    1  N   UNL     1     -40.133  52.442 -52.368  1.00  0.00    -0.262 N 
HETATM    2  C   UNL     1     -40.619  52.705 -53.641  1.00  0.00     0.332 C 
HETATM    3  O   UNL     1     -40.150  52.177 -54.651  1.00  0.00    -0.246 OA
HETATM    4  N   UNL     1     -41.672  53.607 -53.738  1.00  0.00    -0.290 N 
HETATM    5  C   UNL     1     -42.116  54.374 -52.624  1.00  0.00     0.056 A 
HETATM    6  C   UNL     1     -41.538  54.162 -51.374  1.00  0.00     0.059 A 
HETATM    7  C   UNL     1     -40.504  53.127 -51.220  1.00  0.00     0.264 C 
HETATM    8  O   UNL     1     -40.020  52.929 -50.109  1.00  0.00    -0.267 OA
HETATM    9  C   UNL     1     -43.098  55.375 -52.742  1.00  0.00     0.048 A 
HETATM   10  C   UNL     1     -43.488  56.152 -51.639  1.00  0.00     0.034 A 
HETATM   11  C   UNL     1     -42.905  55.904 -50.392  1.00  0.00     0.018 A 
HETATM   12  C   UNL     1     -41.938  54.909 -50.257  1.00  0.00     0.020 A 
ENDROOT
BRANCH  10  13
HETATM   13  C   UNL     1     -44.437  57.304 -51.756  1.00  0.00     0.252 C 
HETATM   14  N   UNL     1     -44.364  58.075 -52.894  1.00  0.00    -0.353 N 
HETATM   15  H   UNL     1     -43.846  57.774 -53.706  1.00  0.00     0.163 HD
HETATM   16  O   UNL     1     -45.222  57.532 -50.843  1.00  0.00    -0.268 OA
BRANCH  14  17
HETATM   17  C   UNL     1     -45.161  59.270 -53.056  1.00  0.00     0.161 C 
BRANCH  17  18
HETATM   18  C   UNL     1     -44.702  60.069 -54.247  1.00  0.00    -0.038 A 
HETATM   19  C   UNL     1     -43.411  59.889 -54.771  1.00  0.00     0.048 A 
HETATM   20  C   UNL     1     -43.042  60.653 -55.857  1.00  0.00     0.105 A 
HETATM   21  C   UNL     1     -43.899  61.561 -56.433  1.00  0.00     0.105 A 
HETATM   22  O   UNL     1     -41.832  60.615 -56.477  1.00  0.00    -0.323 OA
HETATM   23  O   UNL     1     -43.334  62.212 -57.484  1.00  0.00    -0.323 OA
HETATM   24  C   UNL     1     -45.177  61.752 -55.958  1.00  0.00     0.040 A 
HETATM   25  C   UNL     1     -42.018  61.620 -57.495  1.00  0.00     0.352 A 
HETATM   26  C   UNL     1     -45.582  60.993 -54.857  1.00  0.00     0.012 A 
ENDBRANCH  17  18
ENDBRANCH  14  17
ENDBRANCH  10  13
BRANCH   4  27
HETATM   27  C   UNL     1     -42.428  53.625 -54.998  1.00  0.00     0.237 C 
BRANCH  27  28
HETATM   28  C   UNL     1     -42.241  54.847 -55.897  1.00  0.00     0.240 C 
HETATM   29  N   UNL     1     -43.229  55.025 -56.847  1.00  0.00    -0.326 N 
HETATM   30  H   UNL     1     -43.991  54.354 -56.837  1.00  0.00     0.169 HD
HETATM   31  O   UNL     1     -41.295  55.604 -55.685  1.00  0.00    -0.271 OA
BRANCH  29  32
HETATM   32  C   UNL     1     -43.302  56.055 -57.810  1.00  0.00     0.034 A 
HETATM   33  C   UNL     1     -42.837  55.931 -59.123  1.00  0.00     0.031 A 
HETATM   34  C   UNL     1     -42.943  56.994 -60.026  1.00  0.00     0.021 A 
HETATM   35  C   UNL     1     -43.519  58.192 -59.620  1.00  0.00     0.011 A 
HETATM   36 BR   UNL     1     -43.660  59.629 -60.838  1.00  0.00    -0.051 Br
HETATM   37  C   UNL     1     -43.991  58.335 -58.317  1.00  0.00     0.021 A 
HETATM   38  C   UNL     1     -43.881  57.268 -57.417  1.00  0.00     0.031 A 
ENDBRANCH  29  32
ENDBRANCH  27  28
ENDBRANCH   4  27
BRANCH   1  39
HETATM   39  C   UNL     1     -39.164  51.365 -52.221  1.00  0.00     0.163 C 
BRANCH  39  40
HETATM   40  C   UNL     1     -39.821  50.047 -51.882  1.00  0.00    -0.017 C 
HETATM   41  C   UNL     1     -39.962  49.462 -50.683  1.00  0.00     0.008 C 
ENDBRANCH  39  40
ENDBRANCH   1  39
TORSDOF 8
ENDMDL
MODEL 2
REMARK VINA RESULT:      -8.5      3.360      4.651
REMARK  8 active torsions:
REMARK  status: ('A' for Active; 'I' for Inactive)
REMARK    1  A    between atoms: C_2  and  C_3 
REMARK    2  A    between atoms: C_3  and  N_4 
REMARK    3  A    between atoms: N_7  and  C_8 
REMARK    4  A    between atoms: C_8  and  C_9 
REMARK       I    between atoms: C_9  and  N_10 
REMARK    5  A    between atoms: N_10  and  C_11 
REMARK    6  A    between atoms: C_24  and  C_25 
REMARK       I    between atoms: C_25  and  N_26 
REMARK    7  A    between atoms: N_26  and  C_27 
REMARK    8  A    between atoms: C_27  and  C_28 
ROOT
HETATM    1  N   UNL     1     -40.868  53.240 -53.543  1.00  0.00    -0.262 N 
HETATM    2  C   UNL     1     -40.775  54.211 -54.529  1.00  0.00     0.332 C 
HETATM    3  O   UNL     1     -40.496  53.943 -55.699  1.00  0.00    -0.246 OA
HETATM    4  N   UNL     1     -41.009  55.526 -54.141  1.00  0.00    -0.290 N 
HETATM    5  C   UNL     1     -41.149  55.897 -52.774  1.00  0.00     0.056 A 
HETATM    6  C   UNL     1     -41.136  54.908 -51.793  1.00  0.00     0.059 A 
HETATM    7  C   UNL     1     -41.009  53.497 -52.186  1.00  0.00     0.264 C 
HETATM    8  O   UNL     1     -41.025  52.632 -51.315  1.00  0.00    -0.267 OA
HETATM    9  C   UNL     1     -41.265  57.239 -52.367  1.00  0.00     0.048 A 
HETATM   10  C   UNL     1     -41.356  57.587 -51.009  1.00  0.00     0.034 A 
HETATM   11  C   UNL     1     -41.359  56.572 -50.046  1.00  0.00     0.018 A 
HETATM   12  C   UNL     1     -41.255  55.238 -50.434  1.00  0.00     0.020 A 
ENDROOT
BRANCH  10  13
HETATM   13  C   UNL     1     -41.355  59.007 -50.537  1.00  0.00     0.252 C 
HETATM   14  N   UNL     1     -42.527  59.719 -50.660  1.00  0.00    -0.353 N 
HETATM   15  H   UNL     1     -43.404  59.265 -50.865  1.00  0.00     0.163 HD
HETATM   16  O   UNL     1     -40.324  59.489 -50.081  1.00  0.00    -0.268 OA
BRANCH  14  17
HETATM   17  C   UNL     1     -42.601  61.125 -50.332  1.00  0.00     0.161 C 
BRANCH  17  18
HETATM   18  C   UNL     1     -43.909  61.456 -49.663  1.00  0.00    -0.038 A 
HETATM   19  C   UNL     1     -44.111  61.157 -48.306  1.00  0.00     0.048 A 
HETATM   20  C   UNL     1     -45.331  61.476 -47.748  1.00  0.00     0.105 A 
HETATM   21  C   UNL     1     -46.328  62.080 -48.477  1.00  0.00     0.105 A 
HETATM   22  O   UNL     1     -45.697  61.245 -46.459  1.00  0.00    -0.323 OA
HETATM   23  O   UNL     1     -47.449  62.300 -47.739  1.00  0.00    -0.323 OA
HETATM   24  C   UNL     1     -46.161  62.405 -49.805  1.00  0.00     0.040 A 
HETATM   25  C   UNL     1     -47.048  61.752 -46.466  1.00  0.00     0.352 A 
HETATM   26  C   UNL     1     -44.935  62.093 -50.400  1.00  0.00     0.012 A 
ENDBRANCH  17  18
ENDBRANCH  14  17
ENDBRANCH  10  13
BRANCH   4  27
HETATM   27  C   UNL     1     -41.273  56.503 -55.206  1.00  0.00     0.237 C 
BRANCH  27  28
HETATM   28  C   UNL     1     -42.615  56.388 -55.930  1.00  0.00     0.240 C 
HETATM   29  N   UNL     1     -42.539  56.463 -57.307  1.00  0.00    -0.326 N 
HETATM   30  H   UNL     1     -41.609  56.554 -57.704  1.00  0.00     0.169 HD
HETATM   31  O   UNL     1     -43.632  56.179 -55.271  1.00  0.00    -0.271 OA
BRANCH  29  32
HETATM   32  C   UNL     1     -43.615  56.399 -58.220  1.00  0.00     0.034 A 
HETATM   33  C   UNL     1     -43.830  55.334 -59.101  1.00  0.00     0.031 A 
HETATM   34  C   UNL     1     -44.920  55.337 -59.978  1.00  0.00     0.021 A 
HETATM   35  C   UNL     1     -45.806  56.408 -59.977  1.00  0.00     0.011 A 
HETATM   36 BR   UNL     1     -47.277  56.412 -61.163  1.00  0.00    -0.051 Br
HETATM   37  C   UNL     1     -45.611  57.476 -59.105  1.00  0.00     0.021 A 
HETATM   38  C   UNL     1     -44.518  57.469 -58.230  1.00  0.00     0.031 A 
ENDBRANCH  29  32
ENDBRANCH  27  28
ENDBRANCH   4  27
BRANCH   1  39
HETATM   39  C   UNL     1     -40.814  51.845 -53.957  1.00  0.00     0.163 C 
BRANCH  39  40
HETATM   40  C   UNL     1     -39.448  51.236 -53.742  1.00  0.00    -0.017 C 
HETATM   41  C   UNL     1     -39.057  49.965 -53.920  1.00  0.00     0.008 C 
ENDBRANCH  39  40
ENDBRANCH   1  39
TORSDOF 8
ENDMDL
MODEL 3
REMARK VINA RESULT:      -8.4      2.576      8.239
REMARK  8 active torsions:
REMARK  status: ('A' for Active; 'I' for Inactive)
REMARK    1  A    between atoms: C_2  and  C_3 
REMARK    2  A    between atoms: C_3  and  N_4 
REMARK    3  A    between atoms: N_7  and  C_8 
REMARK    4  A    between atoms: C_8  and  C_9 
REMARK       I    between atoms: C_9  and  N_10 
REMARK    5  A    between atoms: N_10  and  C_11 
REMARK    6  A    between atoms: C_24  and  C_25 
REMARK       I    between atoms: C_25  and  N_26 
REMARK    7  A    between atoms: N_26  and  C_27 
REMARK    8  A    between atoms: C_27  and  C_28 
ROOT
HETATM    1  N   UNL     1     -45.208  60.886 -50.722  1.00  0.00    -0.262 N 
HETATM    2  C   UNL     1     -44.495  61.386 -51.802  1.00  0.00     0.332 C 
HETATM    3  O   UNL     1     -44.542  62.572 -52.135  1.00  0.00    -0.246 OA
HETATM    4  N   UNL     1     -43.711  60.483 -52.511  1.00  0.00    -0.290 N 
HETATM    5  C   UNL     1     -43.774  59.081 -52.276  1.00  0.00     0.056 A 
HETATM    6  C   UNL     1     -44.580  58.595 -51.249  1.00  0.00     0.059 A 
HETATM    7  C   UNL     1     -45.327  59.540 -50.405  1.00  0.00     0.264 C 
HETATM    8  O   UNL     1     -46.014  59.104 -49.485  1.00  0.00    -0.267 OA
HETATM    9  C   UNL     1     -43.077  58.152 -53.070  1.00  0.00     0.048 A 
HETATM   10  C   UNL     1     -43.189  56.769 -52.850  1.00  0.00     0.034 A 
HETATM   11  C   UNL     1     -43.990  56.311 -51.799  1.00  0.00     0.018 A 
HETATM   12  C   UNL     1     -44.680  57.219 -50.997  1.00  0.00     0.020 A 
ENDROOT
BRANCH  10  13
HETATM   13  C   UNL     1     -42.561  55.753 -53.752  1.00  0.00     0.252 C 
HETATM   14  N   UNL     1     -41.214  55.509 -53.596  1.00  0.00    -0.353 N 
HETATM   15  H   UNL     1     -40.707  55.837 -52.788  1.00  0.00     0.163 HD
HETATM   16  O   UNL     1     -43.248  55.194 -54.599  1.00  0.00    -0.268 OA
BRANCH  14  17
HETATM   17  C   UNL     1     -40.493  54.627 -54.485  1.00  0.00     0.161 C 
BRANCH  17  18
HETATM   18  C   UNL     1     -40.263  53.284 -53.844  1.00  0.00    -0.038 A 
HETATM   19  C   UNL     1     -40.295  53.147 -52.446  1.00  0.00     0.048 A 
HETATM   20  C   UNL     1     -40.071  51.895 -51.914  1.00  0.00     0.105 A 
HETATM   21  C   UNL     1     -39.834  50.798 -52.709  1.00  0.00     0.105 A 
HETATM   22  O   UNL     1     -40.053  51.589 -50.589  1.00  0.00    -0.323 OA
HETATM   23  O   UNL     1     -39.632  49.666 -51.984  1.00  0.00    -0.323 OA
HETATM   24  C   UNL     1     -39.813  50.890 -54.083  1.00  0.00     0.040 A 
HETATM   25  C   UNL     1     -39.755  50.179 -50.641  1.00  0.00     0.352 A 
HETATM   26  C   UNL     1     -40.036  52.147 -54.653  1.00  0.00     0.012 A 
ENDBRANCH  17  18
ENDBRANCH  14  17
ENDBRANCH  10  13
BRANCH   4  27
HETATM   27  C   UNL     1     -42.688  61.039 -53.407  1.00  0.00     0.237 C 
BRANCH  27  28
HETATM   28  C   UNL     1     -43.013  61.056 -54.900  1.00  0.00     0.240 C 
HETATM   29  N   UNL     1     -41.977  60.662 -55.724  1.00  0.00    -0.326 N 
HETATM   30  H   UNL     1     -41.120  60.372 -55.264  1.00  0.00     0.169 HD
HETATM   31  O   UNL     1     -44.154  61.346 -55.258  1.00  0.00    -0.271 OA
BRANCH  29  32
HETATM   32  C   UNL     1     -41.995  60.595 -57.135  1.00  0.00     0.034 A 
HETATM   33  C   UNL     1     -42.283  59.432 -57.857  1.00  0.00     0.031 A 
HETATM   34  C   UNL     1     -42.284  59.439 -59.256  1.00  0.00     0.021 A 
HETATM   35  C   UNL     1     -41.999  60.613 -59.943  1.00  0.00     0.011 A 
HETATM   36 BR   UNL     1     -41.999  60.621 -61.833  1.00  0.00    -0.051 Br
HETATM   37  C   UNL     1     -41.713  61.782 -59.242  1.00  0.00     0.021 A 
HETATM   38  C   UNL     1     -41.711  61.770 -57.842  1.00  0.00     0.031 A 
ENDBRANCH  29  32
ENDBRANCH  27  28
ENDBRANCH   4  27
BRANCH   1  39
HETATM   39  C   UNL     1     -45.882  61.840 -49.853  1.00  0.00     0.163 C 
BRANCH  39  40
HETATM   40  C   UNL     1     -45.007  62.283 -48.703  1.00  0.00    -0.017 C 
HETATM   41  C   UNL     1     -45.114  61.978 -47.401  1.00  0.00     0.008 C 
ENDBRANCH  39  40
ENDBRANCH   1  39
TORSDOF 8
ENDMDL
MODEL 4
REMARK VINA RESULT:      -8.2      3.632      4.959
REMARK  8 active torsions:
REMARK  status: ('A' for Active; 'I' for Inactive)
REMARK    1  A    between atoms: C_2  and  C_3 
REMARK    2  A    between atoms: C_3  and  N_4 
REMARK    3  A    between atoms: N_7  and  C_8 
REMARK    4  A    between atoms: C_8  and  C_9 
REMARK       I    between atoms: C_9  and  N_10 
REMARK    5  A    between atoms: N_10  and  C_11 
REMARK    6  A    between atoms: C_24  and  C_25 
REMARK       I    between atoms: C_25  and  N_26 
REMARK    7  A    between atoms: N_26  and  C_27 
REMARK    8  A    between atoms: C_27  and  C_28 
ROOT
HETATM    1  N   UNL     1     -40.851  53.735 -53.019  1.00  0.00    -0.262 N 
HETATM    2  C   UNL     1     -40.676  54.567 -54.116  1.00  0.00     0.332 C 
HETATM    3  O   UNL     1     -39.827  54.351 -54.983  1.00  0.00    -0.246 OA
HETATM    4  N   UNL     1     -41.508  55.677 -54.202  1.00  0.00    -0.290 N 
HETATM    5  C   UNL     1     -42.369  56.061 -53.135  1.00  0.00     0.056 A 
HETATM    6  C   UNL     1     -42.448  55.260 -51.998  1.00  0.00     0.059 A 
HETATM    7  C   UNL     1     -41.667  54.016 -51.933  1.00  0.00     0.264 C 
HETATM    8  O   UNL     1     -41.764  53.303 -50.937  1.00  0.00    -0.267 OA
HETATM    9  C   UNL     1     -43.122  57.250 -53.167  1.00  0.00     0.048 A 
HETATM   10  C   UNL     1     -43.930  57.634 -52.083  1.00  0.00     0.034 A 
HETATM   11  C   UNL     1     -44.005  56.800 -50.963  1.00  0.00     0.018 A 
HETATM   12  C   UNL     1     -43.272  55.615 -50.921  1.00  0.00     0.020 A 
ENDROOT
BRANCH  10  13
HETATM   13  C   UNL     1     -44.645  58.947 -52.034  1.00  0.00     0.252 C 
HETATM   14  N   UNL     1     -44.430  59.748 -50.934  1.00  0.00    -0.353 N 
HETATM   15  H   UNL     1     -43.678  59.568 -50.287  1.00  0.00     0.163 HD
HETATM   16  O   UNL     1     -45.401  59.256 -52.948  1.00  0.00    -0.268 OA
BRANCH  14  17
HETATM   17  C   UNL     1     -45.152  60.985 -50.741  1.00  0.00     0.161 C 
BRANCH  17  18
HETATM   18  C   UNL     1     -45.221  61.348 -49.281  1.00  0.00    -0.038 A 
HETATM   19  C   UNL     1     -45.046  62.680 -48.870  1.00  0.00     0.048 A 
HETATM   20  C   UNL     1     -45.112  62.953 -47.520  1.00  0.00     0.105 A 
HETATM   21  C   UNL     1     -45.352  61.970 -46.590  1.00  0.00     0.105 A 
HETATM   22  O   UNL     1     -44.952  64.179 -46.952  1.00  0.00    -0.323 OA
HETATM   23  O   UNL     1     -45.369  62.453 -45.319  1.00  0.00    -0.323 OA
HETATM   24  C   UNL     1     -45.547  60.657 -46.956  1.00  0.00     0.040 A 
HETATM   25  C   UNL     1     -45.097  63.850 -45.555  1.00  0.00     0.352 A 
HETATM   26  C   UNL     1     -45.485  60.347 -48.318  1.00  0.00     0.012 A 
ENDBRANCH  17  18
ENDBRANCH  14  17
ENDBRANCH  10  13
BRANCH   4  27
HETATM   27  C   UNL     1     -41.594  56.354 -55.504  1.00  0.00     0.237 C 
BRANCH  27  28
HETATM   28  C   UNL     1     -42.745  55.941 -56.421  1.00  0.00     0.240 C 
HETATM   29  N   UNL     1     -43.063  56.860 -57.402  1.00  0.00    -0.326 N 
HETATM   30  H   UNL     1     -42.489  57.697 -57.440  1.00  0.00     0.169 HD
HETATM   31  O   UNL     1     -43.254  54.831 -56.276  1.00  0.00    -0.271 OA
BRANCH  29  32
HETATM   32  C   UNL     1     -44.084  56.745 -58.372  1.00  0.00     0.034 A 
HETATM   33  C   UNL     1     -44.017  55.892 -59.478  1.00  0.00     0.031 A 
HETATM   34  C   UNL     1     -45.068  55.828 -60.400  1.00  0.00     0.021 A 
HETATM   35  C   UNL     1     -46.197  56.618 -60.218  1.00  0.00     0.011 A 
HETATM   36 BR   UNL     1     -47.615  56.533 -61.463  1.00  0.00    -0.051 Br
HETATM   37  C   UNL     1     -46.284  57.471 -59.120  1.00  0.00     0.021 A 
HETATM   38  C   UNL     1     -45.229  57.532 -58.201  1.00  0.00     0.031 A 
ENDBRANCH  29  32
ENDBRANCH  27  28
ENDBRANCH   4  27
BRANCH   1  39
HETATM   39  C   UNL     1     -40.127  52.472 -53.004  1.00  0.00     0.163 C 
BRANCH  39  40
HETATM   40  C   UNL     1     -40.632  51.511 -54.054  1.00  0.00    -0.017 C 
HETATM   41  C   UNL     1     -40.199  50.273 -54.337  1.00  0.00     0.008 C 
ENDBRANCH  39  40
ENDBRANCH   1  39
TORSDOF 8
ENDMDL
MODEL 5
REMARK VINA RESULT:      -8.1      4.079      7.762
REMARK  8 active torsions:
REMARK  status: ('A' for Active; 'I' for Inactive)
REMARK    1  A    between atoms: C_2  and  C_3 
REMARK    2  A    between atoms: C_3  and  N_4 
REMARK    3  A    between atoms: N_7  and  C_8 
REMARK    4  A    between atoms: C_8  and  C_9 
REMARK       I    between atoms: C_9  and  N_10 
REMARK    5  A    between atoms: N_10  and  C_11 
REMARK    6  A    between atoms: C_24  and  C_25 
REMARK       I    between atoms: C_25  and  N_26 
REMARK    7  A    between atoms: N_26  and  C_27 
REMARK    8  A    between atoms: C_27  and  C_28 
ROOT
HETATM    1  N   UNL     1     -44.421  57.326 -58.309  1.00  0.00    -0.262 N 
HETATM    2  C   UNL     1     -43.411  56.567 -57.735  1.00  0.00     0.332 C 
HETATM    3  O   UNL     1     -42.876  55.625 -58.321  1.00  0.00    -0.246 OA
HETATM    4  N   UNL     1     -43.021  56.912 -56.446  1.00  0.00    -0.290 N 
HETATM    5  C   UNL     1     -43.736  57.867 -55.670  1.00  0.00     0.056 A 
HETATM    6  C   UNL     1     -44.814  58.542 -56.239  1.00  0.00     0.059 A 
HETATM    7  C   UNL     1     -45.173  58.281 -57.641  1.00  0.00     0.264 C 
HETATM    8  O   UNL     1     -46.108  58.901 -58.142  1.00  0.00    -0.267 OA
HETATM    9  C   UNL     1     -43.420  58.132 -54.324  1.00  0.00     0.048 A 
HETATM   10  C   UNL     1     -44.169  59.044 -53.562  1.00  0.00     0.034 A 
HETATM   11  C   UNL     1     -45.233  59.722 -54.165  1.00  0.00     0.018 A 
HETATM   12  C   UNL     1     -45.552  59.477 -55.499  1.00  0.00     0.020 A 
ENDROOT
BRANCH  10  13
HETATM   13  C   UNL     1     -43.937  59.256 -52.099  1.00  0.00     0.252 C 
HETATM   14  N   UNL     1     -43.312  60.421 -51.715  1.00  0.00    -0.353 N 
HETATM   15  H   UNL     1     -43.194  61.193 -52.353  1.00  0.00     0.163 HD
HETATM   16  O   UNL     1     -44.288  58.392 -51.302  1.00  0.00    -0.268 OA
BRANCH  14  17
HETATM   17  C   UNL     1     -42.948  60.672 -50.339  1.00  0.00     0.161 C 
BRANCH  17  18
HETATM   18  C   UNL     1     -43.907  61.638 -49.694  1.00  0.00    -0.038 A 
HETATM   19  C   UNL     1     -45.014  61.166 -48.971  1.00  0.00     0.048 A 
HETATM   20  C   UNL     1     -45.862  62.095 -48.407  1.00  0.00     0.105 A 
HETATM   21  C   UNL     1     -45.643  63.447 -48.528  1.00  0.00     0.105 A 
HETATM   22  O   UNL     1     -46.983  61.813 -47.690  1.00  0.00    -0.323 OA
HETATM   23  O   UNL     1     -46.601  64.185 -47.906  1.00  0.00    -0.323 OA
HETATM   24  C   UNL     1     -44.559  63.947 -49.213  1.00  0.00     0.040 A 
HETATM   25  C   UNL     1     -47.456  63.143 -47.392  1.00  0.00     0.352 A 
HETATM   26  C   UNL     1     -43.680  63.030 -49.797  1.00  0.00     0.012 A 
ENDBRANCH  17  18
ENDBRANCH  14  17
ENDBRANCH  10  13
BRANCH   4  27
HETATM   27  C   UNL     1     -41.738  56.378 -55.966  1.00  0.00     0.237 C 
BRANCH  27  28
HETATM   28  C   UNL     1     -41.791  55.083 -55.156  1.00  0.00     0.240 C 
HETATM   29  N   UNL     1     -40.591  54.707 -54.584  1.00  0.00    -0.326 N 
HETATM   30  H   UNL     1     -39.806  55.335 -54.729  1.00  0.00     0.169 HD
HETATM   31  O   UNL     1     -42.872  54.512 -55.014  1.00  0.00    -0.271 OA
BRANCH  29  32
HETATM   32  C   UNL     1     -40.350  53.557 -53.800  1.00  0.00     0.034 A 
HETATM   33  C   UNL     1     -40.040  52.301 -54.331  1.00  0.00     0.031 A 
HETATM   34  C   UNL     1     -39.812  51.204 -53.493  1.00  0.00     0.021 A 
HETATM   35  C   UNL     1     -39.889  51.358 -52.114  1.00  0.00     0.011 A 
HETATM   36 BR   UNL     1     -39.582  49.877 -50.983  1.00  0.00    -0.051 Br
HETATM   37  C   UNL     1     -40.192  52.602 -51.566  1.00  0.00     0.021 A 
HETATM   38  C   UNL     1     -40.422  53.697 -52.409  1.00  0.00     0.031 A 
ENDBRANCH  29  32
ENDBRANCH  27  28
ENDBRANCH   4  27
BRANCH   1  39
HETATM   39  C   UNL     1     -44.715  57.108 -59.718  1.00  0.00     0.163 C 
BRANCH  39  40
HETATM   40  C   UNL     1     -45.818  56.095 -59.922  1.00  0.00    -0.017 C 
HETATM   41  C   UNL     1     -47.071  56.293 -60.359  1.00  0.00     0.008 C 
ENDBRANCH  39  40
ENDBRANCH   1  39
TORSDOF 8
ENDMDL
MODEL 6
REMARK VINA RESULT:      -7.8      2.562      8.296
REMARK  8 active torsions:
REMARK  status: ('A' for Active; 'I' for Inactive)
REMARK    1  A    between atoms: C_2  and  C_3 
REMARK    2  A    between atoms: C_3  and  N_4 
REMARK    3  A    between atoms: N_7  and  C_8 
REMARK    4  A    between atoms: C_8  and  C_9 
REMARK       I    between atoms: C_9  and  N_10 
REMARK    5  A    between atoms: N_10  and  C_11 
REMARK    6  A    between atoms: C_24  and  C_25 
REMARK       I    between atoms: C_25  and  N_26 
REMARK    7  A    between atoms: N_26  and  C_27 
REMARK    8  A    between atoms: C_27  and  C_28 
ROOT
HETATM    1  N   UNL     1     -45.917  60.818 -51.421  1.00  0.00    -0.262 N 
HETATM    2  C   UNL     1     -45.595  61.053 -52.750  1.00  0.00     0.332 C 
HETATM    3  O   UNL     1     -45.984  62.051 -53.360  1.00  0.00    -0.246 OA
HETATM    4  N   UNL     1     -44.807  60.098 -53.384  1.00  0.00    -0.290 N 
HETATM    5  C   UNL     1     -44.496  58.850 -52.776  1.00  0.00     0.056 A 
HETATM    6  C   UNL     1     -44.920  58.599 -51.473  1.00  0.00     0.059 A 
HETATM    7  C   UNL     1     -45.654  59.639 -50.737  1.00  0.00     0.264 C 
HETATM    8  O   UNL     1     -46.000  59.419 -49.579  1.00  0.00    -0.267 OA
HETATM    9  C   UNL     1     -43.802  57.833 -53.458  1.00  0.00     0.048 A 
HETATM   10  C   UNL     1     -43.546  56.590 -52.856  1.00  0.00     0.034 A 
HETATM   11  C   UNL     1     -43.967  56.373 -51.539  1.00  0.00     0.018 A 
HETATM   12  C   UNL     1     -44.646  57.374 -50.848  1.00  0.00     0.020 A 
ENDROOT
BRANCH  10  13
HETATM   13  C   UNL     1     -42.922  55.447 -53.593  1.00  0.00     0.252 C 
HETATM   14  N   UNL     1     -41.547  55.396 -53.642  1.00  0.00    -0.353 N 
HETATM   15  H   UNL     1     -40.974  55.973 -53.046  1.00  0.00     0.163 HD
HETATM   16  O   UNL     1     -43.642  54.618 -54.139  1.00  0.00    -0.268 OA
BRANCH  14  17
HETATM   17  C   UNL     1     -40.850  54.394 -54.417  1.00  0.00     0.161 C 
BRANCH  17  18
HETATM   18  C   UNL     1     -40.442  53.230 -53.553  1.00  0.00    -0.038 A 
HETATM   19  C   UNL     1     -40.243  51.960 -54.117  1.00  0.00     0.048 A 
HETATM   20  C   UNL     1     -39.876  50.930 -53.278  1.00  0.00     0.105 A 
HETATM   21  C   UNL     1     -39.694  51.121 -51.928  1.00  0.00     0.105 A 
HETATM   22  O   UNL     1     -39.657  49.641 -53.654  1.00  0.00    -0.323 OA
HETATM   23  O   UNL     1     -39.342  49.975 -51.286  1.00  0.00    -0.323 OA
HETATM   24  C   UNL     1     -39.861  52.355 -51.342  1.00  0.00     0.040 A 
HETATM   25  C   UNL     1     -39.338  49.038 -52.382  1.00  0.00     0.352 A 
HETATM   26  C   UNL     1     -40.234  53.421 -52.167  1.00  0.00     0.012 A 
ENDBRANCH  17  18
ENDBRANCH  14  17
ENDBRANCH  10  13
BRANCH   4  27
HETATM   27  C   UNL     1     -44.163  60.490 -54.646  1.00  0.00     0.237 C 
BRANCH  27  28
HETATM   28  C   UNL     1     -44.923  60.175 -55.935  1.00  0.00     0.240 C 
HETATM   29  N   UNL     1     -44.805  58.870 -56.372  1.00  0.00    -0.326 N 
HETATM   30  H   UNL     1     -44.258  58.245 -55.787  1.00  0.00     0.169 HD
HETATM   31  O   UNL     1     -45.618  61.051 -56.446  1.00  0.00    -0.271 OA
BRANCH  29  32
HETATM   32  C   UNL     1     -45.386  58.309 -57.531  1.00  0.00     0.034 A 
HETATM   33  C   UNL     1     -46.763  58.138 -57.710  1.00  0.00     0.031 A 
HETATM   34  C   UNL     1     -47.269  57.576 -58.887  1.00  0.00     0.021 A 
HETATM   35  C   UNL     1     -46.399  57.184 -59.897  1.00  0.00     0.011 A 
HETATM   36 BR   UNL     1     -47.083  56.424 -61.485  1.00  0.00    -0.051 Br
HETATM   37  C   UNL     1     -45.025  57.349 -59.740  1.00  0.00     0.021 A 
HETATM   38  C   UNL     1     -44.523  57.911 -58.559  1.00  0.00     0.031 A 
ENDBRANCH  29  32
ENDBRANCH  27  28
ENDBRANCH   4  27
BRANCH   1  39
HETATM   39  C   UNL     1     -46.577  61.886 -50.684  1.00  0.00     0.163 C 
BRANCH  39  40
HETATM   40  C   UNL     1     -45.591  62.796 -49.990  1.00  0.00    -0.017 C 
HETATM   41  C   UNL     1     -45.289  62.869 -48.684  1.00  0.00     0.008 C 
ENDBRANCH  39  40
ENDBRANCH   1  39
TORSDOF 8
ENDMDL
MODEL 7
REMARK VINA RESULT:      -7.7      2.749      3.578
REMARK  8 active torsions:
REMARK  status: ('A' for Active; 'I' for Inactive)
REMARK    1  A    between atoms: C_2  and  C_3 
REMARK    2  A    between atoms: C_3  and  N_4 
REMARK    3  A    between atoms: N_7  and  C_8 
REMARK    4  A    between atoms: C_8  and  C_9 
REMARK       I    between atoms: C_9  and  N_10 
REMARK    5  A    between atoms: N_10  and  C_11 
REMARK    6  A    between atoms: C_24  and  C_25 
REMARK       I    between atoms: C_25  and  N_26 
REMARK    7  A    between atoms: N_26  and  C_27 
REMARK    8  A    between atoms: C_27  and  C_28 
ROOT
HETATM    1  N   UNL     1     -40.624  52.867 -52.705  1.00  0.00    -0.262 N 
HETATM    2  C   UNL     1     -40.392  53.555 -53.888  1.00  0.00     0.332 C 
HETATM    3  O   UNL     1     -39.911  53.014 -54.885  1.00  0.00    -0.246 OA
HETATM    4  N   UNL     1     -40.723  54.906 -53.905  1.00  0.00    -0.290 N 
HETATM    5  C   UNL     1     -41.102  55.606 -52.726  1.00  0.00     0.056 A 
HETATM    6  C   UNL     1     -41.229  54.908 -51.527  1.00  0.00     0.059 A 
HETATM    7  C   UNL     1     -41.001  53.456 -51.506  1.00  0.00     0.264 C 
HETATM    8  O   UNL     1     -41.141  52.845 -50.449  1.00  0.00    -0.267 OA
HETATM    9  C   UNL     1     -41.321  56.996 -52.714  1.00  0.00     0.048 A 
HETATM   10  C   UNL     1     -41.650  57.676 -51.529  1.00  0.00     0.034 A 
HETATM   11  C   UNL     1     -41.789  56.946 -50.344  1.00  0.00     0.018 A 
HETATM   12  C   UNL     1     -41.586  55.568 -50.342  1.00  0.00     0.020 A 
ENDROOT
BRANCH  10  13
HETATM   13  C   UNL     1     -41.767  59.166 -51.457  1.00  0.00     0.252 C 
HETATM   14  N   UNL     1     -42.652  59.692 -50.544  1.00  0.00    -0.353 N 
HETATM   15  H   UNL     1     -43.057  59.127 -49.813  1.00  0.00     0.163 HD
HETATM   16  O   UNL     1     -41.097  59.859 -52.215  1.00  0.00    -0.268 OA
BRANCH  14  17
HETATM   17  C   UNL     1     -42.916  61.111 -50.470  1.00  0.00     0.161 C 
BRANCH  17  18
HETATM   18  C   UNL     1     -44.296  61.432 -50.980  1.00  0.00    -0.038 A 
HETATM   19  C   UNL     1     -45.066  62.435 -50.370  1.00  0.00     0.048 A 
HETATM   20  C   UNL     1     -46.325  62.681 -50.874  1.00  0.00     0.105 A 
HETATM   21  C   UNL     1     -46.827  61.985 -51.949  1.00  0.00     0.105 A 
HETATM   22  O   UNL     1     -47.204  63.603 -50.396  1.00  0.00    -0.323 OA
HETATM   23  O   UNL     1     -48.085  62.379 -52.279  1.00  0.00    -0.323 OA
HETATM   24  C   UNL     1     -46.094  61.007 -52.585  1.00  0.00     0.040 A 
HETATM   25  C   UNL     1     -48.324  63.392 -51.280  1.00  0.00     0.352 A 
HETATM   26  C   UNL     1     -44.814  60.734 -52.096  1.00  0.00     0.012 A 
ENDBRANCH  17  18
ENDBRANCH  14  17
ENDBRANCH  10  13
BRANCH   4  27
HETATM   27  C   UNL     1     -40.828  55.554 -55.220  1.00  0.00     0.237 C 
BRANCH  27  28
HETATM   28  C   UNL     1     -42.190  55.490 -55.913  1.00  0.00     0.240 C 
HETATM   29  N   UNL     1     -42.268  56.188 -57.102  1.00  0.00    -0.326 N 
HETATM   30  H   UNL     1     -41.417  56.644 -57.415  1.00  0.00     0.169 HD
HETATM   31  O   UNL     1     -43.077  54.794 -55.420  1.00  0.00    -0.271 OA
BRANCH  29  32
HETATM   32  C   UNL     1     -43.399  56.310 -57.940  1.00  0.00     0.034 A 
HETATM   33  C   UNL     1     -44.299  57.379 -57.886  1.00  0.00     0.031 A 
HETATM   34  C   UNL     1     -45.399  57.436 -58.748  1.00  0.00     0.021 A 
HETATM   35  C   UNL     1     -45.605  56.420 -59.675  1.00  0.00     0.011 A 
HETATM   36 BR   UNL     1     -47.092  56.496 -60.838  1.00  0.00    -0.051 Br
HETATM   37  C   UNL     1     -44.719  55.348 -59.746  1.00  0.00     0.021 A 
HETATM   38  C   UNL     1     -43.620  55.296 -58.880  1.00  0.00     0.031 A 
ENDBRANCH  29  32
ENDBRANCH  27  28
ENDBRANCH   4  27
BRANCH   1  39
HETATM   39  C   UNL     1     -40.465  51.420 -52.720  1.00  0.00     0.163 C 
BRANCH  39  40
HETATM   40  C   UNL     1     -39.381  50.955 -51.775  1.00  0.00    -0.017 C 
HETATM   41  C   UNL     1     -39.359  49.864 -50.994  1.00  0.00     0.008 C 
ENDBRANCH  39  40
ENDBRANCH   1  39
TORSDOF 8
ENDMDL
MODEL 8
REMARK VINA RESULT:      -7.7     16.613     18.894
REMARK  8 active torsions:
REMARK  status: ('A' for Active; 'I' for Inactive)
REMARK    1  A    between atoms: C_2  and  C_3 
REMARK    2  A    between atoms: C_3  and  N_4 
REMARK    3  A    between atoms: N_7  and  C_8 
REMARK    4  A    between atoms: C_8  and  C_9 
REMARK       I    between atoms: C_9  and  N_10 
REMARK    5  A    between atoms: N_10  and  C_11 
REMARK    6  A    between atoms: C_24  and  C_25 
REMARK       I    between atoms: C_25  and  N_26 
REMARK    7  A    between atoms: N_26  and  C_27 
REMARK    8  A    between atoms: C_27  and  C_28 
ROOT
HETATM    1  N   UNL     1     -33.330  40.036 -50.967  1.00  0.00    -0.262 N 
HETATM    2  C   UNL     1     -34.396  40.820 -51.386  1.00  0.00     0.332 C 
HETATM    3  O   UNL     1     -34.260  41.753 -52.179  1.00  0.00    -0.246 OA
HETATM    4  N   UNL     1     -35.647  40.512 -50.864  1.00  0.00    -0.290 N 
HETATM    5  C   UNL     1     -35.815  39.570 -49.810  1.00  0.00     0.056 A 
HETATM    6  C   UNL     1     -34.708  38.868 -49.336  1.00  0.00     0.059 A 
HETATM    7  C   UNL     1     -33.392  39.089 -49.954  1.00  0.00     0.264 C 
HETATM    8  O   UNL     1     -32.427  38.447 -49.547  1.00  0.00    -0.267 OA
HETATM    9  C   UNL     1     -37.060  39.342 -49.195  1.00  0.00     0.048 A 
HETATM   10  C   UNL     1     -37.196  38.442 -48.125  1.00  0.00     0.034 A 
HETATM   11  C   UNL     1     -36.071  37.737 -47.683  1.00  0.00     0.018 A 
HETATM   12  C   UNL     1     -34.833  37.944 -48.289  1.00  0.00     0.020 A 
ENDROOT
BRANCH  10  13
HETATM   13  C   UNL     1     -38.476  38.270 -47.371  1.00  0.00     0.252 C 
HETATM   14  N   UNL     1     -39.640  38.663 -47.993  1.00  0.00    -0.353 N 
HETATM   15  H   UNL     1     -39.669  38.867 -48.980  1.00  0.00     0.163 HD
HETATM   16  O   UNL     1     -38.448  37.810 -46.234  1.00  0.00    -0.268 OA
BRANCH  14  17
HETATM   17  C   UNL     1     -40.914  38.637 -47.311  1.00  0.00     0.161 C 
BRANCH  17  18
HETATM   18  C   UNL     1     -42.016  38.200 -48.240  1.00  0.00    -0.038 A 
HETATM   19  C   UNL     1     -41.764  38.025 -49.611  1.00  0.00     0.048 A 
HETATM   20  C   UNL     1     -42.811  37.631 -50.415  1.00  0.00     0.105 A 
HETATM   21  C   UNL     1     -44.069  37.399 -49.911  1.00  0.00     0.105 A 
HETATM   22  O   UNL     1     -42.746  37.429 -51.759  1.00  0.00    -0.323 OA
HETATM   23  O   UNL     1     -44.954  37.027 -50.874  1.00  0.00    -0.323 OA
HETATM   24  C   UNL     1     -44.350  37.541 -48.570  1.00  0.00     0.040 A 
HETATM   25  C   UNL     1     -44.112  37.065 -52.045  1.00  0.00     0.352 A 
HETATM   26  C   UNL     1     -43.308  37.941 -47.728  1.00  0.00     0.012 A 
ENDBRANCH  17  18
ENDBRANCH  14  17
ENDBRANCH  10  13
BRANCH   4  27
HETATM   27  C   UNL     1     -36.819  41.072 -51.551  1.00  0.00     0.237 C 
BRANCH  27  28
HETATM   28  C   UNL     1     -37.028  40.655 -53.007  1.00  0.00     0.240 C 
HETATM   29  N   UNL     1     -36.928  41.683 -53.924  1.00  0.00    -0.326 N 
HETATM   30  H   UNL     1     -36.696  42.599 -53.553  1.00  0.00     0.169 HD
HETATM   31  O   UNL     1     -37.202  39.465 -53.267  1.00  0.00    -0.271 OA
BRANCH  29  32
HETATM   32  C   UNL     1     -37.087  41.586 -55.325  1.00  0.00     0.034 A 
HETATM   33  C   UNL     1     -38.194  40.997 -55.946  1.00  0.00     0.031 A 
HETATM   34  C   UNL     1     -38.287  40.937 -57.340  1.00  0.00     0.021 A 
HETATM   35  C   UNL     1     -37.271  41.471 -58.125  1.00  0.00     0.011 A 
HETATM   36 BR   UNL     1     -37.396  41.388 -60.008  1.00  0.00    -0.051 Br
HETATM   37  C   UNL     1     -36.163  42.064 -57.526  1.00  0.00     0.021 A 
HETATM   38  C   UNL     1     -36.074  42.121 -56.130  1.00  0.00     0.031 A 
ENDBRANCH  29  32
ENDBRANCH  27  28
ENDBRANCH   4  27
BRANCH   1  39
HETATM   39  C   UNL     1     -32.051  40.215 -51.638  1.00  0.00     0.163 C 
BRANCH  39  40
HETATM   40  C   UNL     1     -31.969  39.433 -52.929  1.00  0.00    -0.017 C 
HETATM   41  C   UNL     1     -31.655  38.141 -53.111  1.00  0.00     0.008 C 
ENDBRANCH  39  40
ENDBRANCH   1  39
TORSDOF 8
ENDMDL
MODEL 9
REMARK VINA RESULT:      -7.7      4.562      6.439
REMARK  8 active torsions:
REMARK  status: ('A' for Active; 'I' for Inactive)
REMARK    1  A    between atoms: C_2  and  C_3 
REMARK    2  A    between atoms: C_3  and  N_4 
REMARK    3  A    between atoms: N_7  and  C_8 
REMARK    4  A    between atoms: C_8  and  C_9 
REMARK       I    between atoms: C_9  and  N_10 
REMARK    5  A    between atoms: N_10  and  C_11 
REMARK    6  A    between atoms: C_24  and  C_25 
REMARK       I    between atoms: C_25  and  N_26 
REMARK    7  A    between atoms: N_26  and  C_27 
REMARK    8  A    between atoms: C_27  and  C_28 
ROOT
HETATM    1  N   UNL     1     -43.017  55.330 -54.474  1.00  0.00    -0.262 N 
HETATM    2  C   UNL     1     -42.994  56.375 -55.387  1.00  0.00     0.332 C 
HETATM    3  O   UNL     1     -42.469  56.273 -56.497  1.00  0.00    -0.246 OA
HETATM    4  N   UNL     1     -43.592  57.567 -54.993  1.00  0.00    -0.290 N 
HETATM    5  C   UNL     1     -44.039  57.783 -53.659  1.00  0.00     0.056 A 
HETATM    6  C   UNL     1     -43.956  56.745 -52.733  1.00  0.00     0.059 A 
HETATM    7  C   UNL     1     -43.438  55.436 -53.156  1.00  0.00     0.264 C 
HETATM    8  O   UNL     1     -43.393  54.520 -52.339  1.00  0.00    -0.267 OA
HETATM    9  C   UNL     1     -44.534  59.026 -53.224  1.00  0.00     0.048 A 
HETATM   10  C   UNL     1     -44.927  59.232 -51.891  1.00  0.00     0.034 A 
HETATM   11  C   UNL     1     -44.851  58.167 -50.987  1.00  0.00     0.018 A 
HETATM   12  C   UNL     1     -44.373  56.927 -51.406  1.00  0.00     0.020 A 
ENDROOT
BRANCH  10  13
HETATM   13  C   UNL     1     -45.339  60.572 -51.367  1.00  0.00     0.252 C 
HETATM   14  N   UNL     1     -45.549  60.689 -50.011  1.00  0.00    -0.353 N 
HETATM   15  H   UNL     1     -45.248  59.975 -49.366  1.00  0.00     0.163 HD
HETATM   16  O   UNL     1     -45.493  61.503 -52.150  1.00  0.00    -0.268 OA
BRANCH  14  17
HETATM   17  C   UNL     1     -46.050  61.909 -49.421  1.00  0.00     0.161 C 
BRANCH  17  18
HETATM   18  C   UNL     1     -45.643  62.018 -47.975  1.00  0.00    -0.038 A 
HETATM   19  C   UNL     1     -45.565  63.272 -47.350  1.00  0.00     0.048 A 
HETATM   20  C   UNL     1     -45.180  63.312 -46.027  1.00  0.00     0.105 A 
HETATM   21  C   UNL     1     -44.888  62.170 -45.319  1.00  0.00     0.105 A 
HETATM   22  O   UNL     1     -45.040  64.438 -45.276  1.00  0.00    -0.323 OA
HETATM   23  O   UNL     1     -44.523  62.434 -44.036  1.00  0.00    -0.323 OA
HETATM   24  C   UNL     1     -44.971  60.921 -45.893  1.00  0.00     0.040 A 
HETATM   25  C   UNL     1     -44.605  63.874 -44.021  1.00  0.00     0.352 A 
HETATM   26  C   UNL     1     -45.358  60.847 -47.234  1.00  0.00     0.012 A 
ENDBRANCH  17  18
ENDBRANCH  14  17
ENDBRANCH  10  13
BRANCH   4  27
HETATM   27  C   UNL     1     -43.899  58.544 -56.046  1.00  0.00     0.237 C 
BRANCH  27  28
HETATM   28  C   UNL     1     -45.107  58.245 -56.934  1.00  0.00     0.240 C 
HETATM   29  N   UNL     1     -44.801  57.942 -58.246  1.00  0.00    -0.326 N 
HETATM   30  H   UNL     1     -43.815  57.917 -58.486  1.00  0.00     0.169 HD
HETATM   31  O   UNL     1     -46.228  58.229 -56.428  1.00  0.00    -0.271 OA
BRANCH  29  32
HETATM   32  C   UNL     1     -45.715  57.640 -59.280  1.00  0.00     0.034 A 
HETATM   33  C   UNL     1     -45.910  56.355 -59.797  1.00  0.00     0.031 A 
HETATM   34  C   UNL     1     -46.835  56.127 -60.823  1.00  0.00     0.021 A 
HETATM   35  C   UNL     1     -47.573  57.186 -61.337  1.00  0.00     0.011 A 
HETATM   36 BR   UNL     1     -48.820  56.879 -62.722  1.00  0.00    -0.051 Br
HETATM   37  C   UNL     1     -47.395  58.472 -60.833  1.00  0.00     0.021 A 
HETATM   38  C   UNL     1     -46.468  58.696 -59.807  1.00  0.00     0.031 A 
ENDBRANCH  29  32
ENDBRANCH  27  28
ENDBRANCH   4  27
BRANCH   1  39
HETATM   39  C   UNL     1     -42.569  54.022 -54.930  1.00  0.00     0.163 C 
BRANCH  39  40
HETATM   40  C   UNL     1     -41.137  53.739 -54.538  1.00  0.00    -0.017 C 
HETATM   41  C   UNL     1     -40.007  54.216 -55.080  1.00  0.00     0.008 C 
ENDBRANCH  39  40
ENDBRANCH   1  39
TORSDOF 8
ENDMDL
MODEL 10
REMARK VINA RESULT:      -7.6      2.946      8.309
REMARK  8 active torsions:
REMARK  status: ('A' for Active; 'I' for Inactive)
REMARK    1  A    between atoms: C_2  and  C_3 
REMARK    2  A    between atoms: C_3  and  N_4 
REMARK    3  A    between atoms: N_7  and  C_8 
REMARK    4  A    between atoms: C_8  and  C_9 
REMARK       I    between atoms: C_9  and  N_10 
REMARK    5  A    between atoms: N_10  and  C_11 
REMARK    6  A    between atoms: C_24  and  C_25 
REMARK       I    between atoms: C_25  and  N_26 
REMARK    7  A    between atoms: N_26  and  C_27 
REMARK    8  A    between atoms: C_27  and  C_28 
ROOT
HETATM    1  N   UNL     1     -42.904  61.600 -51.474  1.00  0.00    -0.262 N 
HETATM    2  C   UNL     1     -43.421  61.725 -52.756  1.00  0.00     0.332 C 
HETATM    3  O   UNL     1     -44.149  62.661 -53.089  1.00  0.00    -0.246 OA
HETATM    4  N   UNL     1     -43.085  60.731 -53.669  1.00  0.00    -0.290 N 
HETATM    5  C   UNL     1     -42.406  59.543 -53.277  1.00  0.00     0.056 A 
HETATM    6  C   UNL     1     -41.987  59.399 -51.956  1.00  0.00     0.059 A 
HETATM    7  C   UNL     1     -42.225  60.488 -50.997  1.00  0.00     0.264 C 
HETATM    8  O   UNL     1     -41.828  60.362 -49.842  1.00  0.00    -0.267 OA
HETATM    9  C   UNL     1     -42.170  58.481 -54.170  1.00  0.00     0.048 A 
HETATM   10  C   UNL     1     -41.539  57.298 -53.751  1.00  0.00     0.034 A 
HETATM   11  C   UNL     1     -41.112  57.189 -52.424  1.00  0.00     0.018 A 
HETATM   12  C   UNL     1     -41.329  58.236 -51.530  1.00  0.00     0.020 A 
ENDROOT
BRANCH  10  13
HETATM   13  C   UNL     1     -41.385  56.105 -54.642  1.00  0.00     0.252 C 
HETATM   14  N   UNL     1     -40.652  55.043 -54.162  1.00  0.00    -0.353 N 
HETATM   15  H   UNL     1     -40.399  54.971 -53.188  1.00  0.00     0.163 HD
HETATM   16  O   UNL     1     -41.890  56.119 -55.759  1.00  0.00    -0.268 OA
BRANCH  14  17
HETATM   17  C   UNL     1     -40.357  53.890 -54.982  1.00  0.00     0.161 C 
BRANCH  17  18
HETATM   18  C   UNL     1     -40.160  52.660 -54.135  1.00  0.00    -0.038 A 
HETATM   19  C   UNL     1     -40.202  52.746 -52.734  1.00  0.00     0.048 A 
HETATM   20  C   UNL     1     -40.009  51.590 -52.010  1.00  0.00     0.105 A 
HETATM   21  C   UNL     1     -39.791  50.377 -52.620  1.00  0.00     0.105 A 
HETATM   22  O   UNL     1     -40.004  51.496 -50.652  1.00  0.00    -0.323 OA
HETATM   23  O   UNL     1     -39.618  49.369 -51.723  1.00  0.00    -0.323 OA
HETATM   24  C   UNL     1     -39.761  50.250 -53.991  1.00  0.00     0.040 A 
HETATM   25  C   UNL     1     -39.736  50.089 -50.479  1.00  0.00     0.352 A 
HETATM   26  C   UNL     1     -39.954  51.405 -54.754  1.00  0.00     0.012 A 
ENDBRANCH  17  18
ENDBRANCH  14  17
ENDBRANCH  10  13
BRANCH   4  27
HETATM   27  C   UNL     1     -43.309  61.022 -55.092  1.00  0.00     0.237 C 
BRANCH  27  28
HETATM   28  C   UNL     1     -44.336  60.155 -55.820  1.00  0.00     0.240 C 
HETATM   29  N   UNL     1     -43.949  59.730 -57.076  1.00  0.00    -0.326 N 
HETATM   30  H   UNL     1     -43.020  60.004 -57.379  1.00  0.00     0.169 HD
HETATM   31  O   UNL     1     -45.375  59.847 -55.238  1.00  0.00    -0.271 OA
BRANCH  29  32
HETATM   32  C   UNL     1     -44.701  58.934 -57.969  1.00  0.00     0.034 A 
HETATM   33  C   UNL     1     -44.422  57.590 -58.239  1.00  0.00     0.031 A 
HETATM   34  C   UNL     1     -45.210  56.860 -59.136  1.00  0.00     0.021 A 
HETATM   35  C   UNL     1     -46.287  57.472 -59.767  1.00  0.00     0.011 A 
HETATM   36 BR   UNL     1     -47.351  56.487 -60.979  1.00  0.00    -0.051 Br
HETATM   37  C   UNL     1     -46.583  58.808 -59.508  1.00  0.00     0.021 A 
HETATM   38  C   UNL     1     -45.790  59.535 -58.611  1.00  0.00     0.031 A 
ENDBRANCH  29  32
ENDBRANCH  27  28
ENDBRANCH   4  27
BRANCH   1  39
HETATM   39  C   UNL     1     -43.084  62.718 -50.559  1.00  0.00     0.163 C 
BRANCH  39  40
HETATM   40  C   UNL     1     -44.254  62.510 -49.626  1.00  0.00    -0.017 C 
HETATM   41  C   UNL     1     -44.740  63.339 -48.690  1.00  0.00     0.008 C 
ENDBRANCH  39  40
ENDBRANCH   1  39
TORSDOF 8
ENDMDL
