MODEL 1
REMARK VINA RESULT:      -7.1      0.000      0.000
REMARK  6 active torsions:
REMARK  status: ('A' for Active; 'I' for Inactive)
REMARK    1  A    between atoms: C_4  and  C_5 
REMARK    2  A    between atoms: C_5  and  C_6 
REMARK    3  A    between atoms: C_6  and  C_7 
REMARK    4  A    between atoms: C_7  and  C_8 
REMARK       I    between atoms: C_8  and  N_9 
REMARK    5  A    between atoms: N_9  and  C_10 
REMARK    6  A    between atoms: C_12  and  C_13 
ROOT
HETATM    1  C   UNL     1     -41.347  58.520 -53.576  1.00  0.00     0.222 C 
HETATM    2  N   UNL     1     -40.808  57.345 -54.004  1.00  0.00    -0.327 N 
HETATM    3  O   UNL     1     -40.588  59.492 -53.506  1.00  0.00    -0.273 OA
HETATM    4  H   UNL     1     -39.829  57.488 -54.229  1.00  0.00     0.169 HD
ENDROOT
BRANCH   2   5
HETATM    5  C   UNL     1     -41.286  56.034 -54.193  1.00  0.00     0.035 A 
HETATM    6  C   UNL     1     -40.632  54.858 -53.825  1.00  0.00     0.042 A 
HETATM    7  C   UNL     1     -41.206  53.593 -54.065  1.00  0.00    -0.021 A 
HETATM    8  C   UNL     1     -42.452  53.520 -54.695  1.00  0.00     0.012 A 
HETATM    9  C   UNL     1     -43.115  54.684 -55.075  1.00  0.00     0.003 A 
HETATM   10  C   UNL     1     -42.534  55.928 -54.825  1.00  0.00     0.029 A 
BRANCH   7  11
HETATM   11  C   UNL     1     -40.515  52.372 -53.682  1.00  0.00     0.010 A 
HETATM   12  C   UNL     1     -40.364  51.141 -54.366  1.00  0.00     0.152 A 
HETATM   13  N   UNL     1     -39.665  50.243 -53.668  1.00  0.00    -0.187 NA
HETATM   14  N   UNL     1     -39.368  50.890 -52.532  1.00  0.00    -0.289 N 
HETATM   15  H   UNL     1     -38.831  50.398 -51.823  1.00  0.00     0.188 HD
HETATM   16  C   UNL     1     -39.854  52.165 -52.488  1.00  0.00     0.123 A 
ENDBRANCH   7  11
ENDBRANCH   2   5
BRANCH   1  17
HETATM   17  C   UNL     1     -42.810  58.637 -53.208  1.00  0.00     0.103 C 
BRANCH  17  18
HETATM   18  C   UNL     1     -43.089  58.429 -51.717  1.00  0.00     0.014 C 
BRANCH  18  19
HETATM   19  C   UNL     1     -43.868  57.139 -51.435  1.00  0.00     0.046 C 
BRANCH  19  20
HETATM   20  C   UNL     1     -42.953  56.041 -50.976  1.00  0.00    -0.017 A 
HETATM   21  S   UNL     1     -41.407  56.408 -50.339  1.00  0.00    -0.100 SA
HETATM   22  C   UNL     1     -41.043  54.757 -50.081  1.00  0.00    -0.021 A 
HETATM   23  C   UNL     1     -39.732  54.366 -49.491  1.00  0.00     0.056 C 
HETATM   24  C   UNL     1     -42.085  53.941 -50.469  1.00  0.00     0.015 A 
HETATM   25  C   UNL     1     -43.185  54.681 -50.988  1.00  0.00     0.015 A 
ENDBRANCH  19  20
ENDBRANCH  18  19
ENDBRANCH  17  18
ENDBRANCH   1  17
TORSDOF 6
ENDMDL
MODEL 2
REMARK VINA RESULT:      -7.0      2.625      4.998
REMARK  6 active torsions:
REMARK  status: ('A' for Active; 'I' for Inactive)
REMARK    1  A    between atoms: C_4  and  C_5 
REMARK    2  A    between atoms: C_5  and  C_6 
REMARK    3  A    between atoms: C_6  and  C_7 
REMARK    4  A    between atoms: C_7  and  C_8 
REMARK       I    between atoms: C_8  and  N_9 
REMARK    5  A    between atoms: N_9  and  C_10 
REMARK    6  A    between atoms: C_12  and  C_13 
ROOT
HETATM    1  C   UNL     1     -40.545  53.655 -49.167  1.00  0.00     0.222 C 
HETATM    2  N   UNL     1     -40.694  52.691 -50.118  1.00  0.00    -0.327 N 
HETATM    3  O   UNL     1     -40.749  53.322 -47.996  1.00  0.00    -0.273 OA
HETATM    4  H   UNL     1     -40.932  51.812 -49.670  1.00  0.00     0.169 HD
ENDROOT
BRANCH   2   5
HETATM    5  C   UNL     1     -40.595  52.645 -51.523  1.00  0.00     0.035 A 
HETATM    6  C   UNL     1     -41.340  53.407 -52.424  1.00  0.00     0.042 A 
HETATM    7  C   UNL     1     -41.159  53.279 -53.816  1.00  0.00    -0.021 A 
HETATM    8  C   UNL     1     -40.222  52.361 -54.299  1.00  0.00     0.012 A 
HETATM    9  C   UNL     1     -39.475  51.589 -53.412  1.00  0.00     0.003 A 
HETATM   10  C   UNL     1     -39.664  51.732 -52.037  1.00  0.00     0.029 A 
BRANCH   7  11
HETATM   11  C   UNL     1     -41.943  54.073 -54.750  1.00  0.00     0.010 A 
HETATM   12  C   UNL     1     -41.542  54.864 -55.853  1.00  0.00     0.152 A 
HETATM   13  N   UNL     1     -42.569  55.462 -56.462  1.00  0.00    -0.187 NA
HETATM   14  N   UNL     1     -43.632  55.061 -55.751  1.00  0.00    -0.289 N 
HETATM   15  H   UNL     1     -44.551  55.397 -56.027  1.00  0.00     0.188 HD
HETATM   16  C   UNL     1     -43.313  54.231 -54.714  1.00  0.00     0.123 A 
ENDBRANCH   7  11
ENDBRANCH   2   5
BRANCH   1  17
HETATM   17  C   UNL     1     -40.142  55.069 -49.525  1.00  0.00     0.103 C 
BRANCH  17  18
HETATM   18  C   UNL     1     -41.327  55.981 -49.855  1.00  0.00     0.014 C 
BRANCH  18  19
HETATM   19  C   UNL     1     -40.894  57.300 -50.505  1.00  0.00     0.046 C 
BRANCH  19  20
HETATM   20  C   UNL     1     -41.651  57.553 -51.777  1.00  0.00    -0.017 A 
HETATM   21  S   UNL     1     -43.362  57.604 -51.773  1.00  0.00    -0.100 SA
HETATM   22  C   UNL     1     -43.427  57.909 -53.455  1.00  0.00    -0.021 A 
HETATM   23  C   UNL     1     -44.743  58.077 -54.132  1.00  0.00     0.056 C 
HETATM   24  C   UNL     1     -42.165  57.976 -54.008  1.00  0.00     0.015 A 
HETATM   25  C   UNL     1     -41.141  57.768 -53.041  1.00  0.00     0.015 A 
ENDBRANCH  19  20
ENDBRANCH  18  19
ENDBRANCH  17  18
ENDBRANCH   1  17
TORSDOF 6
ENDMDL
MODEL 3
REMARK VINA RESULT:      -6.9      3.161      5.563
REMARK  6 active torsions:
REMARK  status: ('A' for Active; 'I' for Inactive)
REMARK    1  A    between atoms: C_4  and  C_5 
REMARK    2  A    between atoms: C_5  and  C_6 
REMARK    3  A    between atoms: C_6  and  C_7 
REMARK    4  A    between atoms: C_7  and  C_8 
REMARK       I    between atoms: C_8  and  N_9 
REMARK    5  A    between atoms: N_9  and  C_10 
REMARK    6  A    between atoms: C_12  and  C_13 
ROOT
HETATM    1  C   UNL     1     -43.735  56.240 -51.503  1.00  0.00     0.222 C 
HETATM    2  N   UNL     1     -44.266  56.238 -52.757  1.00  0.00    -0.327 N 
HETATM    3  O   UNL     1     -44.504  56.491 -50.570  1.00  0.00    -0.273 OA
HETATM    4  H   UNL     1     -45.261  56.428 -52.699  1.00  0.00     0.169 HD
ENDROOT
BRANCH   2   5
HETATM    5  C   UNL     1     -43.762  56.043 -54.058  1.00  0.00     0.035 A 
HETATM    6  C   UNL     1     -43.379  57.045 -54.951  1.00  0.00     0.042 A 
HETATM    7  C   UNL     1     -42.887  56.733 -56.235  1.00  0.00    -0.021 A 
HETATM    8  C   UNL     1     -42.792  55.392 -56.620  1.00  0.00     0.012 A 
HETATM    9  C   UNL     1     -43.177  54.382 -55.743  1.00  0.00     0.003 A 
HETATM   10  C   UNL     1     -43.657  54.707 -54.474  1.00  0.00     0.029 A 
BRANCH   7  11
HETATM   11  C   UNL     1     -42.494  57.783 -57.162  1.00  0.00     0.010 A 
HETATM   12  C   UNL     1     -42.323  57.759 -58.567  1.00  0.00     0.152 A 
HETATM   13  N   UNL     1     -41.933  58.936 -59.061  1.00  0.00    -0.187 NA
HETATM   14  N   UNL     1     -41.847  59.720 -57.977  1.00  0.00    -0.289 N 
HETATM   15  H   UNL     1     -41.557  60.685 -58.101  1.00  0.00     0.188 HD
HETATM   16  C   UNL     1     -42.170  59.079 -56.815  1.00  0.00     0.123 A 
ENDBRANCH   7  11
ENDBRANCH   2   5
BRANCH   1  17
HETATM   17  C   UNL     1     -42.272  55.941 -51.258  1.00  0.00     0.103 C 
BRANCH  17  18
HETATM   18  C   UNL     1     -42.007  54.507 -50.790  1.00  0.00     0.014 C 
BRANCH  18  19
HETATM   19  C   UNL     1     -40.534  54.104 -50.925  1.00  0.00     0.046 C 
BRANCH  19  20
HETATM   20  C   UNL     1     -40.322  53.212 -52.114  1.00  0.00    -0.017 A 
HETATM   21  S   UNL     1     -39.705  51.629 -51.914  1.00  0.00    -0.100 SA
HETATM   22  C   UNL     1     -39.764  51.316 -53.595  1.00  0.00    -0.021 A 
HETATM   23  C   UNL     1     -39.327  49.993 -54.123  1.00  0.00     0.056 C 
HETATM   24  C   UNL     1     -40.250  52.400 -54.295  1.00  0.00     0.015 A 
HETATM   25  C   UNL     1     -40.570  53.494 -53.442  1.00  0.00     0.015 A 
ENDBRANCH  19  20
ENDBRANCH  18  19
ENDBRANCH  17  18
ENDBRANCH   1  17
TORSDOF 6
ENDMDL
MODEL 4
REMARK VINA RESULT:      -6.9      2.146      3.961
REMARK  6 active torsions:
REMARK  status: ('A' for Active; 'I' for Inactive)
REMARK    1  A    between atoms: C_4  and  C_5 
REMARK    2  A    between atoms: C_5  and  C_6 
REMARK    3  A    between atoms: C_6  and  C_7 
REMARK    4  A    between atoms: C_7  and  C_8 
REMARK       I    between atoms: C_8  and  N_9 
REMARK    5  A    between atoms: N_9  and  C_10 
REMARK    6  A    between atoms: C_12  and  C_13 
ROOT
HETATM    1  C   UNL     1     -43.006  56.018 -51.138  1.00  0.00     0.222 C 
HETATM    2  N   UNL     1     -42.982  55.401 -52.353  1.00  0.00    -0.327 N 
HETATM    3  O   UNL     1     -44.073  56.536 -50.794  1.00  0.00    -0.273 OA
HETATM    4  H   UNL     1     -43.903  55.455 -52.773  1.00  0.00     0.169 HD
ENDROOT
BRANCH   2   5
HETATM    5  C   UNL     1     -42.005  54.737 -53.119  1.00  0.00     0.035 A 
HETATM    6  C   UNL     1     -41.557  53.429 -52.927  1.00  0.00     0.042 A 
HETATM    7  C   UNL     1     -40.568  52.864 -53.758  1.00  0.00    -0.021 A 
HETATM    8  C   UNL     1     -40.020  53.636 -54.787  1.00  0.00     0.012 A 
HETATM    9  C   UNL     1     -40.452  54.945 -54.987  1.00  0.00     0.003 A 
HETATM   10  C   UNL     1     -41.435  55.488 -54.159  1.00  0.00     0.029 A 
BRANCH   7  11
HETATM   11  C   UNL     1     -40.104  51.502 -53.549  1.00  0.00     0.010 A 
HETATM   12  C   UNL     1     -40.001  50.411 -54.447  1.00  0.00     0.152 A 
HETATM   13  N   UNL     1     -39.538  49.303 -53.865  1.00  0.00    -0.187 NA
HETATM   14  N   UNL     1     -39.345  49.674 -52.591  1.00  0.00    -0.289 N 
HETATM   15  H   UNL     1     -38.992  48.982 -51.936  1.00  0.00     0.188 HD
HETATM   16  C   UNL     1     -39.670  50.978 -52.348  1.00  0.00     0.123 A 
ENDBRANCH   7  11
ENDBRANCH   2   5
BRANCH   1  17
HETATM   17  C   UNL     1     -41.786  56.062 -50.244  1.00  0.00     0.103 C 
BRANCH  17  18
HETATM   18  C   UNL     1     -40.722  57.062 -50.704  1.00  0.00     0.014 C 
BRANCH  18  19
HETATM   19  C   UNL     1     -41.151  58.519 -50.499  1.00  0.00     0.046 C 
BRANCH  19  20
HETATM   20  C   UNL     1     -41.498  59.171 -51.806  1.00  0.00    -0.017 A 
HETATM   21  S   UNL     1     -42.593  60.485 -51.856  1.00  0.00    -0.100 SA
HETATM   22  C   UNL     1     -42.452  60.629 -53.555  1.00  0.00    -0.021 A 
HETATM   23  C   UNL     1     -43.218  61.682 -54.281  1.00  0.00     0.056 C 
HETATM   24  C   UNL     1     -41.581  59.694 -54.073  1.00  0.00     0.015 A 
HETATM   25  C   UNL     1     -41.033  58.852 -53.065  1.00  0.00     0.015 A 
ENDBRANCH  19  20
ENDBRANCH  18  19
ENDBRANCH  17  18
ENDBRANCH   1  17
TORSDOF 6
ENDMDL
MODEL 5
REMARK VINA RESULT:      -6.8      2.777      4.797
REMARK  6 active torsions:
REMARK  status: ('A' for Active; 'I' for Inactive)
REMARK    1  A    between atoms: C_4  and  C_5 
REMARK    2  A    between atoms: C_5  and  C_6 
REMARK    3  A    between atoms: C_6  and  C_7 
REMARK    4  A    between atoms: C_7  and  C_8 
REMARK       I    between atoms: C_8  and  N_9 
REMARK    5  A    between atoms: N_9  and  C_10 
REMARK    6  A    between atoms: C_12  and  C_13 
ROOT
HETATM    1  C   UNL     1     -42.417  56.701 -52.385  1.00  0.00     0.222 C 
HETATM    2  N   UNL     1     -41.218  56.099 -52.623  1.00  0.00    -0.327 N 
HETATM    3  O   UNL     1     -42.390  57.789 -51.802  1.00  0.00    -0.273 OA
HETATM    4  H   UNL     1     -40.471  56.696 -52.286  1.00  0.00     0.169 HD
ENDROOT
BRANCH   2   5
HETATM    5  C   UNL     1     -40.806  54.885 -53.207  1.00  0.00     0.035 A 
HETATM    6  C   UNL     1     -40.559  53.689 -52.531  1.00  0.00     0.042 A 
HETATM    7  C   UNL     1     -40.147  52.530 -53.219  1.00  0.00    -0.021 A 
HETATM    8  C   UNL     1     -39.974  52.587 -54.605  1.00  0.00     0.012 A 
HETATM    9  C   UNL     1     -40.210  53.775 -55.293  1.00  0.00     0.003 A 
HETATM   10  C   UNL     1     -40.622  54.911 -54.597  1.00  0.00     0.029 A 
BRANCH   7  11
HETATM   11  C   UNL     1     -39.887  51.289 -52.507  1.00  0.00     0.010 A 
HETATM   12  C   UNL     1     -39.714  51.035 -51.124  1.00  0.00     0.152 A 
HETATM   13  N   UNL     1     -39.472  49.748 -50.860  1.00  0.00    -0.187 NA
HETATM   14  N   UNL     1     -39.485  49.172 -52.071  1.00  0.00    -0.289 N 
HETATM   15  H   UNL     1     -39.316  48.172 -52.130  1.00  0.00     0.188 HD
HETATM   16  C   UNL     1     -39.726  50.049 -53.090  1.00  0.00     0.123 A 
ENDBRANCH   7  11
ENDBRANCH   2   5
BRANCH   1  17
HETATM   17  C   UNL     1     -43.723  56.073 -52.818  1.00  0.00     0.103 C 
BRANCH  17  18
HETATM   18  C   UNL     1     -43.913  56.034 -54.337  1.00  0.00     0.014 C 
BRANCH  18  19
HETATM   19  C   UNL     1     -43.373  57.289 -55.033  1.00  0.00     0.046 C 
BRANCH  19  20
HETATM   20  C   UNL     1     -43.112  57.032 -56.489  1.00  0.00    -0.017 A 
HETATM   21  S   UNL     1     -42.672  58.315 -57.532  1.00  0.00    -0.100 SA
HETATM   22  C   UNL     1     -42.569  57.274 -58.886  1.00  0.00    -0.021 A 
HETATM   23  C   UNL     1     -42.190  57.820 -60.219  1.00  0.00     0.056 C 
HETATM   24  C   UNL     1     -42.860  55.970 -58.545  1.00  0.00     0.015 A 
HETATM   25  C   UNL     1     -43.176  55.830 -57.164  1.00  0.00     0.015 A 
ENDBRANCH  19  20
ENDBRANCH  18  19
ENDBRANCH  17  18
ENDBRANCH   1  17
TORSDOF 6
ENDMDL
MODEL 6
REMARK VINA RESULT:      -6.7      2.535      4.354
REMARK  6 active torsions:
REMARK  status: ('A' for Active; 'I' for Inactive)
REMARK    1  A    between atoms: C_4  and  C_5 
REMARK    2  A    between atoms: C_5  and  C_6 
REMARK    3  A    between atoms: C_6  and  C_7 
REMARK    4  A    between atoms: C_7  and  C_8 
REMARK       I    between atoms: C_8  and  N_9 
REMARK    5  A    between atoms: N_9  and  C_10 
REMARK    6  A    between atoms: C_12  and  C_13 
ROOT
HETATM    1  C   UNL     1     -42.318  54.811 -55.656  1.00  0.00     0.222 C 
HETATM    2  N   UNL     1     -41.136  54.349 -55.160  1.00  0.00    -0.327 N 
HETATM    3  O   UNL     1     -42.274  55.421 -56.729  1.00  0.00    -0.273 OA
HETATM    4  H   UNL     1     -40.389  54.577 -55.809  1.00  0.00     0.169 HD
ENDROOT
BRANCH   2   5
HETATM    5  C   UNL     1     -40.739  53.659 -53.998  1.00  0.00     0.035 A 
HETATM    6  C   UNL     1     -40.893  54.104 -52.684  1.00  0.00     0.042 A 
HETATM    7  C   UNL     1     -40.455  53.328 -51.592  1.00  0.00    -0.021 A 
HETATM    8  C   UNL     1     -39.845  52.093 -51.835  1.00  0.00     0.012 A 
HETATM    9  C   UNL     1     -39.678  51.639 -53.141  1.00  0.00     0.003 A 
HETATM   10  C   UNL     1     -40.121  52.418 -54.211  1.00  0.00     0.029 A 
BRANCH   7  11
HETATM   11  C   UNL     1     -40.615  53.800 -50.226  1.00  0.00     0.010 A 
HETATM   12  C   UNL     1     -41.050  55.051 -49.725  1.00  0.00     0.152 A 
HETATM   13  N   UNL     1     -41.045  55.104 -48.390  1.00  0.00    -0.187 NA
HETATM   14  N   UNL     1     -40.605  53.891 -48.029  1.00  0.00    -0.289 N 
HETATM   15  H   UNL     1     -40.510  53.688 -47.038  1.00  0.00     0.188 HD
HETATM   16  C   UNL     1     -40.331  53.073 -49.088  1.00  0.00     0.123 A 
ENDBRANCH   7  11
ENDBRANCH   2   5
BRANCH   1  17
HETATM   17  C   UNL     1     -43.627  54.583 -54.933  1.00  0.00     0.103 C 
BRANCH  17  18
HETATM   18  C   UNL     1     -43.822  55.486 -53.712  1.00  0.00     0.014 C 
BRANCH  18  19
HETATM   19  C   UNL     1     -43.734  56.976 -54.059  1.00  0.00     0.046 C 
BRANCH  19  20
HETATM   20  C   UNL     1     -42.574  57.628 -53.362  1.00  0.00    -0.017 A 
HETATM   21  S   UNL     1     -42.773  58.324 -51.811  1.00  0.00    -0.100 SA
HETATM   22  C   UNL     1     -41.132  58.804 -51.739  1.00  0.00    -0.021 A 
HETATM   23  C   UNL     1     -40.617  59.519 -50.537  1.00  0.00     0.056 C 
HETATM   24  C   UNL     1     -40.445  58.435 -52.876  1.00  0.00     0.015 A 
HETATM   25  C   UNL     1     -41.277  57.759 -53.813  1.00  0.00     0.015 A 
ENDBRANCH  19  20
ENDBRANCH  18  19
ENDBRANCH  17  18
ENDBRANCH   1  17
TORSDOF 6
ENDMDL
MODEL 7
REMARK VINA RESULT:      -6.7      3.292      5.800
REMARK  6 active torsions:
REMARK  status: ('A' for Active; 'I' for Inactive)
REMARK    1  A    between atoms: C_4  and  C_5 
REMARK    2  A    between atoms: C_5  and  C_6 
REMARK    3  A    between atoms: C_6  and  C_7 
REMARK    4  A    between atoms: C_7  and  C_8 
REMARK       I    between atoms: C_8  and  N_9 
REMARK    5  A    between atoms: N_9  and  C_10 
REMARK    6  A    between atoms: C_12  and  C_13 
ROOT
HETATM    1  C   UNL     1     -42.100  55.533 -52.857  1.00  0.00     0.222 C 
HETATM    2  N   UNL     1     -42.296  56.726 -53.486  1.00  0.00    -0.327 N 
HETATM    3  O   UNL     1     -41.428  55.551 -51.822  1.00  0.00    -0.273 OA
HETATM    4  H   UNL     1     -41.854  57.464 -52.948  1.00  0.00     0.169 HD
ENDROOT
BRANCH   2   5
HETATM    5  C   UNL     1     -42.946  57.143 -54.664  1.00  0.00     0.035 A 
HETATM    6  C   UNL     1     -42.471  56.982 -55.966  1.00  0.00     0.042 A 
HETATM    7  C   UNL     1     -43.208  57.441 -57.077  1.00  0.00    -0.021 A 
HETATM    8  C   UNL     1     -44.434  58.078 -56.864  1.00  0.00     0.012 A 
HETATM    9  C   UNL     1     -44.918  58.251 -55.570  1.00  0.00     0.003 A 
HETATM   10  C   UNL     1     -44.179  57.787 -54.482  1.00  0.00     0.029 A 
BRANCH   7  11
HETATM   11  C   UNL     1     -42.704  57.274 -58.431  1.00  0.00     0.010 A 
HETATM   12  C   UNL     1     -42.870  56.215 -59.356  1.00  0.00     0.152 A 
HETATM   13  N   UNL     1     -42.229  56.426 -60.508  1.00  0.00    -0.187 NA
HETATM   14  N   UNL     1     -41.644  57.619 -60.326  1.00  0.00    -0.289 N 
HETATM   15  H   UNL     1     -41.082  58.000 -61.082  1.00  0.00     0.188 HD
HETATM   16  C   UNL     1     -41.894  58.168 -59.101  1.00  0.00     0.123 A 
ENDBRANCH   7  11
ENDBRANCH   2   5
BRANCH   1  17
HETATM   17  C   UNL     1     -42.683  54.246 -53.396  1.00  0.00     0.103 C 
BRANCH  17  18
HETATM   18  C   UNL     1     -41.984  53.734 -54.658  1.00  0.00     0.014 C 
BRANCH  18  19
HETATM   19  C   UNL     1     -40.473  53.560 -54.469  1.00  0.00     0.046 C 
BRANCH  19  20
HETATM   20  C   UNL     1     -40.158  52.257 -53.793  1.00  0.00    -0.017 A 
HETATM   21  S   UNL     1     -39.951  52.187 -52.095  1.00  0.00    -0.100 SA
HETATM   22  C   UNL     1     -39.647  50.503 -52.131  1.00  0.00    -0.021 A 
HETATM   23  C   UNL     1     -39.374  49.768 -50.864  1.00  0.00     0.056 C 
HETATM   24  C   UNL     1     -39.708  50.004 -53.415  1.00  0.00     0.015 A 
HETATM   25  C   UNL     1     -40.000  51.015 -54.373  1.00  0.00     0.015 A 
ENDBRANCH  19  20
ENDBRANCH  18  19
ENDBRANCH  17  18
ENDBRANCH   1  17
TORSDOF 6
ENDMDL
MODEL 8
REMARK VINA RESULT:      -6.7      3.727      6.234
REMARK  6 active torsions:
REMARK  status: ('A' for Active; 'I' for Inactive)
REMARK    1  A    between atoms: C_4  and  C_5 
REMARK    2  A    between atoms: C_5  and  C_6 
REMARK    3  A    between atoms: C_6  and  C_7 
REMARK    4  A    between atoms: C_7  and  C_8 
REMARK       I    between atoms: C_8  and  N_9 
REMARK    5  A    between atoms: N_9  and  C_10 
REMARK    6  A    between atoms: C_12  and  C_13 
ROOT
HETATM    1  C   UNL     1     -42.827  56.115 -54.393  1.00  0.00     0.222 C 
HETATM    2  N   UNL     1     -42.580  55.618 -53.148  1.00  0.00    -0.327 N 
HETATM    3  O   UNL     1     -43.749  56.929 -54.497  1.00  0.00    -0.273 OA
HETATM    4  H   UNL     1     -43.215  56.049 -52.484  1.00  0.00     0.169 HD
ENDROOT
BRANCH   2   5
HETATM    5  C   UNL     1     -41.681  54.680 -52.605  1.00  0.00     0.035 A 
HETATM    6  C   UNL     1     -41.317  53.461 -53.179  1.00  0.00     0.042 A 
HETATM    7  C   UNL     1     -40.404  52.595 -52.543  1.00  0.00    -0.021 A 
HETATM    8  C   UNL     1     -39.865  52.964 -51.307  1.00  0.00     0.012 A 
HETATM    9  C   UNL     1     -40.224  54.173 -50.718  1.00  0.00     0.003 A 
HETATM   10  C   UNL     1     -41.125  55.021 -51.363  1.00  0.00     0.029 A 
BRANCH   7  11
HETATM   11  C   UNL     1     -40.032  51.325 -53.146  1.00  0.00     0.010 A 
HETATM   12  C   UNL     1     -39.600  50.113 -52.556  1.00  0.00     0.152 A 
HETATM   13  N   UNL     1     -39.333  49.164 -53.457  1.00  0.00    -0.187 NA
HETATM   14  N   UNL     1     -39.590  49.763 -54.629  1.00  0.00    -0.289 N 
HETATM   15  H   UNL     1     -39.453  49.230 -55.482  1.00  0.00     0.188 HD
HETATM   16  C   UNL     1     -40.008  51.057 -54.500  1.00  0.00     0.123 A 
ENDBRANCH   7  11
ENDBRANCH   2   5
BRANCH   1  17
HETATM   17  C   UNL     1     -42.007  55.696 -55.593  1.00  0.00     0.103 C 
BRANCH  17  18
HETATM   18  C   UNL     1     -42.852  55.280 -56.801  1.00  0.00     0.014 C 
BRANCH  18  19
HETATM   19  C   UNL     1     -42.981  56.396 -57.845  1.00  0.00     0.046 C 
BRANCH  19  20
HETATM   20  C   UNL     1     -43.987  56.038 -58.900  1.00  0.00    -0.017 A 
HETATM   21  S   UNL     1     -45.320  57.065 -59.214  1.00  0.00    -0.100 SA
HETATM   22  C   UNL     1     -45.920  56.030 -60.437  1.00  0.00    -0.021 A 
HETATM   23  C   UNL     1     -47.165  56.388 -61.172  1.00  0.00     0.056 C 
HETATM   24  C   UNL     1     -45.115  54.923 -60.605  1.00  0.00     0.015 A 
HETATM   25  C   UNL     1     -44.002  54.926 -59.717  1.00  0.00     0.015 A 
ENDBRANCH  19  20
ENDBRANCH  18  19
ENDBRANCH  17  18
ENDBRANCH   1  17
TORSDOF 6
ENDMDL
MODEL 9
REMARK VINA RESULT:      -6.5      2.173      3.981
REMARK  6 active torsions:
REMARK  status: ('A' for Active; 'I' for Inactive)
REMARK    1  A    between atoms: C_4  and  C_5 
REMARK    2  A    between atoms: C_5  and  C_6 
REMARK    3  A    between atoms: C_6  and  C_7 
REMARK    4  A    between atoms: C_7  and  C_8 
REMARK       I    between atoms: C_8  and  N_9 
REMARK    5  A    between atoms: N_9  and  C_10 
REMARK    6  A    between atoms: C_12  and  C_13 
ROOT
HETATM    1  C   UNL     1     -43.336  56.344 -53.101  1.00  0.00     0.222 C 
HETATM    2  N   UNL     1     -42.971  55.537 -52.065  1.00  0.00    -0.327 N 
HETATM    3  O   UNL     1     -44.404  56.954 -52.985  1.00  0.00    -0.273 OA
HETATM    4  H   UNL     1     -43.666  55.603 -51.329  1.00  0.00     0.169 HD
ENDROOT
BRANCH   2   5
HETATM    5  C   UNL     1     -41.893  54.669 -51.804  1.00  0.00     0.035 A 
HETATM    6  C   UNL     1     -41.568  53.520 -52.526  1.00  0.00     0.042 A 
HETATM    7  C   UNL     1     -40.462  52.721 -52.173  1.00  0.00    -0.021 A 
HETATM    8  C   UNL     1     -39.684  53.085 -51.070  1.00  0.00     0.012 A 
HETATM    9  C   UNL     1     -39.999  54.225 -50.335  1.00  0.00     0.003 A 
HETATM   10  C   UNL     1     -41.094  55.008 -50.701  1.00  0.00     0.029 A 
BRANCH   7  11
HETATM   11  C   UNL     1     -40.132  51.522 -52.928  1.00  0.00     0.010 A 
HETATM   12  C   UNL     1     -39.607  50.277 -52.504  1.00  0.00     0.152 A 
HETATM   13  N   UNL     1     -39.424  49.421 -53.512  1.00  0.00    -0.187 NA
HETATM   14  N   UNL     1     -39.825  50.114 -54.588  1.00  0.00    -0.289 N 
HETATM   15  H   UNL     1     -39.774  49.663 -55.497  1.00  0.00     0.188 HD
HETATM   16  C   UNL     1     -40.256  51.376 -54.295  1.00  0.00     0.123 A 
ENDBRANCH   7  11
ENDBRANCH   2   5
BRANCH   1  17
HETATM   17  C   UNL     1     -42.472  56.495 -54.334  1.00  0.00     0.103 C 
BRANCH  17  18
HETATM   18  C   UNL     1     -41.717  57.826 -54.396  1.00  0.00     0.014 C 
BRANCH  18  19
HETATM   19  C   UNL     1     -40.598  57.920 -53.353  1.00  0.00     0.046 C 
BRANCH  19  20
HETATM   20  C   UNL     1     -41.006  58.784 -52.196  1.00  0.00    -0.017 A 
HETATM   21  S   UNL     1     -42.214  59.982 -52.389  1.00  0.00    -0.100 SA
HETATM   22  C   UNL     1     -42.094  60.469 -50.754  1.00  0.00    -0.021 A 
HETATM   23  C   UNL     1     -42.959  61.565 -50.237  1.00  0.00     0.056 C 
HETATM   24  C   UNL     1     -41.152  59.727 -50.072  1.00  0.00     0.015 A 
HETATM   25  C   UNL     1     -40.523  58.758 -50.904  1.00  0.00     0.015 A 
ENDBRANCH  19  20
ENDBRANCH  18  19
ENDBRANCH  17  18
ENDBRANCH   1  17
TORSDOF 6
ENDMDL
MODEL 10
REMARK VINA RESULT:      -6.5      4.157      7.000
REMARK  6 active torsions:
REMARK  status: ('A' for Active; 'I' for Inactive)
REMARK    1  A    between atoms: C_4  and  C_5 
REMARK    2  A    between atoms: C_5  and  C_6 
REMARK    3  A    between atoms: C_6  and  C_7 
REMARK    4  A    between atoms: C_7  and  C_8 
REMARK       I    between atoms: C_8  and  N_9 
REMARK    5  A    between atoms: N_9  and  C_10 
REMARK    6  A    between atoms: C_12  and  C_13 
ROOT
HETATM    1  C   UNL     1     -42.976  55.679 -54.906  1.00  0.00     0.222 C 
HETATM    2  N   UNL     1     -43.583  56.158 -56.028  1.00  0.00    -0.327 N 
HETATM    3  O   UNL     1     -43.708  55.378 -53.959  1.00  0.00    -0.273 OA
HETATM    4  H   UNL     1     -44.589  56.158 -55.890  1.00  0.00     0.169 HD
ENDROOT
BRANCH   2   5
HETATM    5  C   UNL     1     -43.144  56.633 -57.279  1.00  0.00     0.035 A 
HETATM    6  C   UNL     1     -42.770  57.945 -57.576  1.00  0.00     0.042 A 
HETATM    7  C   UNL     1     -42.346  58.311 -58.869  1.00  0.00    -0.021 A 
HETATM    8  C   UNL     1     -42.312  57.340 -59.875  1.00  0.00     0.012 A 
HETATM    9  C   UNL     1     -42.689  56.029 -59.596  1.00  0.00     0.003 A 
HETATM   10  C   UNL     1     -43.101  55.682 -58.309  1.00  0.00     0.029 A 
BRANCH   7  11
HETATM   11  C   UNL     1     -41.962  59.681 -59.172  1.00  0.00     0.010 A 
HETATM   12  C   UNL     1     -41.933  60.383 -60.401  1.00  0.00     0.152 A 
HETATM   13  N   UNL     1     -41.499  61.639 -60.271  1.00  0.00    -0.187 NA
HETATM   14  N   UNL     1     -41.242  61.748 -58.959  1.00  0.00    -0.289 N 
HETATM   15  H   UNL     1     -40.888  62.633 -58.609  1.00  0.00     0.188 HD
HETATM   16  C   UNL     1     -41.500  60.605 -58.257  1.00  0.00     0.123 A 
ENDBRANCH   7  11
ENDBRANCH   2   5
BRANCH   1  17
HETATM   17  C   UNL     1     -41.474  55.514 -54.824  1.00  0.00     0.103 C 
BRANCH  17  18
HETATM   18  C   UNL     1     -41.032  54.329 -53.962  1.00  0.00     0.014 C 
BRANCH  18  19
HETATM   19  C   UNL     1     -40.244  53.281 -54.757  1.00  0.00     0.046 C 
BRANCH  19  20
HETATM   20  C   UNL     1     -40.046  52.028 -53.954  1.00  0.00    -0.017 A 
HETATM   21  S   UNL     1     -39.851  52.106 -52.255  1.00  0.00    -0.100 SA
HETATM   22  C   UNL     1     -39.696  50.407 -52.123  1.00  0.00    -0.021 A 
HETATM   23  C   UNL     1     -39.491  49.779 -50.788  1.00  0.00     0.056 C 
HETATM   24  C   UNL     1     -39.797  49.792 -53.353  1.00  0.00     0.015 A 
HETATM   25  C   UNL     1     -39.996  50.726 -54.409  1.00  0.00     0.015 A 
ENDBRANCH  19  20
ENDBRANCH  18  19
ENDBRANCH  17  18
ENDBRANCH   1  17
TORSDOF 6
ENDMDL
