MODEL 1
REMARK VINA RESULT:      -9.8      0.000      0.000
REMARK  5 active torsions:
REMARK  status: ('A' for Active; 'I' for Inactive)
REMARK    1  A    between atoms: C_4  and  C_5 
REMARK    2  A    between atoms: C_5  and  N_6 
REMARK    3  A    between atoms: C_8  and  C_9 
REMARK       I    between atoms: C_9  and  N_10 
REMARK    4  A    between atoms: N_10  and  N_11 
REMARK       I    between atoms: N_11  and  C_12 
REMARK    5  A    between atoms: C_12  and  C_13 
ROOT
HETATM    1  N   UNL     1     -40.721  53.720 -51.037  1.00  0.00    -0.229 N 
HETATM    2  N   UNL     1     -40.814  54.259 -52.302  1.00  0.00    -0.163 NA
HETATM    3  C   UNL     1     -40.575  53.496 -53.328  1.00  0.00     0.157 A 
HETATM    4  C   UNL     1     -40.178  52.083 -53.224  1.00  0.00     0.016 A 
HETATM    5  C   UNL     1     -40.083  51.549 -51.944  1.00  0.00     0.046 A 
HETATM    6  C   UNL     1     -40.377  52.398 -50.773  1.00  0.00     0.275 A 
HETATM    7  O   UNL     1     -40.290  51.916 -49.646  1.00  0.00    -0.266 OA
HETATM    8  C   UNL     1     -39.871  51.285 -54.334  1.00  0.00     0.015 A 
HETATM    9  C   UNL     1     -39.483  49.953 -54.151  1.00  0.00     0.001 A 
HETATM   10  C   UNL     1     -39.395  49.418 -52.868  1.00  0.00     0.001 A 
HETATM   11  C   UNL     1     -39.695  50.215 -51.763  1.00  0.00     0.018 A 
ENDROOT
BRANCH   3  12
HETATM   12  C   UNL     1     -40.682  54.165 -54.691  1.00  0.00     0.291 C 
HETATM   13  N   UNL     1     -41.955  54.605 -54.974  1.00  0.00    -0.262 N 
HETATM   14  H   UNL     1     -42.758  54.308 -54.416  1.00  0.00     0.190 HD
HETATM   15  O   UNL     1     -39.711  54.287 -55.423  1.00  0.00    -0.264 OA
BRANCH  13  16
HETATM   16  N   UNL     1     -42.218  55.181 -56.219  1.00  0.00    -0.263 N 
HETATM   17  C   UNL     1     -42.584  56.512 -56.248  1.00  0.00     0.270 C 
HETATM   18  O   UNL     1     -42.668  57.195 -55.228  1.00  0.00    -0.266 OA
HETATM   19  H   UNL     1     -42.320  54.545 -57.006  1.00  0.00     0.190 HD
BRANCH  17  20
HETATM   20  C   UNL     1     -42.899  57.096 -57.580  1.00  0.00     0.036 A 
HETATM   21  C   UNL     1     -43.131  58.471 -57.744  1.00  0.00     0.051 A 
HETATM   22  C   UNL     1     -43.449  58.946 -59.024  1.00  0.00     0.085 A 
HETATM   23  C   UNL     1     -43.532  58.055 -60.089  1.00  0.00     0.062 A 
HETATM   24  N   UNL     1     -43.719  60.227 -59.436  1.00  0.00    -0.242 NA
HETATM   25  N   UNL     1     -43.862  58.843 -61.163  1.00  0.00    -0.349 N 
HETATM   26  C   UNL     1     -43.316  56.683 -59.959  1.00  0.00     0.033 A 
HETATM   27  H   UNL     1     -44.011  58.526 -62.110  1.00  0.00     0.167 HD
HETATM   28  C   UNL     1     -43.964  60.132 -60.723  1.00  0.00     0.208 A 
HETATM   29  C   UNL     1     -43.001  56.222 -58.675  1.00  0.00     0.019 A 
ENDBRANCH  17  20
ENDBRANCH  13  16
ENDBRANCH   3  12
BRANCH   1  30
HETATM   30  C   UNL     1     -41.053  54.609 -49.926  1.00  0.00     0.193 C 
BRANCH  30  31
HETATM   31  C   UNL     1     -41.725  55.881 -50.389  1.00  0.00    -0.038 A 
HETATM   32  C   UNL     1     -43.088  55.885 -50.721  1.00  0.00     0.009 A 
HETATM   33  C   UNL     1     -43.708  57.058 -51.155  1.00  0.00     0.001 A 
HETATM   34  C   UNL     1     -42.971  58.235 -51.267  1.00  0.00     0.000 A 
HETATM   35  C   UNL     1     -41.613  58.241 -50.952  1.00  0.00     0.001 A 
HETATM   36  C   UNL     1     -40.992  57.068 -50.520  1.00  0.00     0.009 A 
ENDBRANCH  30  31
ENDBRANCH   1  30
TORSDOF 5
ENDMDL
MODEL 2
REMARK VINA RESULT:      -9.8      1.423      1.850
REMARK  5 active torsions:
REMARK  status: ('A' for Active; 'I' for Inactive)
REMARK    1  A    between atoms: C_4  and  C_5 
REMARK    2  A    between atoms: C_5  and  N_6 
REMARK    3  A    between atoms: C_8  and  C_9 
REMARK       I    between atoms: C_9  and  N_10 
REMARK    4  A    between atoms: N_10  and  N_11 
REMARK       I    between atoms: N_11  and  C_12 
REMARK    5  A    between atoms: C_12  and  C_13 
ROOT
HETATM    1  N   UNL     1     -41.147  54.895 -51.253  1.00  0.00    -0.229 N 
HETATM    2  N   UNL     1     -41.748  55.220 -52.450  1.00  0.00    -0.163 NA
HETATM    3  C   UNL     1     -41.669  54.381 -53.441  1.00  0.00     0.157 A 
HETATM    4  C   UNL     1     -40.946  53.102 -53.376  1.00  0.00     0.016 A 
HETATM    5  C   UNL     1     -40.340  52.783 -52.166  1.00  0.00     0.046 A 
HETATM    6  C   UNL     1     -40.444  53.715 -51.027  1.00  0.00     0.275 A 
HETATM    7  O   UNL     1     -39.904  53.424 -49.961  1.00  0.00    -0.266 OA
HETATM    8  C   UNL     1     -40.822  52.230 -54.465  1.00  0.00     0.015 A 
HETATM    9  C   UNL     1     -40.102  51.038 -54.329  1.00  0.00     0.001 A 
HETATM   10  C   UNL     1     -39.501  50.718 -53.114  1.00  0.00     0.001 A 
HETATM   11  C   UNL     1     -39.618  51.589 -52.031  1.00  0.00     0.018 A 
ENDROOT
BRANCH   3  12
HETATM   12  C   UNL     1     -42.344  54.817 -54.734  1.00  0.00     0.291 C 
HETATM   13  N   UNL     1     -41.550  55.635 -55.504  1.00  0.00    -0.262 N 
HETATM   14  H   UNL     1     -40.701  56.062 -55.128  1.00  0.00     0.190 HD
HETATM   15  O   UNL     1     -43.472  54.448 -55.023  1.00  0.00    -0.264 OA
BRANCH  13  16
HETATM   16  N   UNL     1     -42.063  56.166 -56.690  1.00  0.00    -0.263 N 
HETATM   17  C   UNL     1     -42.381  57.509 -56.708  1.00  0.00     0.270 C 
HETATM   18  O   UNL     1     -42.214  58.241 -55.734  1.00  0.00    -0.266 OA
HETATM   19  H   UNL     1     -42.359  55.501 -57.400  1.00  0.00     0.190 HD
BRANCH  17  20
HETATM   20  C   UNL     1     -42.964  58.047 -57.968  1.00  0.00     0.036 A 
HETATM   21  C   UNL     1     -44.332  58.344 -58.077  1.00  0.00     0.051 A 
HETATM   22  C   UNL     1     -44.815  58.821 -59.304  1.00  0.00     0.085 A 
HETATM   23  C   UNL     1     -43.941  58.982 -60.373  1.00  0.00     0.062 A 
HETATM   24  N   UNL     1     -46.094  59.175 -59.658  1.00  0.00    -0.242 NA
HETATM   25  N   UNL     1     -44.736  59.447 -61.391  1.00  0.00    -0.349 N 
HETATM   26  C   UNL     1     -42.580  58.687 -60.302  1.00  0.00     0.033 A 
HETATM   27  H   UNL     1     -44.433  59.671 -62.328  1.00  0.00     0.167 HD
HETATM   28  C   UNL     1     -46.013  59.545 -60.916  1.00  0.00     0.208 A 
HETATM   29  C   UNL     1     -42.110  58.210 -59.072  1.00  0.00     0.019 A 
ENDBRANCH  17  20
ENDBRANCH  13  16
ENDBRANCH   3  12
BRANCH   1  30
HETATM   30  C   UNL     1     -41.314  55.849 -50.161  1.00  0.00     0.193 C 
BRANCH  30  31
HETATM   31  C   UNL     1     -41.511  57.263 -50.658  1.00  0.00    -0.038 A 
HETATM   32  C   UNL     1     -40.428  58.151 -50.727  1.00  0.00     0.009 A 
HETATM   33  C   UNL     1     -40.612  59.459 -51.179  1.00  0.00     0.001 A 
HETATM   34  C   UNL     1     -41.880  59.893 -51.561  1.00  0.00     0.000 A 
HETATM   35  C   UNL     1     -42.967  59.023 -51.485  1.00  0.00     0.001 A 
HETATM   36  C   UNL     1     -42.785  57.716 -51.031  1.00  0.00     0.009 A 
ENDBRANCH  30  31
ENDBRANCH   1  30
TORSDOF 5
ENDMDL
MODEL 3
REMARK VINA RESULT:      -9.3      1.921      4.966
REMARK  5 active torsions:
REMARK  status: ('A' for Active; 'I' for Inactive)
REMARK    1  A    between atoms: C_4  and  C_5 
REMARK    2  A    between atoms: C_5  and  N_6 
REMARK    3  A    between atoms: C_8  and  C_9 
REMARK       I    between atoms: C_9  and  N_10 
REMARK    4  A    between atoms: N_10  and  N_11 
REMARK       I    between atoms: N_11  and  C_12 
REMARK    5  A    between atoms: C_12  and  C_13 
ROOT
HETATM    1  N   UNL     1     -40.797  53.802 -51.324  1.00  0.00    -0.229 N 
HETATM    2  N   UNL     1     -41.642  53.772 -52.413  1.00  0.00    -0.163 NA
HETATM    3  C   UNL     1     -42.161  54.887 -52.836  1.00  0.00     0.157 A 
HETATM    4  C   UNL     1     -41.924  56.193 -52.203  1.00  0.00     0.016 A 
HETATM    5  C   UNL     1     -41.073  56.214 -51.103  1.00  0.00     0.046 A 
HETATM    6  C   UNL     1     -40.459  54.959 -50.629  1.00  0.00     0.275 A 
HETATM    7  O   UNL     1     -39.708  54.988 -49.656  1.00  0.00    -0.266 OA
HETATM    8  C   UNL     1     -42.529  57.381 -52.634  1.00  0.00     0.015 A 
HETATM    9  C   UNL     1     -42.267  58.582 -51.967  1.00  0.00     0.001 A 
HETATM   10  C   UNL     1     -41.409  58.601 -50.869  1.00  0.00     0.001 A 
HETATM   11  C   UNL     1     -40.811  57.418 -50.435  1.00  0.00     0.018 A 
ENDROOT
BRANCH   3  12
HETATM   12  C   UNL     1     -43.095  54.772 -54.032  1.00  0.00     0.291 C 
HETATM   13  N   UNL     1     -42.467  55.023 -55.230  1.00  0.00    -0.262 N 
HETATM   14  H   UNL     1     -41.539  55.451 -55.266  1.00  0.00     0.190 HD
HETATM   15  O   UNL     1     -44.273  54.474 -53.898  1.00  0.00    -0.264 OA
BRANCH  13  16
HETATM   16  N   UNL     1     -43.216  55.018 -56.409  1.00  0.00    -0.263 N 
HETATM   17  C   UNL     1     -43.270  56.186 -57.142  1.00  0.00     0.270 C 
HETATM   18  O   UNL     1     -42.676  57.207 -56.801  1.00  0.00    -0.266 OA
HETATM   19  H   UNL     1     -43.836  54.224 -56.555  1.00  0.00     0.190 HD
BRANCH  17  20
HETATM   20  C   UNL     1     -44.106  56.171 -58.374  1.00  0.00     0.036 A 
HETATM   21  C   UNL     1     -45.145  57.095 -58.569  1.00  0.00     0.051 A 
HETATM   22  C   UNL     1     -45.908  57.003 -59.741  1.00  0.00     0.085 A 
HETATM   23  C   UNL     1     -45.626  56.007 -60.670  1.00  0.00     0.062 A 
HETATM   24  N   UNL     1     -46.964  57.776 -60.156  1.00  0.00    -0.242 NA
HETATM   25  N   UNL     1     -46.550  56.204 -61.666  1.00  0.00    -0.349 N 
HETATM   26  C   UNL     1     -44.608  55.069 -60.504  1.00  0.00     0.033 A 
HETATM   27  H   UNL     1     -46.645  55.654 -62.508  1.00  0.00     0.167 HD
HETATM   28  C   UNL     1     -47.328  57.270 -61.313  1.00  0.00     0.208 A 
HETATM   29  C   UNL     1     -43.855  55.170 -59.328  1.00  0.00     0.019 A 
ENDBRANCH  17  20
ENDBRANCH  13  16
ENDBRANCH   3  12
BRANCH   1  30
HETATM   30  C   UNL     1     -40.203  52.528 -50.927  1.00  0.00     0.193 C 
BRANCH  30  31
HETATM   31  C   UNL     1     -39.968  51.611 -52.106  1.00  0.00    -0.038 A 
HETATM   32  C   UNL     1     -39.721  50.245 -51.906  1.00  0.00     0.009 A 
HETATM   33  C   UNL     1     -39.497  49.399 -52.993  1.00  0.00     0.001 A 
HETATM   34  C   UNL     1     -39.511  49.911 -54.289  1.00  0.00     0.000 A 
HETATM   35  C   UNL     1     -39.743  51.270 -54.499  1.00  0.00     0.001 A 
HETATM   36  C   UNL     1     -39.965  52.117 -53.413  1.00  0.00     0.009 A 
ENDBRANCH  30  31
ENDBRANCH   1  30
TORSDOF 5
ENDMDL
MODEL 4
REMARK VINA RESULT:      -9.2      2.435      9.355
REMARK  5 active torsions:
REMARK  status: ('A' for Active; 'I' for Inactive)
REMARK    1  A    between atoms: C_4  and  C_5 
REMARK    2  A    between atoms: C_5  and  N_6 
REMARK    3  A    between atoms: C_8  and  C_9 
REMARK       I    between atoms: C_9  and  N_10 
REMARK    4  A    between atoms: N_10  and  N_11 
REMARK       I    between atoms: N_11  and  C_12 
REMARK    5  A    between atoms: C_12  and  C_13 
ROOT
HETATM    1  N   UNL     1     -42.612  58.618 -57.554  1.00  0.00    -0.229 N 
HETATM    2  N   UNL     1     -42.516  57.492 -56.766  1.00  0.00    -0.163 NA
HETATM    3  C   UNL     1     -42.558  57.625 -55.472  1.00  0.00     0.157 A 
HETATM    4  C   UNL     1     -42.675  58.921 -54.785  1.00  0.00     0.016 A 
HETATM    5  C   UNL     1     -42.768  60.052 -55.589  1.00  0.00     0.046 A 
HETATM    6  C   UNL     1     -42.747  59.911 -57.057  1.00  0.00     0.275 A 
HETATM    7  O   UNL     1     -42.830  60.917 -57.758  1.00  0.00    -0.266 OA
HETATM    8  C   UNL     1     -42.667  59.058 -53.391  1.00  0.00     0.015 A 
HETATM    9  C   UNL     1     -42.764  60.328 -52.813  1.00  0.00     0.001 A 
HETATM   10  C   UNL     1     -42.864  61.460 -53.620  1.00  0.00     0.001 A 
HETATM   11  C   UNL     1     -42.866  61.324 -55.008  1.00  0.00     0.018 A 
ENDROOT
BRANCH   3  12
HETATM   12  C   UNL     1     -42.430  56.339 -54.669  1.00  0.00     0.291 C 
HETATM   13  N   UNL     1     -41.123  55.982 -54.431  1.00  0.00    -0.262 N 
HETATM   14  H   UNL     1     -40.350  56.423 -54.933  1.00  0.00     0.190 HD
HETATM   15  O   UNL     1     -43.414  55.723 -54.286  1.00  0.00    -0.264 OA
BRANCH  13  16
HETATM   16  N   UNL     1     -40.852  54.787 -53.761  1.00  0.00    -0.263 N 
HETATM   17  C   UNL     1     -40.426  53.710 -54.512  1.00  0.00     0.270 C 
HETATM   18  O   UNL     1     -40.268  53.776 -55.730  1.00  0.00    -0.266 OA
HETATM   19  H   UNL     1     -41.171  54.719 -52.797  1.00  0.00     0.190 HD
BRANCH  17  20
HETATM   20  C   UNL     1     -40.181  52.435 -53.784  1.00  0.00     0.036 A 
HETATM   21  C   UNL     1     -40.186  52.377 -52.381  1.00  0.00     0.051 A 
HETATM   22  C   UNL     1     -39.920  51.146 -51.764  1.00  0.00     0.085 A 
HETATM   23  C   UNL     1     -39.655  50.027 -52.544  1.00  0.00     0.062 A 
HETATM   24  N   UNL     1     -39.865  50.836 -50.427  1.00  0.00    -0.242 NA
HETATM   25  N   UNL     1     -39.437  49.024 -51.632  1.00  0.00    -0.349 N 
HETATM   26  C   UNL     1     -39.633  50.052 -53.939  1.00  0.00     0.033 A 
HETATM   27  H   UNL     1     -39.209  48.064 -51.847  1.00  0.00     0.167 HD
HETATM   28  C   UNL     1     -39.572  49.557 -50.381  1.00  0.00     0.208 A 
HETATM   29  C   UNL     1     -39.899  51.286 -54.543  1.00  0.00     0.019 A 
ENDBRANCH  17  20
ENDBRANCH  13  16
ENDBRANCH   3  12
BRANCH   1  30
HETATM   30  C   UNL     1     -42.612  58.402 -58.998  1.00  0.00     0.193 C 
BRANCH  30  31
HETATM   31  C   UNL     1     -43.698  57.447 -59.437  1.00  0.00    -0.038 A 
HETATM   32  C   UNL     1     -45.050  57.798 -59.307  1.00  0.00     0.009 A 
HETATM   33  C   UNL     1     -46.053  56.913 -59.705  1.00  0.00     0.001 A 
HETATM   34  C   UNL     1     -45.715  55.667 -60.230  1.00  0.00     0.000 A 
HETATM   35  C   UNL     1     -44.375  55.302 -60.352  1.00  0.00     0.001 A 
HETATM   36  C   UNL     1     -43.372  56.185 -59.952  1.00  0.00     0.009 A 
ENDBRANCH  30  31
ENDBRANCH   1  30
TORSDOF 5
ENDMDL
MODEL 5
REMARK VINA RESULT:      -9.0      4.401      7.803
REMARK  5 active torsions:
REMARK  status: ('A' for Active; 'I' for Inactive)
REMARK    1  A    between atoms: C_4  and  C_5 
REMARK    2  A    between atoms: C_5  and  N_6 
REMARK    3  A    between atoms: C_8  and  C_9 
REMARK       I    between atoms: C_9  and  N_10 
REMARK    4  A    between atoms: N_10  and  N_11 
REMARK       I    between atoms: N_11  and  C_12 
REMARK    5  A    between atoms: C_12  and  C_13 
ROOT
HETATM    1  N   UNL     1     -42.727  54.464 -53.922  1.00  0.00    -0.229 N 
HETATM    2  N   UNL     1     -43.428  55.376 -53.163  1.00  0.00    -0.163 NA
HETATM    3  C   UNL     1     -43.028  55.625 -51.951  1.00  0.00     0.157 A 
HETATM    4  C   UNL     1     -41.875  54.967 -51.317  1.00  0.00     0.016 A 
HETATM    5  C   UNL     1     -41.175  54.046 -52.088  1.00  0.00     0.046 A 
HETATM    6  C   UNL     1     -41.604  53.773 -53.473  1.00  0.00     0.275 A 
HETATM    7  O   UNL     1     -40.979  52.958 -54.147  1.00  0.00    -0.266 OA
HETATM    8  C   UNL     1     -41.484  55.203 -49.993  1.00  0.00     0.015 A 
HETATM    9  C   UNL     1     -40.386  54.523 -49.456  1.00  0.00     0.001 A 
HETATM   10  C   UNL     1     -39.682  53.605 -50.233  1.00  0.00     0.001 A 
HETATM   11  C   UNL     1     -40.075  53.365 -51.549  1.00  0.00     0.018 A 
ENDROOT
BRANCH   3  12
HETATM   12  C   UNL     1     -43.862  56.631 -51.171  1.00  0.00     0.291 C 
HETATM   13  N   UNL     1     -43.389  57.918 -51.278  1.00  0.00    -0.262 N 
HETATM   14  H   UNL     1     -42.461  58.115 -51.658  1.00  0.00     0.190 HD
HETATM   15  O   UNL     1     -44.849  56.290 -50.536  1.00  0.00    -0.264 OA
BRANCH  13  16
HETATM   16  N   UNL     1     -44.017  58.940 -50.561  1.00  0.00    -0.263 N 
HETATM   17  C   UNL     1     -43.588  60.234 -50.775  1.00  0.00     0.270 C 
HETATM   18  O   UNL     1     -42.697  60.510 -51.577  1.00  0.00    -0.266 OA
HETATM   19  H   UNL     1     -44.608  58.657 -49.782  1.00  0.00     0.190 HD
BRANCH  17  20
HETATM   20  C   UNL     1     -44.243  61.303 -49.972  1.00  0.00     0.036 A 
HETATM   21  C   UNL     1     -45.468  61.086 -49.320  1.00  0.00     0.051 A 
HETATM   22  C   UNL     1     -46.039  62.148 -48.604  1.00  0.00     0.085 A 
HETATM   23  C   UNL     1     -45.391  63.377 -48.561  1.00  0.00     0.062 A 
HETATM   24  N   UNL     1     -47.213  62.187 -47.894  1.00  0.00    -0.242 NA
HETATM   25  N   UNL     1     -46.216  64.166 -47.798  1.00  0.00    -0.349 N 
HETATM   26  C   UNL     1     -44.180  63.629 -49.205  1.00  0.00     0.033 A 
HETATM   27  H   UNL     1     -46.060  65.135 -47.561  1.00  0.00     0.167 HD
HETATM   28  C   UNL     1     -47.291  63.412 -47.424  1.00  0.00     0.208 A 
HETATM   29  C   UNL     1     -43.621  62.561 -49.918  1.00  0.00     0.019 A 
ENDBRANCH  17  20
ENDBRANCH  13  16
ENDBRANCH   3  12
BRANCH   1  30
HETATM   30  C   UNL     1     -43.190  54.265 -55.292  1.00  0.00     0.193 C 
BRANCH  30  31
HETATM   31  C   UNL     1     -42.914  55.462 -56.172  1.00  0.00    -0.038 A 
HETATM   32  C   UNL     1     -42.449  56.663 -55.616  1.00  0.00     0.009 A 
HETATM   33  C   UNL     1     -42.200  57.770 -56.428  1.00  0.00     0.001 A 
HETATM   34  C   UNL     1     -42.420  57.691 -57.802  1.00  0.00     0.000 A 
HETATM   35  C   UNL     1     -42.894  56.507 -58.365  1.00  0.00     0.001 A 
HETATM   36  C   UNL     1     -43.145  55.399 -57.553  1.00  0.00     0.009 A 
ENDBRANCH  30  31
ENDBRANCH   1  30
TORSDOF 5
ENDMDL
MODEL 6
REMARK VINA RESULT:      -8.8      2.753      9.692
REMARK  5 active torsions:
REMARK  status: ('A' for Active; 'I' for Inactive)
REMARK    1  A    between atoms: C_4  and  C_5 
REMARK    2  A    between atoms: C_5  and  N_6 
REMARK    3  A    between atoms: C_8  and  C_9 
REMARK       I    between atoms: C_9  and  N_10 
REMARK    4  A    between atoms: N_10  and  N_11 
REMARK       I    between atoms: N_11  and  C_12 
REMARK    5  A    between atoms: C_12  and  C_13 
ROOT
HETATM    1  N   UNL     1     -44.717  60.173 -58.749  1.00  0.00    -0.229 N 
HETATM    2  N   UNL     1     -44.039  59.077 -58.261  1.00  0.00    -0.163 NA
HETATM    3  C   UNL     1     -44.405  57.889 -58.646  1.00  0.00     0.157 A 
HETATM    4  C   UNL     1     -45.528  57.634 -59.560  1.00  0.00     0.016 A 
HETATM    5  C   UNL     1     -46.209  58.745 -60.045  1.00  0.00     0.046 A 
HETATM    6  C   UNL     1     -45.788  60.098 -59.636  1.00  0.00     0.275 A 
HETATM    7  O   UNL     1     -46.396  61.074 -60.070  1.00  0.00    -0.266 OA
HETATM    8  C   UNL     1     -45.947  56.348 -59.927  1.00  0.00     0.015 A 
HETATM    9  C   UNL     1     -47.038  56.188 -60.788  1.00  0.00     0.001 A 
HETATM   10  C   UNL     1     -47.715  57.303 -61.278  1.00  0.00     0.001 A 
HETATM   11  C   UNL     1     -47.302  58.582 -60.908  1.00  0.00     0.018 A 
ENDROOT
BRANCH   3  12
HETATM   12  C   UNL     1     -43.619  56.729 -58.052  1.00  0.00     0.291 C 
HETATM   13  N   UNL     1     -43.985  56.439 -56.758  1.00  0.00    -0.262 N 
HETATM   14  H   UNL     1     -44.561  57.081 -56.210  1.00  0.00     0.190 HD
HETATM   15  O   UNL     1     -42.765  56.137 -58.697  1.00  0.00    -0.264 OA
BRANCH  13  16
HETATM   16  N   UNL     1     -43.302  55.439 -56.062  1.00  0.00    -0.263 N 
HETATM   17  C   UNL     1     -42.506  55.821 -55.002  1.00  0.00     0.270 C 
HETATM   18  O   UNL     1     -42.395  56.994 -54.649  1.00  0.00    -0.266 OA
HETATM   19  H   UNL     1     -43.271  54.518 -56.495  1.00  0.00     0.190 HD
BRANCH  17  20
HETATM   20  C   UNL     1     -41.756  54.744 -54.299  1.00  0.00     0.036 A 
HETATM   21  C   UNL     1     -41.852  54.568 -52.909  1.00  0.00     0.051 A 
HETATM   22  C   UNL     1     -41.096  53.550 -52.312  1.00  0.00     0.085 A 
HETATM   23  C   UNL     1     -40.272  52.752 -53.098  1.00  0.00     0.062 A 
HETATM   24  N   UNL     1     -41.016  53.184 -50.991  1.00  0.00    -0.242 NA
HETATM   25  N   UNL     1     -39.689  51.887 -52.206  1.00  0.00    -0.349 N 
HETATM   26  C   UNL     1     -40.146  52.906 -54.479  1.00  0.00     0.033 A 
HETATM   27  H   UNL     1     -39.022  51.162 -52.429  1.00  0.00     0.167 HD
HETATM   28  C   UNL     1     -40.164  52.185 -50.960  1.00  0.00     0.208 A 
HETATM   29  C   UNL     1     -40.906  53.927 -55.062  1.00  0.00     0.019 A 
ENDBRANCH  17  20
ENDBRANCH  13  16
ENDBRANCH   3  12
BRANCH   1  30
HETATM   30  C   UNL     1     -44.229  61.482 -58.324  1.00  0.00     0.193 C 
BRANCH  30  31
HETATM   31  C   UNL     1     -42.851  61.785 -58.865  1.00  0.00    -0.038 A 
HETATM   32  C   UNL     1     -42.637  61.894 -60.247  1.00  0.00     0.009 A 
HETATM   33  C   UNL     1     -41.363  62.167 -60.747  1.00  0.00     0.001 A 
HETATM   34  C   UNL     1     -40.290  62.327 -59.872  1.00  0.00     0.000 A 
HETATM   35  C   UNL     1     -40.488  62.208 -58.497  1.00  0.00     0.001 A 
HETATM   36  C   UNL     1     -41.761  61.933 -57.996  1.00  0.00     0.009 A 
ENDBRANCH  30  31
ENDBRANCH   1  30
TORSDOF 5
ENDMDL
MODEL 7
REMARK VINA RESULT:      -8.2      3.075      4.167
REMARK  5 active torsions:
REMARK  status: ('A' for Active; 'I' for Inactive)
REMARK    1  A    between atoms: C_4  and  C_5 
REMARK    2  A    between atoms: C_5  and  N_6 
REMARK    3  A    between atoms: C_8  and  C_9 
REMARK       I    between atoms: C_9  and  N_10 
REMARK    4  A    between atoms: N_10  and  N_11 
REMARK       I    between atoms: N_11  and  C_12 
REMARK    5  A    between atoms: C_12  and  C_13 
ROOT
HETATM    1  N   UNL     1     -42.015  57.590 -52.991  1.00  0.00    -0.229 N 
HETATM    2  N   UNL     1     -42.521  57.402 -54.259  1.00  0.00    -0.163 NA
HETATM    3  C   UNL     1     -42.466  56.214 -54.787  1.00  0.00     0.157 A 
HETATM    4  C   UNL     1     -41.865  55.048 -54.121  1.00  0.00     0.016 A 
HETATM    5  C   UNL     1     -41.354  55.248 -52.843  1.00  0.00     0.046 A 
HETATM    6  C   UNL     1     -41.434  56.584 -52.224  1.00  0.00     0.275 A 
HETATM    7  O   UNL     1     -40.980  56.751 -51.094  1.00  0.00    -0.266 OA
HETATM    8  C   UNL     1     -41.763  53.785 -54.719  1.00  0.00     0.015 A 
HETATM    9  C   UNL     1     -41.161  52.730 -54.027  1.00  0.00     0.001 A 
HETATM   10  C   UNL     1     -40.656  52.931 -52.744  1.00  0.00     0.001 A 
HETATM   11  C   UNL     1     -40.751  54.189 -52.151  1.00  0.00     0.018 A 
ENDROOT
BRANCH   3  12
HETATM   12  C   UNL     1     -43.030  56.088 -56.195  1.00  0.00     0.291 C 
HETATM   13  N   UNL     1     -43.994  57.029 -56.473  1.00  0.00    -0.262 N 
HETATM   14  H   UNL     1     -44.419  57.591 -55.734  1.00  0.00     0.190 HD
HETATM   15  O   UNL     1     -42.632  55.230 -56.970  1.00  0.00    -0.264 OA
BRANCH  13  16
HETATM   16  N   UNL     1     -44.648  56.993 -57.707  1.00  0.00    -0.263 N 
HETATM   17  C   UNL     1     -45.669  57.898 -57.921  1.00  0.00     0.270 C 
HETATM   18  O   UNL     1     -46.002  58.728 -57.077  1.00  0.00    -0.266 OA
HETATM   19  H   UNL     1     -44.473  56.182 -58.296  1.00  0.00     0.190 HD
BRANCH  17  20
HETATM   20  C   UNL     1     -46.379  57.817 -59.226  1.00  0.00     0.036 A 
HETATM   21  C   UNL     1     -46.816  58.970 -59.899  1.00  0.00     0.051 A 
HETATM   22  C   UNL     1     -47.503  58.815 -61.111  1.00  0.00     0.085 A 
HETATM   23  C   UNL     1     -47.737  57.539 -61.612  1.00  0.00     0.062 A 
HETATM   24  N   UNL     1     -48.026  59.773 -61.944  1.00  0.00    -0.242 NA
HETATM   25  N   UNL     1     -48.423  57.757 -62.781  1.00  0.00    -0.349 N 
HETATM   26  C   UNL     1     -47.325  56.374 -60.966  1.00  0.00     0.033 A 
HETATM   27  H   UNL     1     -48.764  57.046 -63.412  1.00  0.00     0.167 HD
HETATM   28  C   UNL     1     -48.573  59.106 -62.935  1.00  0.00     0.208 A 
HETATM   29  C   UNL     1     -46.642  56.542 -59.755  1.00  0.00     0.019 A 
ENDBRANCH  17  20
ENDBRANCH  13  16
ENDBRANCH   3  12
BRANCH   1  30
HETATM   30  C   UNL     1     -42.153  58.931 -52.429  1.00  0.00     0.193 C 
BRANCH  30  31
HETATM   31  C   UNL     1     -43.595  59.300 -52.167  1.00  0.00    -0.038 A 
HETATM   32  C   UNL     1     -44.182  60.389 -52.827  1.00  0.00     0.009 A 
HETATM   33  C   UNL     1     -45.511  60.734 -52.580  1.00  0.00     0.001 A 
HETATM   34  C   UNL     1     -46.264  59.999 -51.666  1.00  0.00     0.000 A 
HETATM   35  C   UNL     1     -45.688  58.922 -50.995  1.00  0.00     0.001 A 
HETATM   36  C   UNL     1     -44.358  58.577 -51.240  1.00  0.00     0.009 A 
ENDBRANCH  30  31
ENDBRANCH   1  30
TORSDOF 5
ENDMDL
MODEL 8
REMARK VINA RESULT:      -8.2      3.558      6.736
REMARK  5 active torsions:
REMARK  status: ('A' for Active; 'I' for Inactive)
REMARK    1  A    between atoms: C_4  and  C_5 
REMARK    2  A    between atoms: C_5  and  N_6 
REMARK    3  A    between atoms: C_8  and  C_9 
REMARK       I    between atoms: C_9  and  N_10 
REMARK    4  A    between atoms: N_10  and  N_11 
REMARK       I    between atoms: N_11  and  C_12 
REMARK    5  A    between atoms: C_12  and  C_13 
ROOT
HETATM    1  N   UNL     1     -42.243  58.130 -53.283  1.00  0.00    -0.229 N 
HETATM    2  N   UNL     1     -43.005  58.424 -54.393  1.00  0.00    -0.163 NA
HETATM    3  C   UNL     1     -44.121  59.074 -54.235  1.00  0.00     0.157 A 
HETATM    4  C   UNL     1     -44.644  59.497 -52.927  1.00  0.00     0.016 A 
HETATM    5  C   UNL     1     -43.870  59.194 -51.812  1.00  0.00     0.046 A 
HETATM    6  C   UNL     1     -42.591  58.479 -51.981  1.00  0.00     0.275 A 
HETATM    7  O   UNL     1     -41.915  58.216 -50.989  1.00  0.00    -0.266 OA
HETATM    8  C   UNL     1     -45.872  60.151 -52.763  1.00  0.00     0.015 A 
HETATM    9  C   UNL     1     -46.310  60.506 -51.482  1.00  0.00     0.001 A 
HETATM   10  C   UNL     1     -45.530  60.206 -50.367  1.00  0.00     0.001 A 
HETATM   11  C   UNL     1     -44.310  59.550 -50.530  1.00  0.00     0.018 A 
ENDROOT
BRANCH   3  12
HETATM   12  C   UNL     1     -44.914  59.348 -55.505  1.00  0.00     0.291 C 
HETATM   13  N   UNL     1     -45.798  58.340 -55.814  1.00  0.00    -0.262 N 
HETATM   14  H   UNL     1     -45.749  57.429 -55.354  1.00  0.00     0.190 HD
HETATM   15  O   UNL     1     -44.757  60.375 -56.148  1.00  0.00    -0.264 OA
BRANCH  13  16
HETATM   16  N   UNL     1     -46.547  58.425 -56.989  1.00  0.00    -0.263 N 
HETATM   17  C   UNL     1     -45.994  57.908 -58.144  1.00  0.00     0.270 C 
HETATM   18  O   UNL     1     -44.887  57.372 -58.163  1.00  0.00    -0.266 OA
HETATM   19  H   UNL     1     -47.362  59.034 -56.971  1.00  0.00     0.190 HD
BRANCH  17  20
HETATM   20  C   UNL     1     -46.792  58.044 -59.393  1.00  0.00     0.036 A 
HETATM   21  C   UNL     1     -46.948  56.972 -60.287  1.00  0.00     0.051 A 
HETATM   22  C   UNL     1     -47.691  57.182 -61.457  1.00  0.00     0.085 A 
HETATM   23  C   UNL     1     -48.245  58.432 -61.706  1.00  0.00     0.062 A 
HETATM   24  N   UNL     1     -47.979  56.306 -62.474  1.00  0.00    -0.242 NA
HETATM   25  N   UNL     1     -48.882  58.284 -62.913  1.00  0.00    -0.349 N 
HETATM   26  C   UNL     1     -48.102  59.520 -60.846  1.00  0.00     0.033 A 
HETATM   27  H   UNL     1     -49.393  59.000 -63.409  1.00  0.00     0.167 HD
HETATM   28  C   UNL     1     -48.694  56.997 -63.333  1.00  0.00     0.208 A 
HETATM   29  C   UNL     1     -47.357  59.298 -59.681  1.00  0.00     0.019 A 
ENDBRANCH  17  20
ENDBRANCH  13  16
ENDBRANCH   3  12
BRANCH   1  30
HETATM   30  C   UNL     1     -40.976  57.446 -53.526  1.00  0.00     0.193 C 
BRANCH  30  31
HETATM   31  C   UNL     1     -41.155  55.958 -53.727  1.00  0.00    -0.038 A 
HETATM   32  C   UNL     1     -42.030  55.230 -52.908  1.00  0.00     0.009 A 
HETATM   33  C   UNL     1     -42.190  53.855 -53.088  1.00  0.00     0.001 A 
HETATM   34  C   UNL     1     -41.472  53.195 -54.084  1.00  0.00     0.000 A 
HETATM   35  C   UNL     1     -40.590  53.906 -54.896  1.00  0.00     0.001 A 
HETATM   36  C   UNL     1     -40.428  55.280 -54.715  1.00  0.00     0.009 A 
ENDBRANCH  30  31
ENDBRANCH   1  30
TORSDOF 5
ENDMDL
MODEL 9
REMARK VINA RESULT:      -8.1     15.053     17.197
REMARK  5 active torsions:
REMARK  status: ('A' for Active; 'I' for Inactive)
REMARK    1  A    between atoms: C_4  and  C_5 
REMARK    2  A    between atoms: C_5  and  N_6 
REMARK    3  A    between atoms: C_8  and  C_9 
REMARK       I    between atoms: C_9  and  N_10 
REMARK    4  A    between atoms: N_10  and  N_11 
REMARK       I    between atoms: N_11  and  C_12 
REMARK    5  A    between atoms: C_12  and  C_13 
ROOT
HETATM    1  N   UNL     1     -41.429  37.176 -47.447  1.00  0.00    -0.229 N 
HETATM    2  N   UNL     1     -40.423  37.501 -48.331  1.00  0.00    -0.163 NA
HETATM    3  C   UNL     1     -40.710  37.615 -49.595  1.00  0.00     0.157 A 
HETATM    4  C   UNL     1     -42.052  37.389 -50.154  1.00  0.00     0.016 A 
HETATM    5  C   UNL     1     -43.060  37.058 -49.255  1.00  0.00     0.046 A 
HETATM    6  C   UNL     1     -42.752  36.950 -47.816  1.00  0.00     0.275 A 
HETATM    7  O   UNL     1     -43.650  36.658 -47.030  1.00  0.00    -0.266 OA
HETATM    8  C   UNL     1     -42.340  37.463 -51.523  1.00  0.00     0.015 A 
HETATM    9  C   UNL     1     -43.639  37.216 -51.979  1.00  0.00     0.001 A 
HETATM   10  C   UNL     1     -44.649  36.891 -51.076  1.00  0.00     0.001 A 
HETATM   11  C   UNL     1     -44.361  36.811 -49.713  1.00  0.00     0.018 A 
ENDROOT
BRANCH   3  12
HETATM   12  C   UNL     1     -39.545  37.961 -50.511  1.00  0.00     0.291 C 
HETATM   13  N   UNL     1     -39.457  39.306 -50.783  1.00  0.00    -0.262 N 
HETATM   14  H   UNL     1     -40.224  39.945 -50.564  1.00  0.00     0.190 HD
HETATM   15  O   UNL     1     -38.784  37.101 -50.931  1.00  0.00    -0.264 OA
BRANCH  13  16
HETATM   16  N   UNL     1     -38.474  39.763 -51.664  1.00  0.00    -0.263 N 
HETATM   17  C   UNL     1     -38.800  40.806 -52.507  1.00  0.00     0.270 C 
HETATM   18  O   UNL     1     -39.905  41.345 -52.494  1.00  0.00    -0.266 OA
HETATM   19  H   UNL     1     -37.649  39.177 -51.774  1.00  0.00     0.190 HD
BRANCH  17  20
HETATM   20  C   UNL     1     -37.751  41.251 -53.465  1.00  0.00     0.036 A 
HETATM   21  C   UNL     1     -37.876  41.030 -54.847  1.00  0.00     0.051 A 
HETATM   22  C   UNL     1     -36.836  41.453 -55.686  1.00  0.00     0.085 A 
HETATM   23  C   UNL     1     -35.715  42.067 -55.138  1.00  0.00     0.062 A 
HETATM   24  N   UNL     1     -36.721  41.350 -57.050  1.00  0.00    -0.242 NA
HETATM   25  N   UNL     1     -34.915  42.335 -56.221  1.00  0.00    -0.349 N 
HETATM   26  C   UNL     1     -35.555  42.293 -53.771  1.00  0.00     0.033 A 
HETATM   27  H   UNL     1     -34.007  42.778 -56.196  1.00  0.00     0.167 HD
HETATM   28  C   UNL     1     -35.558  41.887 -57.340  1.00  0.00     0.208 A 
HETATM   29  C   UNL     1     -36.600  41.865 -52.944  1.00  0.00     0.019 A 
ENDBRANCH  17  20
ENDBRANCH  13  16
ENDBRANCH   3  12
BRANCH   1  30
HETATM   30  C   UNL     1     -41.059  37.114 -46.036  1.00  0.00     0.193 C 
BRANCH  30  31
HETATM   31  C   UNL     1     -41.110  38.469 -45.368  1.00  0.00    -0.038 A 
HETATM   32  C   UNL     1     -40.794  38.605 -44.008  1.00  0.00     0.009 A 
HETATM   33  C   UNL     1     -40.848  39.854 -43.389  1.00  0.00     0.001 A 
HETATM   34  C   UNL     1     -41.225  40.979 -44.121  1.00  0.00     0.000 A 
HETATM   35  C   UNL     1     -41.554  40.855 -45.470  1.00  0.00     0.001 A 
HETATM   36  C   UNL     1     -41.502  39.605 -46.090  1.00  0.00     0.009 A 
ENDBRANCH  30  31
ENDBRANCH   1  30
TORSDOF 5
ENDMDL
MODEL 10
REMARK VINA RESULT:      -8.1      5.069      9.118
REMARK  5 active torsions:
REMARK  status: ('A' for Active; 'I' for Inactive)
REMARK    1  A    between atoms: C_4  and  C_5 
REMARK    2  A    between atoms: C_5  and  N_6 
REMARK    3  A    between atoms: C_8  and  C_9 
REMARK       I    between atoms: C_9  and  N_10 
REMARK    4  A    between atoms: N_10  and  N_11 
REMARK       I    between atoms: N_11  and  C_12 
REMARK    5  A    between atoms: C_12  and  C_13 
ROOT
HETATM    1  N   UNL     1     -43.383  57.568 -55.326  1.00  0.00    -0.229 N 
HETATM    2  N   UNL     1     -43.849  58.078 -54.133  1.00  0.00    -0.163 NA
HETATM    3  C   UNL     1     -43.701  57.376 -53.048  1.00  0.00     0.157 A 
HETATM    4  C   UNL     1     -43.085  56.041 -53.015  1.00  0.00     0.016 A 
HETATM    5  C   UNL     1     -42.621  55.532 -54.223  1.00  0.00     0.046 A 
HETATM    6  C   UNL     1     -42.760  56.329 -55.456  1.00  0.00     0.275 A 
HETATM    7  O   UNL     1     -42.347  55.871 -56.518  1.00  0.00    -0.266 OA
HETATM    8  C   UNL     1     -42.977  55.270 -51.850  1.00  0.00     0.015 A 
HETATM    9  C   UNL     1     -42.394  53.999 -51.903  1.00  0.00     0.001 A 
HETATM   10  C   UNL     1     -41.924  53.494 -53.113  1.00  0.00     0.001 A 
HETATM   11  C   UNL     1     -42.037  54.258 -54.274  1.00  0.00     0.018 A 
ENDROOT
BRANCH   3  12
HETATM   12  C   UNL     1     -44.253  57.999 -51.775  1.00  0.00     0.291 C 
HETATM   13  N   UNL     1     -43.535  59.096 -51.358  1.00  0.00    -0.262 N 
HETATM   14  H   UNL     1     -42.616  59.311 -51.749  1.00  0.00     0.190 HD
HETATM   15  O   UNL     1     -45.242  57.546 -51.217  1.00  0.00    -0.264 OA
BRANCH  13  16
HETATM   16  N   UNL     1     -43.888  59.731 -50.165  1.00  0.00    -0.263 N 
HETATM   17  C   UNL     1     -44.581  60.922 -50.251  1.00  0.00     0.270 C 
HETATM   18  O   UNL     1     -44.904  61.421 -51.328  1.00  0.00    -0.266 OA
HETATM   19  H   UNL     1     -43.445  59.390 -49.315  1.00  0.00     0.190 HD
BRANCH  17  20
HETATM   20  C   UNL     1     -44.913  61.603 -48.970  1.00  0.00     0.036 A 
HETATM   21  C   UNL     1     -44.533  62.932 -48.724  1.00  0.00     0.051 A 
HETATM   22  C   UNL     1     -44.856  63.499 -47.483  1.00  0.00     0.085 A 
HETATM   23  C   UNL     1     -45.531  62.740 -46.533  1.00  0.00     0.062 A 
HETATM   24  N   UNL     1     -44.596  64.761 -47.008  1.00  0.00    -0.242 NA
HETATM   25  N   UNL     1     -45.672  63.588 -45.463  1.00  0.00    -0.349 N 
HETATM   26  C   UNL     1     -45.915  61.416 -46.741  1.00  0.00     0.033 A 
HETATM   27  H   UNL     1     -46.116  63.367 -44.583  1.00  0.00     0.167 HD
HETATM   28  C   UNL     1     -45.096  64.782 -45.793  1.00  0.00     0.208 A 
HETATM   29  C   UNL     1     -45.585  60.861 -47.984  1.00  0.00     0.019 A 
ENDBRANCH  17  20
ENDBRANCH  13  16
ENDBRANCH   3  12
BRANCH   1  30
HETATM   30  C   UNL     1     -43.529  58.423 -56.500  1.00  0.00     0.193 C 
BRANCH  30  31
HETATM   31  C   UNL     1     -44.739  58.058 -57.330  1.00  0.00    -0.038 A 
HETATM   32  C   UNL     1     -44.585  57.418 -58.568  1.00  0.00     0.009 A 
HETATM   33  C   UNL     1     -45.701  57.087 -59.338  1.00  0.00     0.001 A 
HETATM   34  C   UNL     1     -46.980  57.400 -58.881  1.00  0.00     0.000 A 
HETATM   35  C   UNL     1     -47.145  58.048 -57.658  1.00  0.00     0.001 A 
HETATM   36  C   UNL     1     -46.029  58.381 -56.889  1.00  0.00     0.009 A 
ENDBRANCH  30  31
ENDBRANCH   1  30
TORSDOF 5
ENDMDL
