MODEL 1
REMARK VINA RESULT:      -9.0      0.000      0.000
REMARK  6 active torsions:
REMARK  status: ('A' for Active; 'I' for Inactive)
REMARK    1  A    between atoms: C_5  and  C_6 
REMARK    2  A    between atoms: C_12  and  C_13 
REMARK       I    between atoms: C_13  and  N_14 
REMARK    3  A    between atoms: N_14  and  C_15 
REMARK    4  A    between atoms: C_18  and  C_19 
REMARK    5  A    between atoms: C_19  and  O_20 
REMARK    6  A    between atoms: C_25  and  C_26 
ROOT
HETATM    1  C   UNL     1     -40.724  56.283 -53.510  1.00  0.00     0.097 C 
HETATM    2  N   UNL     1     -41.683  56.807 -54.504  1.00  0.00    -0.268 NA
HETATM    3  C   UNL     1     -41.860  58.164 -54.506  1.00  0.00     0.118 C 
HETATM    4  N   UNL     1     -41.532  58.910 -53.394  1.00  0.00    -0.245 N 
HETATM    5  N   UNL     1     -41.611  60.232 -53.589  1.00  0.00    -0.182 NA
HETATM    6  C   UNL     1     -42.148  60.328 -54.807  1.00  0.00     0.159 C 
HETATM    7  C   UNL     1     -42.349  59.068 -55.431  1.00  0.00     0.091 C 
HETATM    8  C   UNL     1     -41.062  58.366 -52.131  1.00  0.00     0.221 C 
HETATM    9  C   UNL     1     -41.126  56.825 -52.135  1.00  0.00     0.061 C 
HETATM   10  H   UNL     1     -42.529  56.231 -54.536  1.00  0.00     0.130 HD
ENDROOT
BRANCH   7  11
HETATM   11  C   UNL     1     -42.923  58.879 -56.755  1.00  0.00     0.261 C 
HETATM   12  N   UNL     1     -43.858  57.867 -56.833  1.00  0.00    -0.323 N 
HETATM   13  H   UNL     1     -43.940  57.287 -56.006  1.00  0.00     0.169 HD
HETATM   14  O   UNL     1     -42.583  59.613 -57.676  1.00  0.00    -0.267 OA
BRANCH  12  15
HETATM   15  C   UNL     1     -44.752  57.615 -57.894  1.00  0.00     0.035 A 
HETATM   16  C   UNL     1     -46.070  58.073 -57.928  1.00  0.00     0.030 A 
HETATM   17  C   UNL     1     -46.931  57.717 -58.974  1.00  0.00     0.012 A 
HETATM   18  C   UNL     1     -46.498  56.885 -60.011  1.00  0.00    -0.030 A 
HETATM   19  C   UNL     1     -45.161  56.455 -59.991  1.00  0.00     0.012 A 
HETATM   20  C   UNL     1     -44.298  56.817 -58.949  1.00  0.00     0.030 A 
BRANCH  18  21
HETATM   21  C   UNL     1     -47.394  56.436 -61.148  1.00  0.00     0.147 C 
HETATM   22  C   UNL     1     -48.206  57.525 -61.844  1.00  0.00     0.044 C 
BRANCH  21  23
HETATM   23  O   UNL     1     -46.605  55.784 -62.144  1.00  0.00    -0.391 OA
HETATM   24  H   UNL     1     -46.912  56.101 -63.010  1.00  0.00     0.210 HD
ENDBRANCH  21  23
ENDBRANCH  18  21
ENDBRANCH  12  15
ENDBRANCH   7  11
BRANCH   1  25
HETATM   25  C   UNL     1     -40.614  54.776 -53.634  1.00  0.00    -0.040 A 
HETATM   26  C   UNL     1     -40.440  54.220 -54.914  1.00  0.00     0.009 A 
HETATM   27  C   UNL     1     -40.235  52.848 -55.086  1.00  0.00     0.007 A 
HETATM   28  C   UNL     1     -40.213  51.993 -53.981  1.00  0.00    -0.062 A 
HETATM   29  C   UNL     1     -39.910  50.534 -54.155  1.00  0.00     0.048 C 
HETATM   30  C   UNL     1     -40.401  52.533 -52.706  1.00  0.00     0.007 A 
HETATM   31  C   UNL     1     -40.609  53.906 -52.535  1.00  0.00     0.009 A 
ENDBRANCH   1  25
BRANCH   8  32
HETATM   32  C   UNL     1     -41.875  58.897 -50.969  1.00  0.00     0.409 C 
HETATM   33  F   UNL     1     -43.204  58.725 -51.157  1.00  0.00    -0.169 F 
HETATM   34  F   UNL     1     -41.555  58.205 -49.841  1.00  0.00    -0.169 F 
HETATM   35  F   UNL     1     -41.648  60.194 -50.690  1.00  0.00    -0.169 F 
ENDBRANCH   8  32
TORSDOF 6
ENDMDL
MODEL 2
REMARK VINA RESULT:      -8.8      3.467      4.641
REMARK  6 active torsions:
REMARK  status: ('A' for Active; 'I' for Inactive)
REMARK    1  A    between atoms: C_5  and  C_6 
REMARK    2  A    between atoms: C_12  and  C_13 
REMARK       I    between atoms: C_13  and  N_14 
REMARK    3  A    between atoms: N_14  and  C_15 
REMARK    4  A    between atoms: C_18  and  C_19 
REMARK    5  A    between atoms: C_19  and  O_20 
REMARK    6  A    between atoms: C_25  and  C_26 
ROOT
HETATM    1  C   UNL     1     -41.385  56.806 -53.273  1.00  0.00     0.097 C 
HETATM    2  N   UNL     1     -41.746  57.502 -54.526  1.00  0.00    -0.268 NA
HETATM    3  C   UNL     1     -42.152  58.801 -54.391  1.00  0.00     0.118 C 
HETATM    4  N   UNL     1     -42.619  59.263 -53.178  1.00  0.00    -0.245 N 
HETATM    5  N   UNL     1     -42.835  60.583 -53.152  1.00  0.00    -0.182 NA
HETATM    6  C   UNL     1     -42.647  60.949 -54.421  1.00  0.00     0.159 C 
HETATM    7  C   UNL     1     -42.236  59.876 -55.256  1.00  0.00     0.091 C 
HETATM    8  C   UNL     1     -42.801  58.449 -51.988  1.00  0.00     0.221 C 
HETATM    9  C   UNL     1     -42.554  56.958 -52.295  1.00  0.00     0.061 C 
HETATM   10  H   UNL     1     -42.315  56.900 -55.128  1.00  0.00     0.130 HD
ENDROOT
BRANCH   7  11
HETATM   11  C   UNL     1     -41.967  59.991 -56.682  1.00  0.00     0.261 C 
HETATM   12  N   UNL     1     -41.829  61.287 -57.136  1.00  0.00    -0.323 N 
HETATM   13  H   UNL     1     -42.062  62.009 -56.464  1.00  0.00     0.169 HD
HETATM   14  O   UNL     1     -41.853  58.977 -57.363  1.00  0.00    -0.267 OA
BRANCH  12  15
HETATM   15  C   UNL     1     -41.326  61.701 -58.387  1.00  0.00     0.035 A 
HETATM   16  C   UNL     1     -40.128  62.396 -58.553  1.00  0.00     0.030 A 
HETATM   17  C   UNL     1     -39.727  62.852 -59.815  1.00  0.00     0.012 A 
HETATM   18  C   UNL     1     -40.520  62.630 -60.946  1.00  0.00    -0.030 A 
HETATM   19  C   UNL     1     -41.707  61.900 -60.779  1.00  0.00     0.012 A 
HETATM   20  C   UNL     1     -42.105  61.438 -59.518  1.00  0.00     0.030 A 
BRANCH  18  21
HETATM   21  C   UNL     1     -40.157  63.132 -62.329  1.00  0.00     0.147 C 
HETATM   22  C   UNL     1     -38.682  63.441 -62.574  1.00  0.00     0.044 C 
BRANCH  21  23
HETATM   23  O   UNL     1     -40.563  62.170 -63.303  1.00  0.00    -0.391 OA
HETATM   24  H   UNL     1     -40.169  61.318 -63.051  1.00  0.00     0.210 HD
ENDBRANCH  21  23
ENDBRANCH  18  21
ENDBRANCH  12  15
ENDBRANCH   7  11
BRANCH   1  25
HETATM   25  C   UNL     1     -40.938  55.388 -53.573  1.00  0.00    -0.040 A 
HETATM   26  C   UNL     1     -40.994  54.435 -52.541  1.00  0.00     0.009 A 
HETATM   27  C   UNL     1     -40.690  53.092 -52.778  1.00  0.00     0.007 A 
HETATM   28  C   UNL     1     -40.308  52.669 -54.053  1.00  0.00    -0.062 A 
HETATM   29  C   UNL     1     -40.061  51.215 -54.330  1.00  0.00     0.048 C 
HETATM   30  C   UNL     1     -40.233  53.611 -55.083  1.00  0.00     0.007 A 
HETATM   31  C   UNL     1     -40.535  54.956 -54.845  1.00  0.00     0.009 A 
ENDBRANCH   1  25
BRANCH   8  32
HETATM   32  C   UNL     1     -44.192  58.618 -51.415  1.00  0.00     0.409 C 
HETATM   33  F   UNL     1     -45.125  58.775 -52.383  1.00  0.00    -0.169 F 
HETATM   34  F   UNL     1     -44.537  57.494 -50.729  1.00  0.00    -0.169 F 
HETATM   35  F   UNL     1     -44.305  59.639 -50.545  1.00  0.00    -0.169 F 
ENDBRANCH   8  32
TORSDOF 6
ENDMDL
MODEL 3
REMARK VINA RESULT:      -8.5      3.497      8.515
REMARK  6 active torsions:
REMARK  status: ('A' for Active; 'I' for Inactive)
REMARK    1  A    between atoms: C_5  and  C_6 
REMARK    2  A    between atoms: C_12  and  C_13 
REMARK       I    between atoms: C_13  and  N_14 
REMARK    3  A    between atoms: N_14  and  C_15 
REMARK    4  A    between atoms: C_18  and  C_19 
REMARK    5  A    between atoms: C_19  and  O_20 
REMARK    6  A    between atoms: C_25  and  C_26 
ROOT
HETATM    1  C   UNL     1     -44.866  58.616 -58.086  1.00  0.00     0.097 C 
HETATM    2  N   UNL     1     -43.987  57.562 -57.538  1.00  0.00    -0.268 NA
HETATM    3  C   UNL     1     -43.079  57.971 -56.599  1.00  0.00     0.118 C 
HETATM    4  N   UNL     1     -42.712  59.298 -56.517  1.00  0.00    -0.245 N 
HETATM    5  N   UNL     1     -41.939  59.579 -55.461  1.00  0.00    -0.182 NA
HETATM    6  C   UNL     1     -41.682  58.376 -54.944  1.00  0.00     0.159 C 
HETATM    7  C   UNL     1     -42.349  57.321 -55.621  1.00  0.00     0.091 C 
HETATM    8  C   UNL     1     -43.159  60.346 -57.418  1.00  0.00     0.221 C 
HETATM    9  C   UNL     1     -43.978  59.759 -58.586  1.00  0.00     0.061 C 
HETATM   10  H   UNL     1     -43.638  56.952 -58.283  1.00  0.00     0.130 HD
ENDROOT
BRANCH   7  11
HETATM   11  C   UNL     1     -42.244  55.912 -55.272  1.00  0.00     0.261 C 
HETATM   12  N   UNL     1     -41.034  55.551 -54.716  1.00  0.00    -0.323 N 
HETATM   13  H   UNL     1     -40.314  56.264 -54.737  1.00  0.00     0.169 HD
HETATM   14  O   UNL     1     -43.200  55.167 -55.455  1.00  0.00    -0.267 OA
BRANCH  12  15
HETATM   15  C   UNL     1     -40.727  54.341 -54.059  1.00  0.00     0.035 A 
HETATM   16  C   UNL     1     -40.782  54.170 -52.675  1.00  0.00     0.030 A 
HETATM   17  C   UNL     1     -40.384  52.966 -52.079  1.00  0.00     0.012 A 
HETATM   18  C   UNL     1     -39.913  51.902 -52.854  1.00  0.00    -0.030 A 
HETATM   19  C   UNL     1     -39.893  52.066 -54.248  1.00  0.00     0.012 A 
HETATM   20  C   UNL     1     -40.297  53.267 -54.845  1.00  0.00     0.030 A 
BRANCH  18  21
HETATM   21  C   UNL     1     -39.434  50.590 -52.264  1.00  0.00     0.147 C 
HETATM   22  C   UNL     1     -39.845  50.305 -50.822  1.00  0.00     0.044 C 
BRANCH  21  23
HETATM   23  O   UNL     1     -39.905  49.509 -53.069  1.00  0.00    -0.391 OA
HETATM   24  H   UNL     1     -39.137  48.956 -53.291  1.00  0.00     0.210 HD
ENDBRANCH  21  23
ENDBRANCH  18  21
ENDBRANCH  12  15
ENDBRANCH   7  11
BRANCH   1  25
HETATM   25  C   UNL     1     -45.829  58.019 -59.095  1.00  0.00    -0.040 A 
HETATM   26  C   UNL     1     -46.722  58.879 -59.759  1.00  0.00     0.009 A 
HETATM   27  C   UNL     1     -47.564  58.408 -60.769  1.00  0.00     0.007 A 
HETATM   28  C   UNL     1     -47.546  57.059 -61.133  1.00  0.00    -0.062 A 
HETATM   29  C   UNL     1     -48.390  56.568 -62.272  1.00  0.00     0.048 C 
HETATM   30  C   UNL     1     -46.675  56.193 -60.468  1.00  0.00     0.007 A 
HETATM   31  C   UNL     1     -45.832  56.664 -59.455  1.00  0.00     0.009 A 
ENDBRANCH   1  25
BRANCH   8  32
HETATM   32  C   UNL     1     -41.988  61.129 -57.974  1.00  0.00     0.409 C 
HETATM   33  F   UNL     1     -40.875  60.367 -58.087  1.00  0.00    -0.169 F 
HETATM   34  F   UNL     1     -42.287  61.558 -59.231  1.00  0.00    -0.169 F 
HETATM   35  F   UNL     1     -41.680  62.230 -57.264  1.00  0.00    -0.169 F 
ENDBRANCH   8  32
TORSDOF 6
ENDMDL
MODEL 4
REMARK VINA RESULT:      -8.4      4.651      9.415
REMARK  6 active torsions:
REMARK  status: ('A' for Active; 'I' for Inactive)
REMARK    1  A    between atoms: C_5  and  C_6 
REMARK    2  A    between atoms: C_12  and  C_13 
REMARK       I    between atoms: C_13  and  N_14 
REMARK    3  A    between atoms: N_14  and  C_15 
REMARK    4  A    between atoms: C_18  and  C_19 
REMARK    5  A    between atoms: C_19  and  O_20 
REMARK    6  A    between atoms: C_25  and  C_26 
ROOT
HETATM    1  C   UNL     1     -42.671  58.502 -59.763  1.00  0.00     0.097 C 
HETATM    2  N   UNL     1     -42.675  57.909 -58.409  1.00  0.00    -0.268 NA
HETATM    3  C   UNL     1     -43.187  56.644 -58.314  1.00  0.00     0.118 C 
HETATM    4  N   UNL     1     -44.032  56.159 -59.290  1.00  0.00    -0.245 N 
HETATM    5  N   UNL     1     -44.332  54.862 -59.147  1.00  0.00    -0.182 NA
HETATM    6  C   UNL     1     -43.788  54.551 -57.969  1.00  0.00     0.159 C 
HETATM    7  C   UNL     1     -43.072  55.628 -57.382  1.00  0.00     0.091 C 
HETATM    8  C   UNL     1     -44.516  56.919 -60.429  1.00  0.00     0.221 C 
HETATM    9  C   UNL     1     -44.090  58.398 -60.328  1.00  0.00     0.061 C 
HETATM   10  H   UNL     1     -42.992  58.589 -57.712  1.00  0.00     0.130 HD
ENDROOT
BRANCH   7  11
HETATM   11  C   UNL     1     -42.387  55.568 -56.100  1.00  0.00     0.261 C 
HETATM   12  N   UNL     1     -42.567  54.387 -55.410  1.00  0.00    -0.323 N 
HETATM   13  H   UNL     1     -43.255  53.754 -55.802  1.00  0.00     0.169 HD
HETATM   14  O   UNL     1     -41.698  56.514 -55.734  1.00  0.00    -0.267 OA
BRANCH  12  15
HETATM   15  C   UNL     1     -41.845  53.941 -54.283  1.00  0.00     0.035 A 
HETATM   16  C   UNL     1     -40.825  52.990 -54.338  1.00  0.00     0.030 A 
HETATM   17  C   UNL     1     -40.203  52.529 -53.170  1.00  0.00     0.012 A 
HETATM   18  C   UNL     1     -40.592  53.003 -51.914  1.00  0.00    -0.030 A 
HETATM   19  C   UNL     1     -41.595  53.985 -51.866  1.00  0.00     0.012 A 
HETATM   20  C   UNL     1     -42.212  54.451 -53.034  1.00  0.00     0.030 A 
BRANCH  18  21
HETATM   21  C   UNL     1     -39.984  52.515 -50.614  1.00  0.00     0.147 C 
HETATM   22  C   UNL     1     -40.483  53.185 -49.337  1.00  0.00     0.044 C 
BRANCH  21  23
HETATM   23  O   UNL     1     -40.212  51.112 -50.483  1.00  0.00    -0.391 OA
HETATM   24  H   UNL     1     -40.024  50.872 -49.559  1.00  0.00     0.210 HD
ENDBRANCH  21  23
ENDBRANCH  18  21
ENDBRANCH  12  15
ENDBRANCH   7  11
BRANCH   1  25
HETATM   25  C   UNL     1     -42.061  59.890 -59.722  1.00  0.00    -0.040 A 
HETATM   26  C   UNL     1     -41.640  60.401 -58.481  1.00  0.00     0.009 A 
HETATM   27  C   UNL     1     -40.983  61.631 -58.391  1.00  0.00     0.007 A 
HETATM   28  C   UNL     1     -40.742  62.390 -59.538  1.00  0.00    -0.062 A 
HETATM   29  C   UNL     1     -39.965  63.670 -59.453  1.00  0.00     0.048 C 
HETATM   30  C   UNL     1     -41.172  61.899 -60.774  1.00  0.00     0.007 A 
HETATM   31  C   UNL     1     -41.831  60.669 -60.865  1.00  0.00     0.009 A 
ENDBRANCH   1  25
BRANCH   8  32
HETATM   32  C   UNL     1     -46.024  56.840 -60.542  1.00  0.00     0.409 C 
HETATM   33  F   UNL     1     -46.422  55.798 -61.309  1.00  0.00    -0.169 F 
HETATM   34  F   UNL     1     -46.559  56.634 -59.307  1.00  0.00    -0.169 F 
HETATM   35  F   UNL     1     -46.596  57.962 -61.017  1.00  0.00    -0.169 F 
ENDBRANCH   8  32
TORSDOF 6
ENDMDL
MODEL 5
REMARK VINA RESULT:      -8.3      3.114      7.718
REMARK  6 active torsions:
REMARK  status: ('A' for Active; 'I' for Inactive)
REMARK    1  A    between atoms: C_5  and  C_6 
REMARK    2  A    between atoms: C_12  and  C_13 
REMARK       I    between atoms: C_13  and  N_14 
REMARK    3  A    between atoms: N_14  and  C_15 
REMARK    4  A    between atoms: C_18  and  C_19 
REMARK    5  A    between atoms: C_19  and  O_20 
REMARK    6  A    between atoms: C_25  and  C_26 
ROOT
HETATM    1  C   UNL     1     -45.125  58.582 -55.373  1.00  0.00     0.097 C 
HETATM    2  N   UNL     1     -44.239  57.585 -54.737  1.00  0.00    -0.268 NA
HETATM    3  C   UNL     1     -43.868  57.854 -53.448  1.00  0.00     0.118 C 
HETATM    4  N   UNL     1     -43.932  59.141 -52.958  1.00  0.00    -0.245 N 
HETATM    5  N   UNL     1     -43.686  59.232 -51.646  1.00  0.00    -0.182 NA
HETATM    6  C   UNL     1     -43.307  57.994 -51.321  1.00  0.00     0.159 C 
HETATM    7  C   UNL     1     -43.378  57.084 -52.408  1.00  0.00     0.091 C 
HETATM    8  C   UNL     1     -44.304  60.312 -53.733  1.00  0.00     0.221 C 
HETATM    9  C   UNL     1     -44.468  59.958 -55.225  1.00  0.00     0.061 C 
HETATM   10  H   UNL     1     -43.499  57.290 -55.379  1.00  0.00     0.130 HD
ENDROOT
BRANCH   7  11
HETATM   11  C   UNL     1     -43.018  55.676 -52.337  1.00  0.00     0.261 C 
HETATM   12  N   UNL     1     -42.107  55.270 -53.291  1.00  0.00    -0.323 N 
HETATM   13  H   UNL     1     -41.896  55.953 -54.009  1.00  0.00     0.169 HD
HETATM   14  O   UNL     1     -43.499  54.969 -51.458  1.00  0.00    -0.267 OA
BRANCH  12  15
HETATM   15  C   UNL     1     -41.391  54.055 -53.320  1.00  0.00     0.035 A 
HETATM   16  C   UNL     1     -41.433  53.152 -54.383  1.00  0.00     0.030 A 
HETATM   17  C   UNL     1     -40.763  51.924 -54.314  1.00  0.00     0.012 A 
HETATM   18  C   UNL     1     -40.036  51.564 -53.175  1.00  0.00    -0.030 A 
HETATM   19  C   UNL     1     -39.968  52.491 -52.122  1.00  0.00     0.012 A 
HETATM   20  C   UNL     1     -40.632  53.722 -52.194  1.00  0.00     0.030 A 
BRANCH  18  21
HETATM   21  C   UNL     1     -39.323  50.234 -53.027  1.00  0.00     0.147 C 
HETATM   22  C   UNL     1     -39.610  49.447 -51.751  1.00  0.00     0.044 C 
BRANCH  21  23
HETATM   23  O   UNL     1     -39.652  49.395 -54.135  1.00  0.00    -0.391 OA
HETATM   24  H   UNL     1     -39.424  49.882 -54.945  1.00  0.00     0.210 HD
ENDBRANCH  21  23
ENDBRANCH  18  21
ENDBRANCH  12  15
ENDBRANCH   7  11
BRANCH   1  25
HETATM   25  C   UNL     1     -45.469  58.148 -56.785  1.00  0.00    -0.040 A 
HETATM   26  C   UNL     1     -44.456  57.580 -57.578  1.00  0.00     0.009 A 
HETATM   27  C   UNL     1     -44.732  57.072 -58.849  1.00  0.00     0.007 A 
HETATM   28  C   UNL     1     -46.028  57.130 -59.369  1.00  0.00    -0.062 A 
HETATM   29  C   UNL     1     -46.342  56.511 -60.698  1.00  0.00     0.048 C 
HETATM   30  C   UNL     1     -47.038  57.708 -58.596  1.00  0.00     0.007 A 
HETATM   31  C   UNL     1     -46.762  58.220 -57.323  1.00  0.00     0.009 A 
ENDBRANCH   1  25
BRANCH   8  32
HETATM   32  C   UNL     1     -43.276  61.415 -53.592  1.00  0.00     0.409 C 
HETATM   33  F   UNL     1     -42.010  60.937 -53.626  1.00  0.00    -0.169 F 
HETATM   34  F   UNL     1     -43.388  62.275 -54.640  1.00  0.00    -0.169 F 
HETATM   35  F   UNL     1     -43.421  62.158 -52.478  1.00  0.00    -0.169 F 
ENDBRANCH   8  32
TORSDOF 6
ENDMDL
MODEL 6
REMARK VINA RESULT:      -8.2      4.198      7.431
REMARK  6 active torsions:
REMARK  status: ('A' for Active; 'I' for Inactive)
REMARK    1  A    between atoms: C_5  and  C_6 
REMARK    2  A    between atoms: C_12  and  C_13 
REMARK       I    between atoms: C_13  and  N_14 
REMARK    3  A    between atoms: N_14  and  C_15 
REMARK    4  A    between atoms: C_18  and  C_19 
REMARK    5  A    between atoms: C_19  and  O_20 
REMARK    6  A    between atoms: C_25  and  C_26 
ROOT
HETATM    1  C   UNL     1     -43.134  55.543 -55.977  1.00  0.00     0.097 C 
HETATM    2  N   UNL     1     -43.401  56.922 -55.519  1.00  0.00    -0.268 NA
HETATM    3  C   UNL     1     -44.198  57.677 -56.334  1.00  0.00     0.118 C 
HETATM    4  N   UNL     1     -44.351  57.343 -57.663  1.00  0.00    -0.245 N 
HETATM    5  N   UNL     1     -45.274  58.074 -58.300  1.00  0.00    -0.182 NA
HETATM    6  C   UNL     1     -45.609  58.997 -57.397  1.00  0.00     0.159 C 
HETATM    7  C   UNL     1     -44.956  58.819 -56.148  1.00  0.00     0.091 C 
HETATM    8  C   UNL     1     -43.660  56.257 -58.337  1.00  0.00     0.221 C 
HETATM    9  C   UNL     1     -42.604  55.617 -57.413  1.00  0.00     0.061 C 
HETATM   10  H   UNL     1     -42.546  57.364 -55.170  1.00  0.00     0.130 HD
ENDROOT
BRANCH   7  11
HETATM   11  C   UNL     1     -45.131  59.682 -54.990  1.00  0.00     0.261 C 
HETATM   12  N   UNL     1     -44.869  59.074 -53.779  1.00  0.00    -0.323 N 
HETATM   13  H   UNL     1     -44.720  58.072 -53.819  1.00  0.00     0.169 HD
HETATM   14  O   UNL     1     -45.456  60.854 -55.148  1.00  0.00    -0.267 OA
BRANCH  12  15
HETATM   15  C   UNL     1     -44.709  59.704 -52.527  1.00  0.00     0.035 A 
HETATM   16  C   UNL     1     -43.479  60.116 -52.014  1.00  0.00     0.030 A 
HETATM   17  C   UNL     1     -43.378  60.660 -50.727  1.00  0.00     0.012 A 
HETATM   18  C   UNL     1     -44.508  60.801 -49.916  1.00  0.00    -0.030 A 
HETATM   19  C   UNL     1     -45.749  60.417 -50.449  1.00  0.00     0.012 A 
HETATM   20  C   UNL     1     -45.851  59.879 -51.739  1.00  0.00     0.030 A 
BRANCH  18  21
HETATM   21  C   UNL     1     -44.457  61.347 -48.503  1.00  0.00     0.147 C 
HETATM   22  C   UNL     1     -44.923  62.789 -48.315  1.00  0.00     0.044 C 
BRANCH  21  23
HETATM   23  O   UNL     1     -45.248  60.523 -47.647  1.00  0.00    -0.391 OA
HETATM   24  H   UNL     1     -44.653  59.871 -47.239  1.00  0.00     0.210 HD
ENDBRANCH  21  23
ENDBRANCH  18  21
ENDBRANCH  12  15
ENDBRANCH   7  11
BRANCH   1  25
HETATM   25  C   UNL     1     -42.257  54.819 -54.973  1.00  0.00    -0.040 A 
HETATM   26  C   UNL     1     -42.762  54.602 -53.678  1.00  0.00     0.009 A 
HETATM   27  C   UNL     1     -42.045  53.858 -52.738  1.00  0.00     0.007 A 
HETATM   28  C   UNL     1     -40.796  53.322 -53.063  1.00  0.00    -0.062 A 
HETATM   29  C   UNL     1     -40.063  52.454 -52.084  1.00  0.00     0.048 C 
HETATM   30  C   UNL     1     -40.278  53.546 -54.341  1.00  0.00     0.007 A 
HETATM   31  C   UNL     1     -40.995  54.294 -55.282  1.00  0.00     0.009 A 
ENDBRANCH   1  25
BRANCH   8  32
HETATM   32  C   UNL     1     -42.987  56.737 -59.606  1.00  0.00     0.409 C 
HETATM   33  F   UNL     1     -42.379  57.935 -59.437  1.00  0.00    -0.169 F 
HETATM   34  F   UNL     1     -42.010  55.858 -59.960  1.00  0.00    -0.169 F 
HETATM   35  F   UNL     1     -43.815  56.826 -60.664  1.00  0.00    -0.169 F 
ENDBRANCH   8  32
TORSDOF 6
ENDMDL
MODEL 7
REMARK VINA RESULT:      -8.2      3.475      7.466
REMARK  6 active torsions:
REMARK  status: ('A' for Active; 'I' for Inactive)
REMARK    1  A    between atoms: C_5  and  C_6 
REMARK    2  A    between atoms: C_12  and  C_13 
REMARK       I    between atoms: C_13  and  N_14 
REMARK    3  A    between atoms: N_14  and  C_15 
REMARK    4  A    between atoms: C_18  and  C_19 
REMARK    5  A    between atoms: C_19  and  O_20 
REMARK    6  A    between atoms: C_25  and  C_26 
ROOT
HETATM    1  C   UNL     1     -43.518  59.051 -55.134  1.00  0.00     0.097 C 
HETATM    2  N   UNL     1     -43.053  57.877 -54.367  1.00  0.00    -0.268 NA
HETATM    3  C   UNL     1     -43.496  57.794 -53.075  1.00  0.00     0.118 C 
HETATM    4  N   UNL     1     -43.945  58.921 -52.420  1.00  0.00    -0.245 N 
HETATM    5  N   UNL     1     -44.488  58.667 -51.223  1.00  0.00    -0.182 NA
HETATM    6  C   UNL     1     -44.241  57.368 -51.046  1.00  0.00     0.159 C 
HETATM    7  C   UNL     1     -43.603  56.763 -52.160  1.00  0.00     0.091 C 
HETATM    8  C   UNL     1     -43.928  60.267 -52.964  1.00  0.00     0.221 C 
HETATM    9  C   UNL     1     -43.192  60.306 -54.319  1.00  0.00     0.061 C 
HETATM   10  H   UNL     1     -42.055  57.708 -54.525  1.00  0.00     0.130 HD
ENDROOT
BRANCH   7  11
HETATM   11  C   UNL     1     -43.213  55.363 -52.235  1.00  0.00     0.261 C 
HETATM   12  N   UNL     1     -42.213  55.096 -53.148  1.00  0.00    -0.323 N 
HETATM   13  H   UNL     1     -41.960  55.868 -53.754  1.00  0.00     0.169 HD
HETATM   14  O   UNL     1     -43.748  54.542 -51.497  1.00  0.00    -0.267 OA
BRANCH  12  15
HETATM   15  C   UNL     1     -41.465  53.906 -53.266  1.00  0.00     0.035 A 
HETATM   16  C   UNL     1     -41.517  53.060 -54.375  1.00  0.00     0.030 A 
HETATM   17  C   UNL     1     -40.811  51.851 -54.394  1.00  0.00     0.012 A 
HETATM   18  C   UNL     1     -40.038  51.451 -53.300  1.00  0.00    -0.030 A 
HETATM   19  C   UNL     1     -39.961  52.322 -52.201  1.00  0.00     0.012 A 
HETATM   20  C   UNL     1     -40.661  53.535 -52.184  1.00  0.00     0.030 A 
BRANCH  18  21
HETATM   21  C   UNL     1     -39.283  50.138 -53.248  1.00  0.00     0.147 C 
HETATM   22  C   UNL     1     -39.542  49.254 -52.030  1.00  0.00     0.044 C 
BRANCH  21  23
HETATM   23  O   UNL     1     -39.589  49.370 -54.412  1.00  0.00    -0.391 OA
HETATM   24  H   UNL     1     -39.455  49.946 -55.183  1.00  0.00     0.210 HD
ENDBRANCH  21  23
ENDBRANCH  18  21
ENDBRANCH  12  15
ENDBRANCH   7  11
BRANCH   1  25
HETATM   25  C   UNL     1     -42.968  59.003 -56.547  1.00  0.00    -0.040 A 
HETATM   26  C   UNL     1     -43.341  57.929 -57.375  1.00  0.00     0.009 A 
HETATM   27  C   UNL     1     -42.949  57.879 -58.714  1.00  0.00     0.007 A 
HETATM   28  C   UNL     1     -42.159  58.895 -59.259  1.00  0.00    -0.062 A 
HETATM   29  C   UNL     1     -41.806  58.884 -60.717  1.00  0.00     0.048 C 
HETATM   30  C   UNL     1     -41.769  59.958 -58.441  1.00  0.00     0.007 A 
HETATM   31  C   UNL     1     -42.161  60.008 -57.098  1.00  0.00     0.009 A 
ENDBRANCH   1  25
BRANCH   8  32
HETATM   32  C   UNL     1     -43.267  61.238 -52.009  1.00  0.00     0.409 C 
HETATM   33  F   UNL     1     -44.084  61.581 -50.986  1.00  0.00    -0.169 F 
HETATM   34  F   UNL     1     -42.177  60.647 -51.447  1.00  0.00    -0.169 F 
HETATM   35  F   UNL     1     -42.823  62.366 -52.595  1.00  0.00    -0.169 F 
ENDBRANCH   8  32
TORSDOF 6
ENDMDL
MODEL 8
REMARK VINA RESULT:      -8.1     16.759     19.041
REMARK  6 active torsions:
REMARK  status: ('A' for Active; 'I' for Inactive)
REMARK    1  A    between atoms: C_5  and  C_6 
REMARK    2  A    between atoms: C_12  and  C_13 
REMARK       I    between atoms: C_13  and  N_14 
REMARK    3  A    between atoms: N_14  and  C_15 
REMARK    4  A    between atoms: C_18  and  C_19 
REMARK    5  A    between atoms: C_19  and  O_20 
REMARK    6  A    between atoms: C_25  and  C_26 
ROOT
HETATM    1  C   UNL     1     -32.750  40.307 -54.390  1.00  0.00     0.097 C 
HETATM    2  N   UNL     1     -34.048  40.133 -55.075  1.00  0.00    -0.268 NA
HETATM    3  C   UNL     1     -35.086  40.876 -54.584  1.00  0.00     0.118 C 
HETATM    4  N   UNL     1     -35.038  41.379 -53.301  1.00  0.00    -0.245 N 
HETATM    5  N   UNL     1     -36.046  42.210 -53.009  1.00  0.00    -0.182 NA
HETATM    6  C   UNL     1     -36.837  42.116 -54.080  1.00  0.00     0.159 C 
HETATM    7  C   UNL     1     -36.305  41.281 -55.097  1.00  0.00     0.091 C 
HETATM    8  C   UNL     1     -33.975  41.125 -52.344  1.00  0.00     0.221 C 
HETATM    9  C   UNL     1     -32.975  40.086 -52.891  1.00  0.00     0.061 C 
HETATM   10  H   UNL     1     -34.235  39.143 -55.259  1.00  0.00     0.130 HD
ENDROOT
BRANCH   7  11
HETATM   11  C   UNL     1     -36.960  40.997 -56.365  1.00  0.00     0.261 C 
HETATM   12  N   UNL     1     -36.098  40.831 -57.429  1.00  0.00    -0.323 N 
HETATM   13  H   UNL     1     -35.127  41.056 -57.242  1.00  0.00     0.169 HD
HETATM   14  O   UNL     1     -38.181  40.896 -56.410  1.00  0.00    -0.267 OA
BRANCH  12  15
HETATM   15  C   UNL     1     -36.408  40.310 -58.703  1.00  0.00     0.035 A 
HETATM   16  C   UNL     1     -37.247  40.944 -59.620  1.00  0.00     0.030 A 
HETATM   17  C   UNL     1     -37.581  40.333 -60.836  1.00  0.00     0.012 A 
HETATM   18  C   UNL     1     -37.088  39.066 -61.163  1.00  0.00    -0.030 A 
HETATM   19  C   UNL     1     -36.215  38.448 -60.253  1.00  0.00     0.012 A 
HETATM   20  C   UNL     1     -35.876  39.062 -59.040  1.00  0.00     0.030 A 
BRANCH  18  21
HETATM   21  C   UNL     1     -37.443  38.339 -62.445  1.00  0.00     0.147 C 
HETATM   22  C   UNL     1     -38.864  37.789 -62.542  1.00  0.00     0.044 C 
BRANCH  21  23
HETATM   23  O   UNL     1     -37.243  39.214 -63.556  1.00  0.00    -0.391 OA
HETATM   24  H   UNL     1     -38.099  39.313 -64.005  1.00  0.00     0.210 HD
ENDBRANCH  21  23
ENDBRANCH  18  21
ENDBRANCH  12  15
ENDBRANCH   7  11
BRANCH   1  25
HETATM   25  C   UNL     1     -31.693  39.441 -55.047  1.00  0.00    -0.040 A 
HETATM   26  C   UNL     1     -31.104  39.894 -56.242  1.00  0.00     0.009 A 
HETATM   27  C   UNL     1     -30.057  39.192 -56.843  1.00  0.00     0.007 A 
HETATM   28  C   UNL     1     -29.578  38.010 -56.274  1.00  0.00    -0.062 A 
HETATM   29  C   UNL     1     -28.400  37.299 -56.872  1.00  0.00     0.048 C 
HETATM   30  C   UNL     1     -30.167  37.542 -55.096  1.00  0.00     0.007 A 
HETATM   31  C   UNL     1     -31.218  38.244 -54.494  1.00  0.00     0.009 A 
ENDBRANCH   1  25
BRANCH   8  32
HETATM   32  C   UNL     1     -34.530  40.636 -51.023  1.00  0.00     0.409 C 
HETATM   33  F   UNL     1     -33.553  40.220 -50.183  1.00  0.00    -0.169 F 
HETATM   34  F   UNL     1     -35.166  41.661 -50.392  1.00  0.00    -0.169 F 
HETATM   35  F   UNL     1     -35.438  39.649 -51.143  1.00  0.00    -0.169 F 
ENDBRANCH   8  32
TORSDOF 6
ENDMDL
MODEL 9
REMARK VINA RESULT:      -8.1     17.253     21.381
REMARK  6 active torsions:
REMARK  status: ('A' for Active; 'I' for Inactive)
REMARK    1  A    between atoms: C_5  and  C_6 
REMARK    2  A    between atoms: C_12  and  C_13 
REMARK       I    between atoms: C_13  and  N_14 
REMARK    3  A    between atoms: N_14  and  C_15 
REMARK    4  A    between atoms: C_18  and  C_19 
REMARK    5  A    between atoms: C_19  and  O_20 
REMARK    6  A    between atoms: C_25  and  C_26 
ROOT
HETATM    1  C   UNL     1     -33.520  39.360 -55.188  1.00  0.00     0.097 C 
HETATM    2  N   UNL     1     -33.703  39.675 -53.756  1.00  0.00    -0.268 NA
HETATM    3  C   UNL     1     -34.950  40.108 -53.395  1.00  0.00     0.118 C 
HETATM    4  N   UNL     1     -35.804  40.636 -54.340  1.00  0.00    -0.245 N 
HETATM    5  N   UNL     1     -37.038  40.874 -53.878  1.00  0.00    -0.182 NA
HETATM    6  C   UNL     1     -36.924  40.634 -52.570  1.00  0.00     0.159 C 
HETATM    7  C   UNL     1     -35.636  40.170 -52.196  1.00  0.00     0.091 C 
HETATM    8  C   UNL     1     -35.472  40.858 -55.737  1.00  0.00     0.221 C 
HETATM    9  C   UNL     1     -33.979  40.574 -56.001  1.00  0.00     0.061 C 
HETATM   10  H   UNL     1     -32.907  40.207 -53.393  1.00  0.00     0.130 HD
ENDROOT
BRANCH   7  11
HETATM   11  C   UNL     1     -35.234  39.839 -50.837  1.00  0.00     0.261 C 
HETATM   12  N   UNL     1     -33.978  39.276 -50.733  1.00  0.00    -0.323 N 
HETATM   13  H   UNL     1     -33.536  39.033 -51.612  1.00  0.00     0.169 HD
HETATM   14  O   UNL     1     -35.985  40.093 -49.902  1.00  0.00    -0.267 OA
BRANCH  12  15
HETATM   15  C   UNL     1     -33.226  39.085 -49.555  1.00  0.00     0.035 A 
HETATM   16  C   UNL     1     -33.537  38.138 -48.578  1.00  0.00     0.030 A 
HETATM   17  C   UNL     1     -32.798  38.056 -47.392  1.00  0.00     0.012 A 
HETATM   18  C   UNL     1     -31.729  38.924 -47.148  1.00  0.00    -0.030 A 
HETATM   19  C   UNL     1     -31.398  39.852 -48.149  1.00  0.00     0.012 A 
HETATM   20  C   UNL     1     -32.134  39.930 -49.339  1.00  0.00     0.030 A 
BRANCH  18  21
HETATM   21  C   UNL     1     -30.917  38.908 -45.868  1.00  0.00     0.147 C 
HETATM   22  C   UNL     1     -30.068  40.144 -45.586  1.00  0.00     0.044 C 
BRANCH  21  23
HETATM   23  O   UNL     1     -31.792  38.723 -44.755  1.00  0.00    -0.391 OA
HETATM   24  H   UNL     1     -31.827  37.769 -44.569  1.00  0.00     0.210 HD
ENDBRANCH  21  23
ENDBRANCH  18  21
ENDBRANCH  12  15
ENDBRANCH   7  11
BRANCH   1  25
HETATM   25  C   UNL     1     -32.104  38.878 -55.439  1.00  0.00    -0.040 A 
HETATM   26  C   UNL     1     -31.313  39.576 -56.369  1.00  0.00     0.009 A 
HETATM   27  C   UNL     1     -29.972  39.243 -56.573  1.00  0.00     0.007 A 
HETATM   28  C   UNL     1     -29.388  38.192 -55.862  1.00  0.00    -0.062 A 
HETATM   29  C   UNL     1     -27.928  37.886 -56.019  1.00  0.00     0.048 C 
HETATM   30  C   UNL     1     -30.170  37.480 -54.948  1.00  0.00     0.007 A 
HETATM   31  C   UNL     1     -31.514  37.812 -54.745  1.00  0.00     0.009 A 
ENDBRANCH   1  25
BRANCH   8  32
HETATM   32  C   UNL     1     -35.793  42.276 -56.159  1.00  0.00     0.409 C 
HETATM   33  F   UNL     1     -35.315  43.189 -55.281  1.00  0.00    -0.169 F 
HETATM   34  F   UNL     1     -35.191  42.540 -57.351  1.00  0.00    -0.169 F 
HETATM   35  F   UNL     1     -37.107  42.508 -56.342  1.00  0.00    -0.169 F 
ENDBRANCH   8  32
TORSDOF 6
ENDMDL
MODEL 10
REMARK VINA RESULT:      -8.1      4.398      7.818
REMARK  6 active torsions:
REMARK  status: ('A' for Active; 'I' for Inactive)
REMARK    1  A    between atoms: C_5  and  C_6 
REMARK    2  A    between atoms: C_12  and  C_13 
REMARK       I    between atoms: C_13  and  N_14 
REMARK    3  A    between atoms: N_14  and  C_15 
REMARK    4  A    between atoms: C_18  and  C_19 
REMARK    5  A    between atoms: C_19  and  O_20 
REMARK    6  A    between atoms: C_25  and  C_26 
ROOT
HETATM    1  C   UNL     1     -42.512  54.746 -54.337  1.00  0.00     0.097 C 
HETATM    2  N   UNL     1     -42.472  56.026 -53.599  1.00  0.00    -0.268 NA
HETATM    3  C   UNL     1     -43.307  57.006 -54.060  1.00  0.00     0.118 C 
HETATM    4  N   UNL     1     -43.787  56.962 -55.352  1.00  0.00    -0.245 N 
HETATM    5  N   UNL     1     -44.709  57.895 -55.617  1.00  0.00    -0.182 NA
HETATM    6  C   UNL     1     -44.705  58.648 -54.515  1.00  0.00     0.159 C 
HETATM    7  C   UNL     1     -43.834  58.159 -53.506  1.00  0.00     0.091 C 
HETATM    8  C   UNL     1     -43.421  55.968 -56.345  1.00  0.00     0.221 C 
HETATM    9  C   UNL     1     -42.296  55.051 -55.822  1.00  0.00     0.061 C 
HETATM   10  H   UNL     1     -41.508  56.300 -53.392  1.00  0.00     0.130 HD
ENDROOT
BRANCH   7  11
HETATM   11  C   UNL     1     -43.631  58.786 -52.209  1.00  0.00     0.261 C 
HETATM   12  N   UNL     1     -44.335  59.958 -52.024  1.00  0.00    -0.323 N 
HETATM   13  H   UNL     1     -44.802  60.320 -52.848  1.00  0.00     0.169 HD
HETATM   14  O   UNL     1     -42.903  58.249 -51.381  1.00  0.00    -0.267 OA
BRANCH  12  15
HETATM   15  C   UNL     1     -44.537  60.648 -50.810  1.00  0.00     0.035 A 
HETATM   16  C   UNL     1     -43.822  61.786 -50.433  1.00  0.00     0.030 A 
HETATM   17  C   UNL     1     -44.013  62.374 -49.176  1.00  0.00     0.012 A 
HETATM   18  C   UNL     1     -44.921  61.834 -48.259  1.00  0.00    -0.030 A 
HETATM   19  C   UNL     1     -45.662  60.710 -48.657  1.00  0.00     0.012 A 
HETATM   20  C   UNL     1     -45.477  60.126 -49.916  1.00  0.00     0.030 A 
BRANCH  18  21
HETATM   21  C   UNL     1     -45.142  62.405 -46.872  1.00  0.00     0.147 C 
HETATM   22  C   UNL     1     -46.558  62.875 -46.550  1.00  0.00     0.044 C 
BRANCH  21  23
HETATM   23  O   UNL     1     -44.780  61.428 -45.896  1.00  0.00    -0.391 OA
HETATM   24  H   UNL     1     -45.508  60.786 -45.844  1.00  0.00     0.210 HD
ENDBRANCH  21  23
ENDBRANCH  18  21
ENDBRANCH  12  15
ENDBRANCH   7  11
BRANCH   1  25
HETATM   25  C   UNL     1     -41.555  53.751 -53.707  1.00  0.00    -0.040 A 
HETATM   26  C   UNL     1     -41.252  53.886 -52.341  1.00  0.00     0.009 A 
HETATM   27  C   UNL     1     -40.457  52.946 -51.680  1.00  0.00     0.007 A 
HETATM   28  C   UNL     1     -39.932  51.852 -52.373  1.00  0.00    -0.062 A 
HETATM   29  C   UNL     1     -39.147  50.799 -51.648  1.00  0.00     0.048 C 
HETATM   30  C   UNL     1     -40.213  51.718 -53.735  1.00  0.00     0.007 A 
HETATM   31  C   UNL     1     -41.007  52.660 -54.397  1.00  0.00     0.009 A 
ENDBRANCH   1  25
BRANCH   8  32
HETATM   32  C   UNL     1     -42.972  56.621 -57.636  1.00  0.00     0.409 C 
HETATM   33  F   UNL     1     -42.447  55.724 -58.504  1.00  0.00    -0.169 F 
HETATM   34  F   UNL     1     -44.048  57.174 -58.261  1.00  0.00    -0.169 F 
HETATM   35  F   UNL     1     -42.084  57.618 -57.464  1.00  0.00    -0.169 F 
ENDBRANCH   8  32
TORSDOF 6
ENDMDL
