MODEL 1
REMARK VINA RESULT:      -8.6      0.000      0.000
REMARK  5 active torsions:
REMARK  status: ('A' for Active; 'I' for Inactive)
REMARK    1  A    between atoms: O_1  and  C_2 
REMARK    2  A    between atoms: C_6  and  C_7 
REMARK    3  A    between atoms: C_7  and  N_8 
REMARK       I    between atoms: N_8  and  C_9 
REMARK    4  A    between atoms: C_9  and  C_11 
REMARK    5  A    between atoms: C_14  and  C_17 
ROOT
HETATM    1  N   UNL     1     -43.610  56.416 -57.200  1.00  0.00    -0.353 N 
HETATM    2  C   UNL     1     -42.667  56.641 -56.221  1.00  0.00     0.251 C 
HETATM    3  O   UNL     1     -42.237  57.753 -55.933  1.00  0.00    -0.268 OA
HETATM    4  H   UNL     1     -43.770  55.476 -57.528  1.00  0.00     0.163 HD
ENDROOT
BRANCH   2   5
HETATM    5  C   UNL     1     -42.129  55.436 -55.530  1.00  0.00     0.032 A 
HETATM    6  C   UNL     1     -40.800  55.461 -55.097  1.00  0.00     0.018 A 
HETATM    7  C   UNL     1     -40.241  54.346 -54.463  1.00  0.00     0.013 A 
HETATM    8  C   UNL     1     -40.999  53.185 -54.235  1.00  0.00    -0.026 A 
HETATM    9  C   UNL     1     -42.341  53.186 -54.653  1.00  0.00     0.013 A 
HETATM   10  C   UNL     1     -42.905  54.298 -55.292  1.00  0.00     0.018 A 
BRANCH   8  11
HETATM   11  C   UNL     1     -40.404  52.005 -53.582  1.00  0.00    -0.023 A 
HETATM   12  C   UNL     1     -40.236  50.797 -54.271  1.00  0.00     0.031 A 
HETATM   13  C   UNL     1     -39.681  49.712 -53.610  1.00  0.00     0.117 A 
HETATM   14  N   UNL     1     -39.282  49.741 -52.323  1.00  0.00    -0.273 NA
HETATM   15  C   UNL     1     -39.447  50.908 -51.668  1.00  0.00     0.117 A 
HETATM   16  C   UNL     1     -39.992  52.046 -52.244  1.00  0.00     0.031 A 
ENDBRANCH   8  11
ENDBRANCH   2   5
BRANCH   1  17
HETATM   17  C   UNL     1     -44.099  57.486 -58.042  1.00  0.00     0.161 C 
BRANCH  17  18
HETATM   18  C   UNL     1     -45.002  56.947 -59.121  1.00  0.00    -0.038 A 
HETATM   19  C   UNL     1     -46.321  57.410 -59.243  1.00  0.00     0.009 A 
HETATM   20  C   UNL     1     -47.157  56.921 -60.249  1.00  0.00     0.003 A 
HETATM   21  C   UNL     1     -46.687  55.959 -61.143  1.00  0.00     0.036 A 
HETATM   22  C   UNL     1     -45.381  55.497 -61.022  1.00  0.00     0.066 A 
HETATM   23  C   UNL     1     -44.538  55.982 -60.026  1.00  0.00     0.045 A 
BRANCH  22  24
HETATM   24  O   UNL     1     -44.880  54.554 -61.872  1.00  0.00    -0.361 OA
HETATM   25  H   UNL     1     -43.911  54.611 -61.857  1.00  0.00     0.217 HD
ENDBRANCH  22  24
ENDBRANCH  17  18
ENDBRANCH   1  17
TORSDOF 5
ENDMDL
MODEL 2
REMARK VINA RESULT:      -8.6      2.679      2.847
REMARK  5 active torsions:
REMARK  status: ('A' for Active; 'I' for Inactive)
REMARK    1  A    between atoms: O_1  and  C_2 
REMARK    2  A    between atoms: C_6  and  C_7 
REMARK    3  A    between atoms: C_7  and  N_8 
REMARK       I    between atoms: N_8  and  C_9 
REMARK    4  A    between atoms: C_9  and  C_11 
REMARK    5  A    between atoms: C_14  and  C_17 
ROOT
HETATM    1  N   UNL     1     -42.439  57.501 -55.740  1.00  0.00    -0.353 N 
HETATM    2  C   UNL     1     -41.624  57.376 -54.636  1.00  0.00     0.251 C 
HETATM    3  O   UNL     1     -41.193  58.330 -53.997  1.00  0.00    -0.268 OA
HETATM    4  H   UNL     1     -42.590  56.702 -56.338  1.00  0.00     0.163 HD
ENDROOT
BRANCH   2   5
HETATM    5  C   UNL     1     -41.229  55.991 -54.257  1.00  0.00     0.032 A 
HETATM    6  C   UNL     1     -40.742  55.145 -55.259  1.00  0.00     0.018 A 
HETATM    7  C   UNL     1     -40.379  53.828 -54.959  1.00  0.00     0.013 A 
HETATM    8  C   UNL     1     -40.482  53.327 -53.650  1.00  0.00    -0.026 A 
HETATM    9  C   UNL     1     -40.948  54.198 -52.649  1.00  0.00     0.013 A 
HETATM   10  C   UNL     1     -41.316  55.517 -52.945  1.00  0.00     0.018 A 
BRANCH   8  11
HETATM   11  C   UNL     1     -40.114  51.933 -53.338  1.00  0.00    -0.023 A 
HETATM   12  C   UNL     1     -40.104  50.943 -54.329  1.00  0.00     0.031 A 
HETATM   13  C   UNL     1     -39.761  49.644 -53.984  1.00  0.00     0.117 A 
HETATM   14  N   UNL     1     -39.429  49.263 -52.735  1.00  0.00    -0.273 NA
HETATM   15  C   UNL     1     -39.440  50.223 -51.788  1.00  0.00     0.117 A 
HETATM   16  C   UNL     1     -39.769  51.547 -52.037  1.00  0.00     0.031 A 
ENDBRANCH   8  11
ENDBRANCH   2   5
BRANCH   1  17
HETATM   17  C   UNL     1     -42.771  58.795 -56.295  1.00  0.00     0.161 C 
BRANCH  17  18
HETATM   18  C   UNL     1     -42.505  58.824 -57.778  1.00  0.00    -0.038 A 
HETATM   19  C   UNL     1     -42.658  60.015 -58.505  1.00  0.00     0.009 A 
HETATM   20  C   UNL     1     -42.403  60.048 -59.878  1.00  0.00     0.003 A 
HETATM   21  C   UNL     1     -41.996  58.892 -60.542  1.00  0.00     0.036 A 
HETATM   22  C   UNL     1     -41.846  57.710 -59.824  1.00  0.00     0.066 A 
HETATM   23  C   UNL     1     -42.093  57.667 -58.455  1.00  0.00     0.045 A 
BRANCH  22  24
HETATM   24  O   UNL     1     -41.453  56.554 -60.432  1.00  0.00    -0.361 OA
HETATM   25  H   UNL     1     -41.080  56.776 -61.301  1.00  0.00     0.217 HD
ENDBRANCH  22  24
ENDBRANCH  17  18
ENDBRANCH   1  17
TORSDOF 5
ENDMDL
MODEL 3
REMARK VINA RESULT:      -8.3      4.649      5.815
REMARK  5 active torsions:
REMARK  status: ('A' for Active; 'I' for Inactive)
REMARK    1  A    between atoms: O_1  and  C_2 
REMARK    2  A    between atoms: C_6  and  C_7 
REMARK    3  A    between atoms: C_7  and  N_8 
REMARK       I    between atoms: N_8  and  C_9 
REMARK    4  A    between atoms: C_9  and  C_11 
REMARK    5  A    between atoms: C_14  and  C_17 
ROOT
HETATM    1  N   UNL     1     -41.558  58.431 -52.568  1.00  0.00    -0.353 N 
HETATM    2  C   UNL     1     -41.543  57.672 -53.717  1.00  0.00     0.251 C 
HETATM    3  O   UNL     1     -41.840  58.107 -54.824  1.00  0.00    -0.268 OA
HETATM    4  H   UNL     1     -41.505  57.974 -51.670  1.00  0.00     0.163 HD
ENDROOT
BRANCH   2   5
HETATM    5  C   UNL     1     -41.184  56.235 -53.557  1.00  0.00     0.032 A 
HETATM    6  C   UNL     1     -40.657  55.558 -54.662  1.00  0.00     0.018 A 
HETATM    7  C   UNL     1     -40.325  54.203 -54.569  1.00  0.00     0.013 A 
HETATM    8  C   UNL     1     -40.499  53.493 -53.369  1.00  0.00    -0.026 A 
HETATM    9  C   UNL     1     -41.005  54.195 -52.260  1.00  0.00     0.013 A 
HETATM   10  C   UNL     1     -41.342  55.552 -52.348  1.00  0.00     0.018 A 
BRANCH   8  11
HETATM   11  C   UNL     1     -40.165  52.060 -53.277  1.00  0.00    -0.023 A 
HETATM   12  C   UNL     1     -40.268  51.215 -54.390  1.00  0.00     0.031 A 
HETATM   13  C   UNL     1     -39.952  49.872 -54.251  1.00  0.00     0.117 A 
HETATM   14  N   UNL     1     -39.541  49.313 -53.094  1.00  0.00    -0.273 NA
HETATM   15  C   UNL     1     -39.444  50.135 -52.030  1.00  0.00     0.117 A 
HETATM   16  C   UNL     1     -39.738  51.489 -52.072  1.00  0.00     0.031 A 
ENDBRANCH   8  11
ENDBRANCH   2   5
BRANCH   1  17
HETATM   17  C   UNL     1     -42.032  59.798 -52.569  1.00  0.00     0.161 C 
BRANCH  17  18
HETATM   18  C   UNL     1     -43.505  59.853 -52.254  1.00  0.00    -0.038 A 
HETATM   19  C   UNL     1     -44.417  60.343 -53.202  1.00  0.00     0.009 A 
HETATM   20  C   UNL     1     -45.784  60.385 -52.919  1.00  0.00     0.003 A 
HETATM   21  C   UNL     1     -46.256  59.942 -51.684  1.00  0.00     0.036 A 
HETATM   22  C   UNL     1     -45.354  59.458 -50.742  1.00  0.00     0.066 A 
HETATM   23  C   UNL     1     -43.990  59.408 -51.017  1.00  0.00     0.045 A 
BRANCH  22  24
HETATM   24  O   UNL     1     -45.770  59.018 -49.520  1.00  0.00    -0.361 OA
HETATM   25  H   UNL     1     -46.150  58.131 -49.626  1.00  0.00     0.217 HD
ENDBRANCH  22  24
ENDBRANCH  17  18
ENDBRANCH   1  17
TORSDOF 5
ENDMDL
MODEL 4
REMARK VINA RESULT:      -8.1      4.167      6.265
REMARK  5 active torsions:
REMARK  status: ('A' for Active; 'I' for Inactive)
REMARK    1  A    between atoms: O_1  and  C_2 
REMARK    2  A    between atoms: C_6  and  C_7 
REMARK    3  A    between atoms: C_7  and  N_8 
REMARK       I    between atoms: N_8  and  C_9 
REMARK    4  A    between atoms: C_9  and  C_11 
REMARK    5  A    between atoms: C_14  and  C_17 
ROOT
HETATM    1  N   UNL     1     -41.289  58.236 -54.197  1.00  0.00    -0.353 N 
HETATM    2  C   UNL     1     -42.158  57.211 -54.499  1.00  0.00     0.251 C 
HETATM    3  O   UNL     1     -43.303  57.385 -54.900  1.00  0.00    -0.268 OA
HETATM    4  H   UNL     1     -40.444  58.036 -53.683  1.00  0.00     0.163 HD
ENDROOT
BRANCH   2   5
HETATM    5  C   UNL     1     -41.656  55.827 -54.266  1.00  0.00     0.032 A 
HETATM    6  C   UNL     1     -42.141  55.126 -53.158  1.00  0.00     0.018 A 
HETATM    7  C   UNL     1     -41.684  53.833 -52.883  1.00  0.00     0.013 A 
HETATM    8  C   UNL     1     -40.742  53.204 -53.715  1.00  0.00    -0.026 A 
HETATM    9  C   UNL     1     -40.285  53.912 -54.840  1.00  0.00     0.013 A 
HETATM   10  C   UNL     1     -40.736  55.209 -55.118  1.00  0.00     0.018 A 
BRANCH   8  11
HETATM   11  C   UNL     1     -40.249  51.847 -53.415  1.00  0.00    -0.023 A 
HETATM   12  C   UNL     1     -40.140  50.873 -54.416  1.00  0.00     0.031 A 
HETATM   13  C   UNL     1     -39.681  49.608 -54.082  1.00  0.00     0.117 A 
HETATM   14  N   UNL     1     -39.323  49.245 -52.834  1.00  0.00    -0.273 NA
HETATM   15  C   UNL     1     -39.431  50.189 -51.878  1.00  0.00     0.117 A 
HETATM   16  C   UNL     1     -39.880  51.479 -52.115  1.00  0.00     0.031 A 
ENDBRANCH   8  11
ENDBRANCH   2   5
BRANCH   1  17
HETATM   17  C   UNL     1     -41.706  59.621 -54.239  1.00  0.00     0.161 C 
BRANCH  17  18
HETATM   18  C   UNL     1     -42.050  60.117 -52.858  1.00  0.00    -0.038 A 
HETATM   19  C   UNL     1     -42.960  61.172 -52.688  1.00  0.00     0.009 A 
HETATM   20  C   UNL     1     -43.290  61.627 -51.409  1.00  0.00     0.003 A 
HETATM   21  C   UNL     1     -42.712  61.037 -50.286  1.00  0.00     0.036 A 
HETATM   22  C   UNL     1     -41.808  59.993 -50.453  1.00  0.00     0.066 A 
HETATM   23  C   UNL     1     -41.476  59.529 -51.723  1.00  0.00     0.045 A 
BRANCH  22  24
HETATM   24  O   UNL     1     -41.215  59.389 -49.383  1.00  0.00    -0.361 OA
HETATM   25  H   UNL     1     -40.272  59.268 -49.582  1.00  0.00     0.217 HD
ENDBRANCH  22  24
ENDBRANCH  17  18
ENDBRANCH   1  17
TORSDOF 5
ENDMDL
MODEL 5
REMARK VINA RESULT:      -8.1      3.059      8.752
REMARK  5 active torsions:
REMARK  status: ('A' for Active; 'I' for Inactive)
REMARK    1  A    between atoms: O_1  and  C_2 
REMARK    2  A    between atoms: C_6  and  C_7 
REMARK    3  A    between atoms: C_7  and  N_8 
REMARK       I    between atoms: N_8  and  C_9 
REMARK    4  A    between atoms: C_9  and  C_11 
REMARK    5  A    between atoms: C_14  and  C_17 
ROOT
HETATM    1  N   UNL     1     -40.563  54.067 -52.563  1.00  0.00    -0.353 N 
HETATM    2  C   UNL     1     -41.893  54.261 -52.864  1.00  0.00     0.251 C 
HETATM    3  O   UNL     1     -42.813  53.952 -52.114  1.00  0.00    -0.268 OA
HETATM    4  H   UNL     1     -39.872  54.149 -53.293  1.00  0.00     0.163 HD
ENDROOT
BRANCH   2   5
HETATM    5  C   UNL     1     -42.192  54.838 -54.204  1.00  0.00     0.032 A 
HETATM    6  C   UNL     1     -42.894  54.050 -55.121  1.00  0.00     0.018 A 
HETATM    7  C   UNL     1     -43.179  54.538 -56.401  1.00  0.00     0.013 A 
HETATM    8  C   UNL     1     -42.781  55.827 -56.792  1.00  0.00    -0.026 A 
HETATM    9  C   UNL     1     -42.100  56.616 -55.849  1.00  0.00     0.013 A 
HETATM   10  C   UNL     1     -41.808  56.132 -54.567  1.00  0.00     0.018 A 
BRANCH   8  11
HETATM   11  C   UNL     1     -43.068  56.334 -58.147  1.00  0.00    -0.023 A 
HETATM   12  C   UNL     1     -42.606  57.587 -58.570  1.00  0.00     0.031 A 
HETATM   13  C   UNL     1     -42.910  58.023 -59.850  1.00  0.00     0.117 A 
HETATM   14  N   UNL     1     -43.635  57.309 -60.734  1.00  0.00    -0.273 NA
HETATM   15  C   UNL     1     -44.074  56.104 -60.318  1.00  0.00     0.117 A 
HETATM   16  C   UNL     1     -43.821  55.583 -59.059  1.00  0.00     0.031 A 
ENDBRANCH   8  11
ENDBRANCH   2   5
BRANCH   1  17
HETATM   17  C   UNL     1     -40.151  53.380 -51.358  1.00  0.00     0.161 C 
BRANCH  17  18
HETATM   18  C   UNL     1     -39.952  51.910 -51.623  1.00  0.00    -0.038 A 
HETATM   19  C   UNL     1     -39.966  50.988 -50.564  1.00  0.00     0.009 A 
HETATM   20  C   UNL     1     -39.793  49.623 -50.806  1.00  0.00     0.003 A 
HETATM   21  C   UNL     1     -39.600  49.163 -52.108  1.00  0.00     0.036 A 
HETATM   22  C   UNL     1     -39.584  50.076 -53.159  1.00  0.00     0.066 A 
HETATM   23  C   UNL     1     -39.760  51.437 -52.928  1.00  0.00     0.045 A 
BRANCH  22  24
HETATM   24  O   UNL     1     -39.394  49.671 -54.447  1.00  0.00    -0.361 OA
HETATM   25  H   UNL     1     -38.514  49.267 -54.516  1.00  0.00     0.217 HD
ENDBRANCH  22  24
ENDBRANCH  17  18
ENDBRANCH   1  17
TORSDOF 5
ENDMDL
MODEL 6
REMARK VINA RESULT:      -7.9      6.116      9.391
REMARK  5 active torsions:
REMARK  status: ('A' for Active; 'I' for Inactive)
REMARK    1  A    between atoms: O_1  and  C_2 
REMARK    2  A    between atoms: C_6  and  C_7 
REMARK    3  A    between atoms: C_7  and  N_8 
REMARK       I    between atoms: N_8  and  C_9 
REMARK    4  A    between atoms: C_9  and  C_11 
REMARK    5  A    between atoms: C_14  and  C_17 
ROOT
HETATM    1  N   UNL     1     -40.597  54.397 -50.999  1.00  0.00    -0.353 N 
HETATM    2  C   UNL     1     -41.543  54.888 -50.127  1.00  0.00     0.251 C 
HETATM    3  O   UNL     1     -41.789  54.386 -49.036  1.00  0.00    -0.268 OA
HETATM    4  H   UNL     1     -40.585  54.724 -51.953  1.00  0.00     0.163 HD
ENDROOT
BRANCH   2   5
HETATM    5  C   UNL     1     -42.322  56.070 -50.591  1.00  0.00     0.032 A 
HETATM    6  C   UNL     1     -41.631  57.258 -50.850  1.00  0.00     0.018 A 
HETATM    7  C   UNL     1     -42.321  58.401 -51.267  1.00  0.00     0.013 A 
HETATM    8  C   UNL     1     -43.714  58.384 -51.447  1.00  0.00    -0.026 A 
HETATM    9  C   UNL     1     -44.390  57.175 -51.208  1.00  0.00     0.013 A 
HETATM   10  C   UNL     1     -43.706  56.027 -50.787  1.00  0.00     0.018 A 
BRANCH   8  11
HETATM   11  C   UNL     1     -44.441  59.595 -51.871  1.00  0.00    -0.023 A 
HETATM   12  C   UNL     1     -45.840  59.659 -51.823  1.00  0.00     0.031 A 
HETATM   13  C   UNL     1     -46.478  60.816 -52.242  1.00  0.00     0.117 A 
HETATM   14  N   UNL     1     -45.831  61.907 -52.700  1.00  0.00    -0.273 NA
HETATM   15  C   UNL     1     -44.486  61.836 -52.741  1.00  0.00     0.117 A 
HETATM   16  C   UNL     1     -43.760  60.723 -52.344  1.00  0.00     0.031 A 
ENDBRANCH   8  11
ENDBRANCH   2   5
BRANCH   1  17
HETATM   17  C   UNL     1     -39.880  53.170 -50.727  1.00  0.00     0.161 C 
BRANCH  17  18
HETATM   18  C   UNL     1     -39.928  52.249 -51.920  1.00  0.00    -0.038 A 
HETATM   19  C   UNL     1     -40.317  52.735 -53.178  1.00  0.00     0.009 A 
HETATM   20  C   UNL     1     -40.351  51.887 -54.288  1.00  0.00     0.003 A 
HETATM   21  C   UNL     1     -40.001  50.544 -54.153  1.00  0.00     0.036 A 
HETATM   22  C   UNL     1     -39.618  50.061 -52.906  1.00  0.00     0.066 A 
HETATM   23  C   UNL     1     -39.576  50.898 -51.795  1.00  0.00     0.045 A 
BRANCH  22  24
HETATM   24  O   UNL     1     -39.272  48.754 -52.728  1.00  0.00    -0.361 OA
HETATM   25  H   UNL     1     -38.451  48.721 -52.209  1.00  0.00     0.217 HD
ENDBRANCH  22  24
ENDBRANCH  17  18
ENDBRANCH   1  17
TORSDOF 5
ENDMDL
MODEL 7
REMARK VINA RESULT:      -7.4     14.015     16.116
REMARK  5 active torsions:
REMARK  status: ('A' for Active; 'I' for Inactive)
REMARK    1  A    between atoms: O_1  and  C_2 
REMARK    2  A    between atoms: C_6  and  C_7 
REMARK    3  A    between atoms: C_7  and  N_8 
REMARK       I    between atoms: N_8  and  C_9 
REMARK    4  A    between atoms: C_9  and  C_11 
REMARK    5  A    between atoms: C_14  and  C_17 
ROOT
HETATM    1  N   UNL     1     -37.022  41.949 -55.228  1.00  0.00    -0.353 N 
HETATM    2  C   UNL     1     -35.690  42.183 -54.961  1.00  0.00     0.251 C 
HETATM    3  O   UNL     1     -34.942  42.792 -55.717  1.00  0.00    -0.268 OA
HETATM    4  H   UNL     1     -37.527  41.274 -54.674  1.00  0.00     0.163 HD
ENDROOT
BRANCH   2   5
HETATM    5  C   UNL     1     -35.157  41.605 -53.696  1.00  0.00     0.032 A 
HETATM    6  C   UNL     1     -34.352  40.465 -53.777  1.00  0.00     0.018 A 
HETATM    7  C   UNL     1     -33.845  39.872 -52.616  1.00  0.00     0.013 A 
HETATM    8  C   UNL     1     -34.120  40.409 -51.347  1.00  0.00    -0.026 A 
HETATM    9  C   UNL     1     -34.909  41.571 -51.285  1.00  0.00     0.013 A 
HETATM   10  C   UNL     1     -35.423  42.167 -52.443  1.00  0.00     0.018 A 
BRANCH   8  11
HETATM   11  C   UNL     1     -33.599  39.773 -50.123  1.00  0.00    -0.023 A 
HETATM   12  C   UNL     1     -32.330  40.089 -49.621  1.00  0.00     0.031 A 
HETATM   13  C   UNL     1     -31.880  39.456 -48.472  1.00  0.00     0.117 A 
HETATM   14  N   UNL     1     -32.596  38.540 -47.791  1.00  0.00    -0.273 NA
HETATM   15  C   UNL     1     -33.817  38.243 -48.281  1.00  0.00     0.117 A 
HETATM   16  C   UNL     1     -34.351  38.823 -49.422  1.00  0.00     0.031 A 
ENDBRANCH   8  11
ENDBRANCH   2   5
BRANCH   1  17
HETATM   17  C   UNL     1     -37.620  42.328 -56.489  1.00  0.00     0.161 C 
BRANCH  17  18
HETATM   18  C   UNL     1     -37.642  41.161 -57.443  1.00  0.00    -0.038 A 
HETATM   19  C   UNL     1     -37.861  39.859 -56.967  1.00  0.00     0.009 A 
HETATM   20  C   UNL     1     -37.893  38.775 -57.848  1.00  0.00     0.003 A 
HETATM   21  C   UNL     1     -37.703  38.980 -59.214  1.00  0.00     0.036 A 
HETATM   22  C   UNL     1     -37.484  40.269 -59.687  1.00  0.00     0.066 A 
HETATM   23  C   UNL     1     -37.455  41.356 -58.818  1.00  0.00     0.045 A 
BRANCH  22  24
HETATM   24  O   UNL     1     -37.289  40.515 -61.015  1.00  0.00    -0.361 OA
HETATM   25  H   UNL     1     -36.839  41.371 -61.106  1.00  0.00     0.217 HD
ENDBRANCH  22  24
ENDBRANCH  17  18
ENDBRANCH   1  17
TORSDOF 5
ENDMDL
MODEL 8
REMARK VINA RESULT:      -7.3      1.164      1.726
REMARK  5 active torsions:
REMARK  status: ('A' for Active; 'I' for Inactive)
REMARK    1  A    between atoms: O_1  and  C_2 
REMARK    2  A    between atoms: C_6  and  C_7 
REMARK    3  A    between atoms: C_7  and  N_8 
REMARK       I    between atoms: N_8  and  C_9 
REMARK    4  A    between atoms: C_9  and  C_11 
REMARK    5  A    between atoms: C_14  and  C_17 
ROOT
HETATM    1  N   UNL     1     -43.695  57.253 -55.771  1.00  0.00    -0.353 N 
HETATM    2  C   UNL     1     -42.407  57.239 -55.282  1.00  0.00     0.251 C 
HETATM    3  O   UNL     1     -41.673  58.220 -55.271  1.00  0.00    -0.268 OA
HETATM    4  H   UNL     1     -44.171  56.380 -55.941  1.00  0.00     0.163 HD
ENDROOT
BRANCH   2   5
HETATM    5  C   UNL     1     -41.899  55.927 -54.792  1.00  0.00     0.032 A 
HETATM    6  C   UNL     1     -41.657  55.782 -53.422  1.00  0.00     0.018 A 
HETATM    7  C   UNL     1     -41.159  54.577 -52.916  1.00  0.00     0.013 A 
HETATM    8  C   UNL     1     -40.901  53.485 -53.761  1.00  0.00    -0.026 A 
HETATM    9  C   UNL     1     -41.175  53.638 -55.132  1.00  0.00     0.013 A 
HETATM   10  C   UNL     1     -41.671  54.843 -55.646  1.00  0.00     0.018 A 
BRANCH   8  11
HETATM   11  C   UNL     1     -40.360  52.221 -53.228  1.00  0.00    -0.023 A 
HETATM   12  C   UNL     1     -40.017  52.088 -51.876  1.00  0.00     0.031 A 
HETATM   13  C   UNL     1     -39.503  50.882 -51.424  1.00  0.00     0.117 A 
HETATM   14  N   UNL     1     -39.307  49.807 -52.213  1.00  0.00    -0.273 NA
HETATM   15  C   UNL     1     -39.640  49.945 -53.512  1.00  0.00     0.117 A 
HETATM   16  C   UNL     1     -40.161  51.109 -54.055  1.00  0.00     0.031 A 
ENDBRANCH   8  11
ENDBRANCH   2   5
BRANCH   1  17
HETATM   17  C   UNL     1     -44.250  58.427 -56.409  1.00  0.00     0.161 C 
BRANCH  17  18
HETATM   18  C   UNL     1     -44.953  58.056 -57.690  1.00  0.00    -0.038 A 
HETATM   19  C   UNL     1     -46.331  58.277 -57.835  1.00  0.00     0.009 A 
HETATM   20  C   UNL     1     -46.984  57.945 -59.024  1.00  0.00     0.003 A 
HETATM   21  C   UNL     1     -46.269  57.384 -60.082  1.00  0.00     0.036 A 
HETATM   22  C   UNL     1     -44.903  57.161 -59.939  1.00  0.00     0.066 A 
HETATM   23  C   UNL     1     -44.242  57.493 -58.760  1.00  0.00     0.045 A 
BRANCH  22  24
HETATM   24  O   UNL     1     -44.164  56.611 -60.945  1.00  0.00    -0.361 OA
HETATM   25  H   UNL     1     -43.850  55.739 -60.654  1.00  0.00     0.217 HD
ENDBRANCH  22  24
ENDBRANCH  17  18
ENDBRANCH   1  17
TORSDOF 5
ENDMDL
MODEL 9
REMARK VINA RESULT:      -7.2      5.280      9.110
REMARK  5 active torsions:
REMARK  status: ('A' for Active; 'I' for Inactive)
REMARK    1  A    between atoms: O_1  and  C_2 
REMARK    2  A    between atoms: C_6  and  C_7 
REMARK    3  A    between atoms: C_7  and  N_8 
REMARK       I    between atoms: N_8  and  C_9 
REMARK    4  A    between atoms: C_9  and  C_11 
REMARK    5  A    between atoms: C_14  and  C_17 
ROOT
HETATM    1  N   UNL     1     -41.427  55.096 -53.746  1.00  0.00    -0.353 N 
HETATM    2  C   UNL     1     -42.762  55.433 -53.723  1.00  0.00     0.251 C 
HETATM    3  O   UNL     1     -43.630  54.817 -54.332  1.00  0.00    -0.268 OA
HETATM    4  H   UNL     1     -40.744  55.752 -53.399  1.00  0.00     0.163 HD
ENDROOT
BRANCH   2   5
HETATM    5  C   UNL     1     -43.126  56.648 -52.942  1.00  0.00     0.032 A 
HETATM    6  C   UNL     1     -44.419  57.162 -53.081  1.00  0.00     0.018 A 
HETATM    7  C   UNL     1     -44.802  58.314 -52.387  1.00  0.00     0.013 A 
HETATM    8  C   UNL     1     -43.907  58.974 -51.528  1.00  0.00    -0.026 A 
HETATM    9  C   UNL     1     -42.619  58.430 -51.378  1.00  0.00     0.013 A 
HETATM   10  C   UNL     1     -42.229  57.279 -52.074  1.00  0.00     0.018 A 
BRANCH   8  11
HETATM   11  C   UNL     1     -44.307  60.198 -50.809  1.00  0.00    -0.023 A 
HETATM   12  C   UNL     1     -45.653  60.482 -50.544  1.00  0.00     0.031 A 
HETATM   13  C   UNL     1     -45.980  61.651 -49.874  1.00  0.00     0.117 A 
HETATM   14  N   UNL     1     -45.070  62.551 -49.450  1.00  0.00    -0.273 NA
HETATM   15  C   UNL     1     -43.777  62.270 -49.709  1.00  0.00     0.117 A 
HETATM   16  C   UNL     1     -43.355  61.128 -50.372  1.00  0.00     0.031 A 
ENDBRANCH   8  11
ENDBRANCH   2   5
BRANCH   1  17
HETATM   17  C   UNL     1     -40.929  54.028 -54.585  1.00  0.00     0.161 C 
BRANCH  17  18
HETATM   18  C   UNL     1     -40.437  52.875 -53.748  1.00  0.00    -0.038 A 
HETATM   19  C   UNL     1     -40.219  53.039 -52.371  1.00  0.00     0.009 A 
HETATM   20  C   UNL     1     -39.774  51.971 -51.589  1.00  0.00     0.003 A 
HETATM   21  C   UNL     1     -39.538  50.727 -52.173  1.00  0.00     0.036 A 
HETATM   22  C   UNL     1     -39.752  50.563 -53.538  1.00  0.00     0.066 A 
HETATM   23  C   UNL     1     -40.199  51.620 -54.325  1.00  0.00     0.045 A 
BRANCH  22  24
HETATM   24  O   UNL     1     -39.530  49.366 -54.153  1.00  0.00    -0.361 OA
HETATM   25  H   UNL     1     -38.613  49.097 -53.980  1.00  0.00     0.217 HD
ENDBRANCH  22  24
ENDBRANCH  17  18
ENDBRANCH   1  17
TORSDOF 5
ENDMDL
MODEL 10
REMARK VINA RESULT:      -7.1      5.042      9.143
REMARK  5 active torsions:
REMARK  status: ('A' for Active; 'I' for Inactive)
REMARK    1  A    between atoms: O_1  and  C_2 
REMARK    2  A    between atoms: C_6  and  C_7 
REMARK    3  A    between atoms: C_7  and  N_8 
REMARK       I    between atoms: N_8  and  C_9 
REMARK    4  A    between atoms: C_9  and  C_11 
REMARK    5  A    between atoms: C_14  and  C_17 
ROOT
HETATM    1  N   UNL     1     -40.669  54.565 -51.651  1.00  0.00    -0.353 N 
HETATM    2  C   UNL     1     -41.669  55.214 -50.961  1.00  0.00     0.251 C 
HETATM    3  O   UNL     1     -42.052  54.882 -49.845  1.00  0.00    -0.268 OA
HETATM    4  H   UNL     1     -40.542  54.754 -52.635  1.00  0.00     0.163 HD
ENDROOT
BRANCH   2   5
HETATM    5  C   UNL     1     -42.330  56.349 -51.664  1.00  0.00     0.032 A 
HETATM    6  C   UNL     1     -41.556  57.137 -52.522  1.00  0.00     0.018 A 
HETATM    7  C   UNL     1     -42.124  58.228 -53.187  1.00  0.00     0.013 A 
HETATM    8  C   UNL     1     -43.481  58.552 -53.023  1.00  0.00    -0.026 A 
HETATM    9  C   UNL     1     -44.252  57.734 -52.178  1.00  0.00     0.013 A 
HETATM   10  C   UNL     1     -43.688  56.643 -51.506  1.00  0.00     0.018 A 
BRANCH   8  11
HETATM   11  C   UNL     1     -44.075  59.712 -53.712  1.00  0.00    -0.023 A 
HETATM   12  C   UNL     1     -45.048  59.550 -54.707  1.00  0.00     0.031 A 
HETATM   13  C   UNL     1     -45.569  60.672 -55.333  1.00  0.00     0.117 A 
HETATM   14  N   UNL     1     -45.196  61.934 -55.044  1.00  0.00    -0.273 NA
HETATM   15  C   UNL     1     -44.259  62.081 -54.085  1.00  0.00     0.117 A 
HETATM   16  C   UNL     1     -43.681  61.020 -53.404  1.00  0.00     0.031 A 
ENDBRANCH   8  11
ENDBRANCH   2   5
BRANCH   1  17
HETATM   17  C   UNL     1     -40.054  53.360 -51.139  1.00  0.00     0.161 C 
BRANCH  17  18
HETATM   18  C   UNL     1     -40.038  52.280 -52.191  1.00  0.00    -0.038 A 
HETATM   19  C   UNL     1     -40.420  52.568 -53.511  1.00  0.00     0.009 A 
HETATM   20  C   UNL     1     -40.396  51.573 -54.491  1.00  0.00     0.003 A 
HETATM   21  C   UNL     1     -39.995  50.278 -54.164  1.00  0.00     0.036 A 
HETATM   22  C   UNL     1     -39.619  49.991 -52.855  1.00  0.00     0.066 A 
HETATM   23  C   UNL     1     -39.635  50.976 -51.873  1.00  0.00     0.045 A 
BRANCH  22  24
HETATM   24  O   UNL     1     -39.224  48.738 -52.489  1.00  0.00    -0.361 OA
HETATM   25  H   UNL     1     -39.643  48.519 -51.641  1.00  0.00     0.217 HD
ENDBRANCH  22  24
ENDBRANCH  17  18
ENDBRANCH   1  17
TORSDOF 5
ENDMDL
