MODEL 1
REMARK VINA RESULT:      -8.2      0.000      0.000
REMARK  5 active torsions:
REMARK  status: ('A' for Active; 'I' for Inactive)
REMARK    1  A    between atoms: C_3  and  O_4 
REMARK    2  A    between atoms: O_4  and  C_5 
REMARK    3  A    between atoms: C_5  and  C_6 
REMARK       I    between atoms: C_6  and  N_7 
REMARK    4  A    between atoms: N_7  and  C_8 
REMARK    5  A    between atoms: C_14  and  C_15 
ROOT
HETATM    1  C   UNL     1     -39.803  52.187 -51.892  1.00  0.00     0.137 A 
HETATM    2  N   UNL     1     -39.296  50.970 -51.510  1.00  0.00    -0.262 N 
HETATM    3  H   UNL     1     -38.910  50.738 -50.598  1.00  0.00     0.191 HD
HETATM    4  N   UNL     1     -39.329  50.037 -52.477  1.00  0.00    -0.177 NA
HETATM    5  C   UNL     1     -39.892  50.670 -53.514  1.00  0.00     0.065 A 
HETATM    6  C   UNL     1     -40.124  49.940 -54.786  1.00  0.00     0.073 C 
HETATM    7  C   UNL     1     -40.204  52.025 -53.204  1.00  0.00     0.046 A 
ENDROOT
BRANCH   1   8
HETATM    8  N   UNL     1     -39.855  53.292 -51.058  1.00  0.00    -0.309 N 
HETATM    9  C   UNL     1     -40.292  53.193 -49.741  1.00  0.00     0.247 C 
HETATM   10  O   UNL     1     -40.606  52.129 -49.207  1.00  0.00    -0.271 OA
HETATM   11  H   UNL     1     -39.582  54.187 -51.446  1.00  0.00     0.170 HD
BRANCH   9  12
HETATM   12  C   UNL     1     -40.344  54.544 -49.025  1.00  0.00     0.278 C 
BRANCH  12  13
HETATM   13  O   UNL     1     -41.609  55.151 -49.253  1.00  0.00    -0.342 OA
BRANCH  13  14
HETATM   14  C   UNL     1     -41.733  55.964 -50.346  1.00  0.00     0.075 A 
HETATM   15  C   UNL     1     -42.698  55.571 -51.290  1.00  0.00    -0.029 A 
HETATM   16  C   UNL     1     -43.521  54.329 -51.077  1.00  0.00     0.051 C 
HETATM   17  C   UNL     1     -42.905  56.356 -52.434  1.00  0.00     0.009 A 
HETATM   18  C   UNL     1     -42.160  57.517 -52.639  1.00  0.00     0.001 A 
HETATM   19  C   UNL     1     -41.211  57.906 -51.700  1.00  0.00     0.003 A 
HETATM   20  C   UNL     1     -40.999  57.135 -50.553  1.00  0.00     0.037 A 
ENDBRANCH  13  14
ENDBRANCH  12  13
ENDBRANCH   9  12
ENDBRANCH   1   8
BRANCH   7  21
HETATM   21  C   UNL     1     -40.805  53.055 -54.026  1.00  0.00    -0.020 A 
HETATM   22  C   UNL     1     -40.047  54.148 -54.468  1.00  0.00     0.014 A 
HETATM   23  C   UNL     1     -40.637  55.144 -55.250  1.00  0.00     0.020 A 
HETATM   24  C   UNL     1     -41.987  55.052 -55.584  1.00  0.00     0.011 A 
HETATM   25 BR   UNL     1     -42.788  56.403 -56.635  1.00  0.00    -0.051 Br
HETATM   26  C   UNL     1     -42.752  53.973 -55.145  1.00  0.00     0.020 A 
HETATM   27  C   UNL     1     -42.162  52.975 -54.366  1.00  0.00     0.014 A 
ENDBRANCH   7  21
TORSDOF 5
ENDMDL
MODEL 2
REMARK VINA RESULT:      -7.8      1.122      1.632
REMARK  5 active torsions:
REMARK  status: ('A' for Active; 'I' for Inactive)
REMARK    1  A    between atoms: C_3  and  O_4 
REMARK    2  A    between atoms: O_4  and  C_5 
REMARK    3  A    between atoms: C_5  and  C_6 
REMARK       I    between atoms: C_6  and  N_7 
REMARK    4  A    between atoms: N_7  and  C_8 
REMARK    5  A    between atoms: C_14  and  C_15 
ROOT
HETATM    1  C   UNL     1     -40.562  52.731 -51.566  1.00  0.00     0.137 A 
HETATM    2  N   UNL     1     -39.900  51.664 -51.013  1.00  0.00    -0.262 N 
HETATM    3  H   UNL     1     -39.744  51.500 -50.021  1.00  0.00     0.191 HD
HETATM    4  N   UNL     1     -39.427  50.788 -51.916  1.00  0.00    -0.177 NA
HETATM    5  C   UNL     1     -39.811  51.301 -53.092  1.00  0.00     0.065 A 
HETATM    6  C   UNL     1     -39.486  50.584 -54.350  1.00  0.00     0.073 C 
HETATM    7  C   UNL     1     -40.523  52.525 -52.931  1.00  0.00     0.046 A 
ENDROOT
BRANCH   1   8
HETATM    8  N   UNL     1     -41.119  53.758 -50.820  1.00  0.00    -0.309 N 
HETATM    9  C   UNL     1     -40.354  54.526 -49.949  1.00  0.00     0.247 C 
HETATM   10  O   UNL     1     -39.137  54.395 -49.817  1.00  0.00    -0.271 OA
HETATM   11  H   UNL     1     -42.115  53.920 -50.913  1.00  0.00     0.170 HD
BRANCH   9  12
HETATM   12  C   UNL     1     -41.182  55.549 -49.168  1.00  0.00     0.278 C 
BRANCH  12  13
HETATM   13  O   UNL     1     -42.108  56.175 -50.044  1.00  0.00    -0.342 OA
BRANCH  13  14
HETATM   14  C   UNL     1     -41.619  57.095 -50.930  1.00  0.00     0.075 A 
HETATM   15  C   UNL     1     -42.236  57.112 -52.193  1.00  0.00    -0.029 A 
HETATM   16  C   UNL     1     -43.359  56.163 -52.514  1.00  0.00     0.051 C 
HETATM   17  C   UNL     1     -41.809  58.037 -53.158  1.00  0.00     0.009 A 
HETATM   18  C   UNL     1     -40.779  58.932 -52.873  1.00  0.00     0.001 A 
HETATM   19  C   UNL     1     -40.174  58.917 -51.620  1.00  0.00     0.003 A 
HETATM   20  C   UNL     1     -40.594  58.004 -50.648  1.00  0.00     0.037 A 
ENDBRANCH  13  14
ENDBRANCH  12  13
ENDBRANCH   9  12
ENDBRANCH   1   8
BRANCH   7  21
HETATM   21  C   UNL     1     -41.101  53.405 -53.925  1.00  0.00    -0.020 A 
HETATM   22  C   UNL     1     -42.364  53.136 -54.469  1.00  0.00     0.014 A 
HETATM   23  C   UNL     1     -42.909  53.983 -55.437  1.00  0.00     0.020 A 
HETATM   24  C   UNL     1     -42.187  55.096 -55.868  1.00  0.00     0.011 A 
HETATM   25 BR   UNL     1     -42.920  56.238 -57.183  1.00  0.00    -0.051 Br
HETATM   26  C   UNL     1     -40.927  55.370 -55.339  1.00  0.00     0.020 A 
HETATM   27  C   UNL     1     -40.384  54.525 -54.368  1.00  0.00     0.014 A 
ENDBRANCH   7  21
TORSDOF 5
ENDMDL
MODEL 3
REMARK VINA RESULT:      -7.3      3.224      5.194
REMARK  5 active torsions:
REMARK  status: ('A' for Active; 'I' for Inactive)
REMARK    1  A    between atoms: C_3  and  O_4 
REMARK    2  A    between atoms: O_4  and  C_5 
REMARK    3  A    between atoms: C_5  and  C_6 
REMARK       I    between atoms: C_6  and  N_7 
REMARK    4  A    between atoms: N_7  and  C_8 
REMARK    5  A    between atoms: C_14  and  C_15 
ROOT
HETATM    1  C   UNL     1     -42.850  57.393 -54.497  1.00  0.00     0.137 A 
HETATM    2  N   UNL     1     -43.406  58.411 -55.231  1.00  0.00    -0.262 N 
HETATM    3  H   UNL     1     -43.757  59.294 -54.867  1.00  0.00     0.191 HD
HETATM    4  N   UNL     1     -43.476  58.158 -56.549  1.00  0.00    -0.177 NA
HETATM    5  C   UNL     1     -42.931  56.941 -56.671  1.00  0.00     0.065 A 
HETATM    6  C   UNL     1     -42.806  56.320 -58.014  1.00  0.00     0.073 C 
HETATM    7  C   UNL     1     -42.526  56.411 -55.413  1.00  0.00     0.046 A 
ENDROOT
BRANCH   1   8
HETATM    8  N   UNL     1     -42.693  57.437 -53.121  1.00  0.00    -0.309 N 
HETATM    9  C   UNL     1     -41.563  57.996 -52.533  1.00  0.00     0.247 C 
HETATM   10  O   UNL     1     -40.659  58.534 -53.172  1.00  0.00    -0.271 OA
HETATM   11  H   UNL     1     -43.423  57.028 -52.551  1.00  0.00     0.170 HD
BRANCH   9  12
HETATM   12  C   UNL     1     -41.558  57.869 -51.008  1.00  0.00     0.278 C 
BRANCH  12  13
HETATM   13  O   UNL     1     -42.240  56.681 -50.630  1.00  0.00    -0.342 OA
BRANCH  13  14
HETATM   14  C   UNL     1     -41.499  55.539 -50.504  1.00  0.00     0.075 A 
HETATM   15  C   UNL     1     -42.085  54.373 -51.028  1.00  0.00    -0.029 A 
HETATM   16  C   UNL     1     -43.442  54.419 -51.677  1.00  0.00     0.051 C 
HETATM   17  C   UNL     1     -41.388  53.158 -50.958  1.00  0.00     0.009 A 
HETATM   18  C   UNL     1     -40.124  53.100 -50.372  1.00  0.00     0.001 A 
HETATM   19  C   UNL     1     -39.544  54.257 -49.861  1.00  0.00     0.003 A 
HETATM   20  C   UNL     1     -40.226  55.475 -49.929  1.00  0.00     0.037 A 
ENDBRANCH  13  14
ENDBRANCH  12  13
ENDBRANCH   9  12
ENDBRANCH   1   8
BRANCH   7  21
HETATM   21  C   UNL     1     -41.911  55.140 -55.090  1.00  0.00    -0.020 A 
HETATM   22  C   UNL     1     -42.682  53.972 -55.012  1.00  0.00     0.014 A 
HETATM   23  C   UNL     1     -42.082  52.752 -54.688  1.00  0.00     0.020 A 
HETATM   24  C   UNL     1     -40.712  52.701 -54.435  1.00  0.00     0.011 A 
HETATM   25 BR   UNL     1     -39.902  51.053 -53.989  1.00  0.00    -0.051 Br
HETATM   26  C   UNL     1     -39.936  53.857 -54.504  1.00  0.00     0.020 A 
HETATM   27  C   UNL     1     -40.535  55.076 -54.831  1.00  0.00     0.014 A 
ENDBRANCH   7  21
TORSDOF 5
ENDMDL
MODEL 4
REMARK VINA RESULT:      -7.2      3.485      6.840
REMARK  5 active torsions:
REMARK  status: ('A' for Active; 'I' for Inactive)
REMARK    1  A    between atoms: C_3  and  O_4 
REMARK    2  A    between atoms: O_4  and  C_5 
REMARK    3  A    between atoms: C_5  and  C_6 
REMARK       I    between atoms: C_6  and  N_7 
REMARK    4  A    between atoms: N_7  and  C_8 
REMARK    5  A    between atoms: C_14  and  C_15 
ROOT
HETATM    1  C   UNL     1     -43.113  56.171 -54.018  1.00  0.00     0.137 A 
HETATM    2  N   UNL     1     -44.349  56.042 -54.600  1.00  0.00    -0.262 N 
HETATM    3  H   UNL     1     -44.672  55.256 -55.161  1.00  0.00     0.191 HD
HETATM    4  N   UNL     1     -45.166  57.086 -54.383  1.00  0.00    -0.177 NA
HETATM    5  C   UNL     1     -44.437  57.911 -53.621  1.00  0.00     0.065 A 
HETATM    6  C   UNL     1     -45.024  59.190 -53.148  1.00  0.00     0.073 C 
HETATM    7  C   UNL     1     -43.136  57.389 -53.366  1.00  0.00     0.046 A 
ENDROOT
BRANCH   1   8
HETATM    8  N   UNL     1     -42.112  55.218 -54.124  1.00  0.00    -0.309 N 
HETATM    9  C   UNL     1     -41.721  54.704 -55.356  1.00  0.00     0.247 C 
HETATM   10  O   UNL     1     -42.184  55.086 -56.430  1.00  0.00    -0.271 OA
HETATM   11  H   UNL     1     -41.684  54.889 -53.267  1.00  0.00     0.170 HD
BRANCH   9  12
HETATM   12  C   UNL     1     -40.659  53.608 -55.236  1.00  0.00     0.278 C 
BRANCH  12  13
HETATM   13  O   UNL     1     -40.373  53.375 -53.864  1.00  0.00    -0.342 OA
BRANCH  13  14
HETATM   14  C   UNL     1     -40.110  52.088 -53.483  1.00  0.00     0.075 A 
HETATM   15  C   UNL     1     -39.811  51.906 -52.121  1.00  0.00    -0.029 A 
HETATM   16  C   UNL     1     -39.793  53.075 -51.175  1.00  0.00     0.051 C 
HETATM   17  C   UNL     1     -39.546  50.615 -51.639  1.00  0.00     0.009 A 
HETATM   18  C   UNL     1     -39.572  49.519 -52.500  1.00  0.00     0.001 A 
HETATM   19  C   UNL     1     -39.874  49.702 -53.846  1.00  0.00     0.003 A 
HETATM   20  C   UNL     1     -40.146  50.982 -54.338  1.00  0.00     0.037 A 
ENDBRANCH  13  14
ENDBRANCH  12  13
ENDBRANCH   9  12
ENDBRANCH   1   8
BRANCH   7  21
HETATM   21  C   UNL     1     -42.038  57.950 -52.607  1.00  0.00    -0.020 A 
HETATM   22  C   UNL     1     -42.119  58.065 -51.213  1.00  0.00     0.014 A 
HETATM   23  C   UNL     1     -41.061  58.619 -50.489  1.00  0.00     0.020 A 
HETATM   24  C   UNL     1     -39.923  59.066 -51.160  1.00  0.00     0.011 A 
HETATM   25 BR   UNL     1     -38.494  59.824 -50.182  1.00  0.00    -0.051 Br
HETATM   26  C   UNL     1     -39.834  58.963 -52.547  1.00  0.00     0.020 A 
HETATM   27  C   UNL     1     -40.891  58.406 -53.270  1.00  0.00     0.014 A 
ENDBRANCH   7  21
TORSDOF 5
ENDMDL
MODEL 5
REMARK VINA RESULT:      -7.2      2.118      5.497
REMARK  5 active torsions:
REMARK  status: ('A' for Active; 'I' for Inactive)
REMARK    1  A    between atoms: C_3  and  O_4 
REMARK    2  A    between atoms: O_4  and  C_5 
REMARK    3  A    between atoms: C_5  and  C_6 
REMARK       I    between atoms: C_6  and  N_7 
REMARK    4  A    between atoms: N_7  and  C_8 
REMARK    5  A    between atoms: C_14  and  C_15 
ROOT
HETATM    1  C   UNL     1     -41.611  56.556 -51.018  1.00  0.00     0.137 A 
HETATM    2  N   UNL     1     -41.330  57.395 -49.969  1.00  0.00    -0.262 N 
HETATM    3  H   UNL     1     -41.127  57.116 -49.011  1.00  0.00     0.191 HD
HETATM    4  N   UNL     1     -41.346  58.699 -50.294  1.00  0.00    -0.177 NA
HETATM    5  C   UNL     1     -41.633  58.700 -51.602  1.00  0.00     0.065 A 
HETATM    6  C   UNL     1     -41.714  59.986 -52.338  1.00  0.00     0.073 C 
HETATM    7  C   UNL     1     -41.816  57.380 -52.107  1.00  0.00     0.046 A 
ENDROOT
BRANCH   1   8
HETATM    8  N   UNL     1     -41.660  55.176 -50.903  1.00  0.00    -0.309 N 
HETATM    9  C   UNL     1     -40.677  54.464 -50.222  1.00  0.00     0.247 C 
HETATM   10  O   UNL     1     -39.738  54.997 -49.632  1.00  0.00    -0.271 OA
HETATM   11  H   UNL     1     -42.429  54.693 -51.353  1.00  0.00     0.170 HD
BRANCH   9  12
HETATM   12  C   UNL     1     -40.883  52.949 -50.286  1.00  0.00     0.278 C 
BRANCH  12  13
HETATM   13  O   UNL     1     -39.718  52.336 -50.819  1.00  0.00    -0.342 OA
BRANCH  13  14
HETATM   14  C   UNL     1     -39.819  51.745 -52.048  1.00  0.00     0.075 A 
HETATM   15  C   UNL     1     -39.608  50.355 -52.074  1.00  0.00    -0.029 A 
HETATM   16  C   UNL     1     -39.291  49.601 -50.810  1.00  0.00     0.051 C 
HETATM   17  C   UNL     1     -39.710  49.663 -53.290  1.00  0.00     0.009 A 
HETATM   18  C   UNL     1     -40.016  50.344 -54.467  1.00  0.00     0.001 A 
HETATM   19  C   UNL     1     -40.231  51.718 -54.437  1.00  0.00     0.003 A 
HETATM   20  C   UNL     1     -40.137  52.418 -53.231  1.00  0.00     0.037 A 
ENDBRANCH  13  14
ENDBRANCH  12  13
ENDBRANCH   9  12
ENDBRANCH   1   8
BRANCH   7  21
HETATM   21  C   UNL     1     -42.143  56.930 -53.444  1.00  0.00    -0.020 A 
HETATM   22  C   UNL     1     -41.208  56.216 -54.205  1.00  0.00     0.014 A 
HETATM   23  C   UNL     1     -41.527  55.796 -55.500  1.00  0.00     0.020 A 
HETATM   24  C   UNL     1     -42.778  56.098 -56.036  1.00  0.00     0.011 A 
HETATM   25 BR   UNL     1     -43.207  55.539 -57.789  1.00  0.00    -0.051 Br
HETATM   26  C   UNL     1     -43.713  56.814 -55.290  1.00  0.00     0.020 A 
HETATM   27  C   UNL     1     -43.396  57.231 -53.995  1.00  0.00     0.014 A 
ENDBRANCH   7  21
TORSDOF 5
ENDMDL
MODEL 6
REMARK VINA RESULT:      -7.2      3.223      5.539
REMARK  5 active torsions:
REMARK  status: ('A' for Active; 'I' for Inactive)
REMARK    1  A    between atoms: C_3  and  O_4 
REMARK    2  A    between atoms: O_4  and  C_5 
REMARK    3  A    between atoms: C_5  and  C_6 
REMARK       I    between atoms: C_6  and  N_7 
REMARK    4  A    between atoms: N_7  and  C_8 
REMARK    5  A    between atoms: C_14  and  C_15 
ROOT
HETATM    1  C   UNL     1     -41.303  55.875 -51.238  1.00  0.00     0.137 A 
HETATM    2  N   UNL     1     -41.494  56.589 -50.082  1.00  0.00    -0.262 N 
HETATM    3  H   UNL     1     -41.806  57.555 -50.015  1.00  0.00     0.191 HD
HETATM    4  N   UNL     1     -41.220  55.898 -48.962  1.00  0.00    -0.177 NA
HETATM    5  C   UNL     1     -40.854  54.691 -49.412  1.00  0.00     0.065 A 
HETATM    6  C   UNL     1     -40.492  53.622 -48.446  1.00  0.00     0.073 C 
HETATM    7  C   UNL     1     -40.882  54.622 -50.835  1.00  0.00     0.046 A 
ENDROOT
BRANCH   1   8
HETATM    8  N   UNL     1     -41.514  56.396 -52.505  1.00  0.00    -0.309 N 
HETATM    9  C   UNL     1     -41.101  57.680 -52.844  1.00  0.00     0.247 C 
HETATM   10  O   UNL     1     -40.478  58.417 -52.081  1.00  0.00    -0.271 OA
HETATM   11  H   UNL     1     -42.003  55.816 -53.176  1.00  0.00     0.170 HD
BRANCH   9  12
HETATM   12  C   UNL     1     -41.505  58.081 -54.265  1.00  0.00     0.278 C 
BRANCH  12  13
HETATM   13  O   UNL     1     -42.384  57.103 -54.801  1.00  0.00    -0.342 OA
BRANCH  13  14
HETATM   14  C   UNL     1     -42.527  57.058 -56.161  1.00  0.00     0.075 A 
HETATM   15  C   UNL     1     -42.876  55.805 -56.695  1.00  0.00    -0.029 A 
HETATM   16  C   UNL     1     -43.071  54.614 -55.797  1.00  0.00     0.051 C 
HETATM   17  C   UNL     1     -43.062  55.672 -58.079  1.00  0.00     0.009 A 
HETATM   18  C   UNL     1     -42.898  56.769 -58.923  1.00  0.00     0.001 A 
HETATM   19  C   UNL     1     -42.559  58.009 -58.391  1.00  0.00     0.003 A 
HETATM   20  C   UNL     1     -42.377  58.156 -57.013  1.00  0.00     0.037 A 
ENDBRANCH  13  14
ENDBRANCH  12  13
ENDBRANCH   9  12
ENDBRANCH   1   8
BRANCH   7  21
HETATM   21  C   UNL     1     -40.556  53.525 -51.722  1.00  0.00    -0.020 A 
HETATM   22  C   UNL     1     -41.086  53.474 -53.018  1.00  0.00     0.014 A 
HETATM   23  C   UNL     1     -40.777  52.406 -53.864  1.00  0.00     0.020 A 
HETATM   24  C   UNL     1     -39.943  51.384 -53.411  1.00  0.00     0.011 A 
HETATM   25 BR   UNL     1     -39.532  49.935 -54.552  1.00  0.00    -0.051 Br
HETATM   26  C   UNL     1     -39.416  51.421 -52.122  1.00  0.00     0.020 A 
HETATM   27  C   UNL     1     -39.722  52.491 -51.278  1.00  0.00     0.014 A 
ENDBRANCH   7  21
TORSDOF 5
ENDMDL
MODEL 7
REMARK VINA RESULT:      -7.2      3.694      5.613
REMARK  5 active torsions:
REMARK  status: ('A' for Active; 'I' for Inactive)
REMARK    1  A    between atoms: C_3  and  O_4 
REMARK    2  A    between atoms: O_4  and  C_5 
REMARK    3  A    between atoms: C_5  and  C_6 
REMARK       I    between atoms: C_6  and  N_7 
REMARK    4  A    between atoms: N_7  and  C_8 
REMARK    5  A    between atoms: C_14  and  C_15 
ROOT
HETATM    1  C   UNL     1     -44.345  56.934 -55.328  1.00  0.00     0.137 A 
HETATM    2  N   UNL     1     -44.934  57.757 -56.255  1.00  0.00    -0.262 N 
HETATM    3  H   UNL     1     -45.679  58.428 -56.078  1.00  0.00     0.191 HD
HETATM    4  N   UNL     1     -44.447  57.615 -57.499  1.00  0.00    -0.177 NA
HETATM    5  C   UNL     1     -43.500  56.677 -57.367  1.00  0.00     0.065 A 
HETATM    6  C   UNL     1     -42.705  56.261 -58.549  1.00  0.00     0.073 C 
HETATM    7  C   UNL     1     -43.398  56.210 -56.025  1.00  0.00     0.046 A 
ENDROOT
BRANCH   1   8
HETATM    8  N   UNL     1     -44.703  56.907 -53.989  1.00  0.00    -0.309 N 
HETATM    9  C   UNL     1     -44.426  57.972 -53.138  1.00  0.00     0.247 C 
HETATM   10  O   UNL     1     -43.905  59.023 -53.511  1.00  0.00    -0.271 OA
HETATM   11  H   UNL     1     -45.157  56.072 -53.641  1.00  0.00     0.170 HD
BRANCH   9  12
HETATM   12  C   UNL     1     -44.835  57.701 -51.689  1.00  0.00     0.278 C 
BRANCH  12  13
HETATM   13  O   UNL     1     -43.670  57.522 -50.895  1.00  0.00    -0.342 OA
BRANCH  13  14
HETATM   14  C   UNL     1     -43.047  56.306 -50.951  1.00  0.00     0.075 A 
HETATM   15  C   UNL     1     -41.643  56.338 -50.880  1.00  0.00    -0.029 A 
HETATM   16  C   UNL     1     -40.909  57.645 -50.751  1.00  0.00     0.051 C 
HETATM   17  C   UNL     1     -40.922  55.135 -50.912  1.00  0.00     0.009 A 
HETATM   18  C   UNL     1     -41.588  53.914 -51.017  1.00  0.00     0.001 A 
HETATM   19  C   UNL     1     -42.977  53.885 -51.081  1.00  0.00     0.003 A 
HETATM   20  C   UNL     1     -43.707  55.077 -51.044  1.00  0.00     0.037 A 
ENDBRANCH  13  14
ENDBRANCH  12  13
ENDBRANCH   9  12
ENDBRANCH   1   8
BRANCH   7  21
HETATM   21  C   UNL     1     -42.525  55.207 -55.450  1.00  0.00    -0.020 A 
HETATM   22  C   UNL     1     -41.179  55.498 -55.189  1.00  0.00     0.014 A 
HETATM   23  C   UNL     1     -40.340  54.521 -54.647  1.00  0.00     0.020 A 
HETATM   24  C   UNL     1     -40.845  53.251 -54.372  1.00  0.00     0.011 A 
HETATM   25 BR   UNL     1     -39.708  51.927 -53.646  1.00  0.00    -0.051 Br
HETATM   26  C   UNL     1     -42.180  52.949 -54.633  1.00  0.00     0.020 A 
HETATM   27  C   UNL     1     -43.019  53.926 -55.173  1.00  0.00     0.014 A 
ENDBRANCH   7  21
TORSDOF 5
ENDMDL
MODEL 8
REMARK VINA RESULT:      -6.9      3.343      5.437
REMARK  5 active torsions:
REMARK  status: ('A' for Active; 'I' for Inactive)
REMARK    1  A    between atoms: C_3  and  O_4 
REMARK    2  A    between atoms: O_4  and  C_5 
REMARK    3  A    between atoms: C_5  and  C_6 
REMARK       I    between atoms: C_6  and  N_7 
REMARK    4  A    between atoms: N_7  and  C_8 
REMARK    5  A    between atoms: C_14  and  C_15 
ROOT
HETATM    1  C   UNL     1     -42.523  55.256 -55.524  1.00  0.00     0.137 A 
HETATM    2  N   UNL     1     -43.000  55.079 -56.800  1.00  0.00    -0.262 N 
HETATM    3  H   UNL     1     -43.058  54.197 -57.304  1.00  0.00     0.191 HD
HETATM    4  N   UNL     1     -43.407  56.215 -57.392  1.00  0.00    -0.177 NA
HETATM    5  C   UNL     1     -43.199  57.154 -56.461  1.00  0.00     0.065 A 
HETATM    6  C   UNL     1     -43.560  58.566 -56.745  1.00  0.00     0.073 C 
HETATM    7  C   UNL     1     -42.640  56.608 -55.270  1.00  0.00     0.046 A 
ENDROOT
BRANCH   1   8
HETATM    8  N   UNL     1     -42.042  54.223 -54.736  1.00  0.00    -0.309 N 
HETATM    9  C   UNL     1     -40.679  53.978 -54.606  1.00  0.00     0.247 C 
HETATM   10  O   UNL     1     -39.809  54.679 -55.123  1.00  0.00    -0.271 OA
HETATM   11  H   UNL     1     -42.720  53.632 -54.271  1.00  0.00     0.170 HD
BRANCH   9  12
HETATM   12  C   UNL     1     -40.372  52.744 -53.755  1.00  0.00     0.278 C 
BRANCH  12  13
HETATM   13  O   UNL     1     -41.293  52.672 -52.676  1.00  0.00    -0.342 OA
BRANCH  13  14
HETATM   14  C   UNL     1     -41.024  53.421 -51.564  1.00  0.00     0.075 A 
HETATM   15  C   UNL     1     -42.107  54.158 -51.050  1.00  0.00    -0.029 A 
HETATM   16  C   UNL     1     -43.458  54.100 -51.709  1.00  0.00     0.051 C 
HETATM   17  C   UNL     1     -41.926  54.940 -49.900  1.00  0.00     0.009 A 
HETATM   18  C   UNL     1     -40.684  54.994 -49.269  1.00  0.00     0.001 A 
HETATM   19  C   UNL     1     -39.617  54.259 -49.776  1.00  0.00     0.003 A 
HETATM   20  C   UNL     1     -39.785  53.471 -50.918  1.00  0.00     0.037 A 
ENDBRANCH  13  14
ENDBRANCH  12  13
ENDBRANCH   9  12
ENDBRANCH   1   8
BRANCH   7  21
HETATM   21  C   UNL     1     -42.255  57.261 -54.036  1.00  0.00    -0.020 A 
HETATM   22  C   UNL     1     -40.932  57.675 -53.829  1.00  0.00     0.014 A 
HETATM   23  C   UNL     1     -40.566  58.293 -52.631  1.00  0.00     0.020 A 
HETATM   24  C   UNL     1     -41.521  58.490 -51.635  1.00  0.00     0.011 A 
HETATM   25 BR   UNL     1     -41.025  59.318 -50.010  1.00  0.00    -0.051 Br
HETATM   26  C   UNL     1     -42.839  58.077 -51.826  1.00  0.00     0.020 A 
HETATM   27  C   UNL     1     -43.205  57.463 -53.026  1.00  0.00     0.014 A 
ENDBRANCH   7  21
TORSDOF 5
ENDMDL
MODEL 9
REMARK VINA RESULT:      -6.7      2.699      4.133
REMARK  5 active torsions:
REMARK  status: ('A' for Active; 'I' for Inactive)
REMARK    1  A    between atoms: C_3  and  O_4 
REMARK    2  A    between atoms: O_4  and  C_5 
REMARK    3  A    between atoms: C_5  and  C_6 
REMARK       I    between atoms: C_6  and  N_7 
REMARK    4  A    between atoms: N_7  and  C_8 
REMARK    5  A    between atoms: C_14  and  C_15 
ROOT
HETATM    1  C   UNL     1     -41.509  55.930 -50.224  1.00  0.00     0.137 A 
HETATM    2  N   UNL     1     -41.036  55.378 -49.060  1.00  0.00    -0.262 N 
HETATM    3  H   UNL     1     -40.985  55.836 -48.152  1.00  0.00     0.191 HD
HETATM    4  N   UNL     1     -40.604  54.112 -49.192  1.00  0.00    -0.177 NA
HETATM    5  C   UNL     1     -40.821  53.833 -50.484  1.00  0.00     0.065 A 
HETATM    6  C   UNL     1     -40.486  52.487 -51.013  1.00  0.00     0.073 C 
HETATM    7  C   UNL     1     -41.382  54.942 -51.180  1.00  0.00     0.046 A 
ENDROOT
BRANCH   1   8
HETATM    8  N   UNL     1     -41.991  57.226 -50.317  1.00  0.00    -0.309 N 
HETATM    9  C   UNL     1     -41.158  58.293 -50.637  1.00  0.00     0.247 C 
HETATM   10  O   UNL     1     -39.966  58.167 -50.912  1.00  0.00    -0.271 OA
HETATM   11  H   UNL     1     -42.973  57.377 -50.122  1.00  0.00     0.170 HD
BRANCH   9  12
HETATM   12  C   UNL     1     -41.879  59.643 -50.607  1.00  0.00     0.278 C 
BRANCH  12  13
HETATM   13  O   UNL     1     -43.089  59.549 -51.345  1.00  0.00    -0.342 OA
BRANCH  13  14
HETATM   14  C   UNL     1     -42.995  59.483 -52.708  1.00  0.00     0.075 A 
HETATM   15  C   UNL     1     -43.850  58.557 -53.333  1.00  0.00    -0.029 A 
HETATM   16  C   UNL     1     -44.793  57.711 -52.521  1.00  0.00     0.051 C 
HETATM   17  C   UNL     1     -43.834  58.435 -54.730  1.00  0.00     0.009 A 
HETATM   18  C   UNL     1     -42.976  59.221 -55.499  1.00  0.00     0.001 A 
HETATM   19  C   UNL     1     -42.136  60.141 -54.878  1.00  0.00     0.003 A 
HETATM   20  C   UNL     1     -42.147  60.276 -53.487  1.00  0.00     0.037 A 
ENDBRANCH  13  14
ENDBRANCH  12  13
ENDBRANCH   9  12
ENDBRANCH   1   8
BRANCH   7  21
HETATM   21  C   UNL     1     -41.758  55.075 -52.573  1.00  0.00    -0.020 A 
HETATM   22  C   UNL     1     -42.956  54.520 -53.044  1.00  0.00     0.014 A 
HETATM   23  C   UNL     1     -43.305  54.642 -54.392  1.00  0.00     0.020 A 
HETATM   24  C   UNL     1     -42.454  55.312 -55.269  1.00  0.00     0.011 A 
HETATM   25 BR   UNL     1     -42.922  55.469 -57.093  1.00  0.00    -0.051 Br
HETATM   26  C   UNL     1     -41.257  55.862 -54.813  1.00  0.00     0.020 A 
HETATM   27  C   UNL     1     -40.909  55.743 -53.465  1.00  0.00     0.014 A 
ENDBRANCH   7  21
TORSDOF 5
ENDMDL
MODEL 10
REMARK VINA RESULT:      -6.7      4.565      7.419
REMARK  5 active torsions:
REMARK  status: ('A' for Active; 'I' for Inactive)
REMARK    1  A    between atoms: C_3  and  O_4 
REMARK    2  A    between atoms: O_4  and  C_5 
REMARK    3  A    between atoms: C_5  and  C_6 
REMARK       I    between atoms: C_6  and  N_7 
REMARK    4  A    between atoms: N_7  and  C_8 
REMARK    5  A    between atoms: C_14  and  C_15 
ROOT
HETATM    1  C   UNL     1     -42.047  58.324 -54.052  1.00  0.00     0.137 A 
HETATM    2  N   UNL     1     -42.091  59.529 -53.397  1.00  0.00    -0.262 N 
HETATM    3  H   UNL     1     -42.460  60.403 -53.766  1.00  0.00     0.191 HD
HETATM    4  N   UNL     1     -41.575  59.495 -52.157  1.00  0.00    -0.177 NA
HETATM    5  C   UNL     1     -41.199  58.219 -52.001  1.00  0.00     0.065 A 
HETATM    6  C   UNL     1     -40.595  57.780 -50.718  1.00  0.00     0.073 C 
HETATM    7  C   UNL     1     -41.467  57.440 -53.163  1.00  0.00     0.046 A 
ENDROOT
BRANCH   1   8
HETATM    8  N   UNL     1     -42.514  58.136 -55.343  1.00  0.00    -0.309 N 
HETATM    9  C   UNL     1     -42.288  59.075 -56.345  1.00  0.00     0.247 C 
HETATM   10  O   UNL     1     -41.622  60.096 -56.182  1.00  0.00    -0.271 OA
HETATM   11  H   UNL     1     -43.048  57.297 -55.533  1.00  0.00     0.170 HD
BRANCH   9  12
HETATM   12  C   UNL     1     -42.957  58.706 -57.671  1.00  0.00     0.278 C 
BRANCH  12  13
HETATM   13  O   UNL     1     -42.340  57.543 -58.205  1.00  0.00    -0.342 OA
BRANCH  13  14
HETATM   14  C   UNL     1     -43.120  56.694 -58.941  1.00  0.00     0.075 A 
HETATM   15  C   UNL     1     -43.404  55.455 -58.340  1.00  0.00    -0.029 A 
HETATM   16  C   UNL     1     -42.866  55.120 -56.975  1.00  0.00     0.051 C 
HETATM   17  C   UNL     1     -44.213  54.529 -59.016  1.00  0.00     0.009 A 
HETATM   18  C   UNL     1     -44.730  54.828 -60.275  1.00  0.00     0.001 A 
HETATM   19  C   UNL     1     -44.452  56.058 -60.864  1.00  0.00     0.003 A 
HETATM   20  C   UNL     1     -43.653  56.991 -60.199  1.00  0.00     0.037 A 
ENDBRANCH  13  14
ENDBRANCH  12  13
ENDBRANCH   9  12
ENDBRANCH   1   8
BRANCH   7  21
HETATM   21  C   UNL     1     -41.215  56.038 -53.425  1.00  0.00    -0.020 A 
HETATM   22  C   UNL     1     -40.355  55.648 -54.459  1.00  0.00     0.014 A 
HETATM   23  C   UNL     1     -40.127  54.293 -54.713  1.00  0.00     0.020 A 
HETATM   24  C   UNL     1     -40.766  53.327 -53.937  1.00  0.00     0.011 A 
HETATM   25 BR   UNL     1     -40.466  51.495 -54.286  1.00  0.00    -0.051 Br
HETATM   26  C   UNL     1     -41.630  53.703 -52.910  1.00  0.00     0.020 A 
HETATM   27  C   UNL     1     -41.854  55.058 -52.654  1.00  0.00     0.014 A 
ENDBRANCH   7  21
TORSDOF 5
ENDMDL
