MODEL 1
REMARK VINA RESULT:      -9.0      0.000      0.000
REMARK  6 active torsions:
REMARK  status: ('A' for Active; 'I' for Inactive)
REMARK    1  A    between atoms: O_2  and  C_3 
REMARK    2  A    between atoms: C_5  and  C_6 
REMARK    3  A    between atoms: C_12  and  C_13 
REMARK       I    between atoms: C_13  and  N_14 
REMARK    4  A    between atoms: N_14  and  C_15 
REMARK    5  A    between atoms: C_17  and  O_18 
REMARK    6  A    between atoms: C_23  and  C_24 
ROOT
HETATM    1  C   UNL     1     -42.856  54.568 -52.290  1.00  0.00     0.118 C 
HETATM    2  N   UNL     1     -43.452  55.407 -53.352  1.00  0.00    -0.365 N 
HETATM    3  C   UNL     1     -42.782  56.531 -53.746  1.00  0.00     0.138 A 
HETATM    4  N   UNL     1     -41.766  57.055 -52.980  1.00  0.00    -0.240 N 
HETATM    5  N   UNL     1     -41.167  58.116 -53.536  1.00  0.00    -0.181 NA
HETATM    6  C   UNL     1     -41.877  58.325 -54.649  1.00  0.00     0.160 A 
HETATM    7  C   UNL     1     -42.903  57.366 -54.842  1.00  0.00     0.096 A 
HETATM    8  C   UNL     1     -41.342  56.522 -51.698  1.00  0.00     0.221 C 
HETATM    9  C   UNL     1     -42.385  55.513 -51.172  1.00  0.00     0.066 C 
HETATM   10  H   UNL     1     -44.467  55.488 -53.252  1.00  0.00     0.161 HD
ENDROOT
BRANCH   7  11
HETATM   11  C   UNL     1     -43.820  57.307 -55.970  1.00  0.00     0.261 C 
HETATM   12  N   UNL     1     -43.257  56.778 -57.115  1.00  0.00    -0.323 N 
HETATM   13  H   UNL     1     -42.262  56.588 -57.055  1.00  0.00     0.169 HD
HETATM   14  O   UNL     1     -44.972  57.708 -55.854  1.00  0.00    -0.267 OA
BRANCH  12  15
HETATM   15  C   UNL     1     -43.888  56.489 -58.340  1.00  0.00     0.037 A 
HETATM   16  C   UNL     1     -44.665  57.406 -59.051  1.00  0.00     0.066 A 
HETATM   17  C   UNL     1     -45.273  57.021 -60.246  1.00  0.00     0.067 A 
HETATM   18  C   UNL     1     -45.126  55.734 -60.745  1.00  0.00     0.036 A 
HETATM   19  C   UNL     1     -44.349  54.815 -60.045  1.00  0.00     0.005 A 
HETATM   20  C   UNL     1     -43.730  55.192 -58.849  1.00  0.00     0.029 A 
BRANCH  17  21
HETATM   21  O   UNL     1     -46.037  57.896 -60.963  1.00  0.00    -0.361 OA
HETATM   22  H   UNL     1     -45.556  58.739 -61.031  1.00  0.00     0.217 HD
ENDBRANCH  17  21
ENDBRANCH  12  15
ENDBRANCH   7  11
BRANCH   1  23
HETATM   23  C   UNL     1     -41.777  53.634 -52.839  1.00  0.00    -0.033 A 
HETATM   24  C   UNL     1     -40.889  52.961 -51.980  1.00  0.00     0.046 A 
HETATM   25  C   UNL     1     -39.927  52.075 -52.472  1.00  0.00     0.068 A 
HETATM   26  C   UNL     1     -39.788  51.893 -53.844  1.00  0.00     0.037 A 
HETATM   27  C   UNL     1     -40.622  52.587 -54.718  1.00  0.00     0.003 A 
HETATM   28  C   UNL     1     -41.602  53.454 -54.221  1.00  0.00     0.009 A 
BRANCH  25  29
HETATM   29  O   UNL     1     -39.135  51.473 -51.533  1.00  0.00    -0.356 OA
HETATM   30  C   UNL     1     -39.505  50.129 -51.240  1.00  0.00     0.210 C 
ENDBRANCH  25  29
ENDBRANCH   1  23
BRANCH   8  31
HETATM   31  C   UNL     1     -41.145  57.613 -50.666  1.00  0.00     0.409 C 
HETATM   32  F   UNL     1     -42.106  58.563 -50.733  1.00  0.00    -0.169 F 
HETATM   33  F   UNL     1     -41.229  57.072 -49.418  1.00  0.00    -0.169 F 
HETATM   34  F   UNL     1     -39.941  58.215 -50.730  1.00  0.00    -0.169 F 
ENDBRANCH   8  31
TORSDOF 6
ENDMDL
MODEL 2
REMARK VINA RESULT:      -8.9      2.625      7.771
REMARK  6 active torsions:
REMARK  status: ('A' for Active; 'I' for Inactive)
REMARK    1  A    between atoms: O_2  and  C_3 
REMARK    2  A    between atoms: C_5  and  C_6 
REMARK    3  A    between atoms: C_12  and  C_13 
REMARK       I    between atoms: C_13  and  N_14 
REMARK    4  A    between atoms: N_14  and  C_15 
REMARK    5  A    between atoms: C_17  and  O_18 
REMARK    6  A    between atoms: C_23  and  C_24 
ROOT
HETATM    1  C   UNL     1     -42.673  57.668 -58.024  1.00  0.00     0.118 C 
HETATM    2  N   UNL     1     -41.938  56.919 -56.982  1.00  0.00    -0.365 N 
HETATM    3  C   UNL     1     -42.542  56.725 -55.772  1.00  0.00     0.138 A 
HETATM    4  N   UNL     1     -43.645  57.462 -55.404  1.00  0.00    -0.240 N 
HETATM    5  N   UNL     1     -44.159  57.105 -54.219  1.00  0.00    -0.181 NA
HETATM    6  C   UNL     1     -43.310  56.171 -53.782  1.00  0.00     0.160 A 
HETATM    7  C   UNL     1     -42.275  55.884 -54.707  1.00  0.00     0.096 A 
HETATM    8  C   UNL     1     -44.235  58.517 -56.207  1.00  0.00     0.221 C 
HETATM    9  C   UNL     1     -43.278  58.912 -57.352  1.00  0.00     0.066 C 
HETATM   10  H   UNL     1     -40.944  57.160 -56.966  1.00  0.00     0.161 HD
ENDROOT
BRANCH   7  11
HETATM   11  C   UNL     1     -41.220  54.896 -54.533  1.00  0.00     0.261 C 
HETATM   12  N   UNL     1     -41.599  53.808 -53.772  1.00  0.00    -0.323 N 
HETATM   13  H   UNL     1     -42.523  53.877 -53.355  1.00  0.00     0.169 HD
HETATM   14  O   UNL     1     -40.118  55.072 -55.038  1.00  0.00    -0.267 OA
BRANCH  12  15
HETATM   15  C   UNL     1     -40.864  52.638 -53.500  1.00  0.00     0.037 A 
HETATM   16  C   UNL     1     -40.760  51.561 -54.383  1.00  0.00     0.066 A 
HETATM   17  C   UNL     1     -40.028  50.432 -54.016  1.00  0.00     0.067 A 
HETATM   18  C   UNL     1     -39.402  50.352 -52.780  1.00  0.00     0.036 A 
HETATM   19  C   UNL     1     -39.497  51.422 -51.895  1.00  0.00     0.005 A 
HETATM   20  C   UNL     1     -40.222  52.562 -52.256  1.00  0.00     0.029 A 
BRANCH  17  21
HETATM   21  O   UNL     1     -39.907  49.365 -54.859  1.00  0.00    -0.361 OA
HETATM   22  H   UNL     1     -40.002  48.549 -54.338  1.00  0.00     0.217 HD
ENDBRANCH  17  21
ENDBRANCH  12  15
ENDBRANCH   7  11
BRANCH   1  23
HETATM   23  C   UNL     1     -43.679  56.783 -58.760  1.00  0.00    -0.033 A 
HETATM   24  C   UNL     1     -44.930  57.283 -59.166  1.00  0.00     0.046 A 
HETATM   25  C   UNL     1     -45.838  56.492 -59.875  1.00  0.00     0.068 A 
HETATM   26  C   UNL     1     -45.541  55.157 -60.135  1.00  0.00     0.037 A 
HETATM   27  C   UNL     1     -44.330  54.625 -59.699  1.00  0.00     0.003 A 
HETATM   28  C   UNL     1     -43.412  55.427 -59.012  1.00  0.00     0.009 A 
BRANCH  25  29
HETATM   29  O   UNL     1     -47.012  57.100 -60.226  1.00  0.00    -0.356 OA
HETATM   30  C   UNL     1     -47.629  56.544 -61.384  1.00  0.00     0.210 C 
ENDBRANCH  25  29
ENDBRANCH   1  23
BRANCH   8  31
HETATM   31  C   UNL     1     -44.556  59.747 -55.384  1.00  0.00     0.409 C 
HETATM   32  F   UNL     1     -43.547  60.081 -54.546  1.00  0.00    -0.169 F 
HETATM   33  F   UNL     1     -44.731  60.812 -56.215  1.00  0.00    -0.169 F 
HETATM   34  F   UNL     1     -45.692  59.645 -54.667  1.00  0.00    -0.169 F 
ENDBRANCH   8  31
TORSDOF 6
ENDMDL
MODEL 3
REMARK VINA RESULT:      -8.8      1.459      2.028
REMARK  6 active torsions:
REMARK  status: ('A' for Active; 'I' for Inactive)
REMARK    1  A    between atoms: O_2  and  C_3 
REMARK    2  A    between atoms: C_5  and  C_6 
REMARK    3  A    between atoms: C_12  and  C_13 
REMARK       I    between atoms: C_13  and  N_14 
REMARK    4  A    between atoms: N_14  and  C_15 
REMARK    5  A    between atoms: C_17  and  O_18 
REMARK    6  A    between atoms: C_23  and  C_24 
ROOT
HETATM    1  C   UNL     1     -42.673  55.739 -51.356  1.00  0.00     0.118 C 
HETATM    2  N   UNL     1     -43.205  56.281 -52.625  1.00  0.00    -0.365 N 
HETATM    3  C   UNL     1     -42.452  57.195 -53.307  1.00  0.00     0.138 A 
HETATM    4  N   UNL     1     -41.399  57.841 -52.700  1.00  0.00    -0.240 N 
HETATM    5  N   UNL     1     -40.721  58.654 -53.521  1.00  0.00    -0.181 NA
HETATM    6  C   UNL     1     -41.413  58.588 -54.662  1.00  0.00     0.160 A 
HETATM    7  C   UNL     1     -42.509  57.691 -54.597  1.00  0.00     0.096 A 
HETATM    8  C   UNL     1     -41.017  57.666 -51.310  1.00  0.00     0.221 C 
HETATM    9  C   UNL     1     -42.132  56.925 -50.542  1.00  0.00     0.066 C 
HETATM   10  H   UNL     1     -44.211  56.460 -52.574  1.00  0.00     0.161 HD
ENDROOT
BRANCH   7  11
HETATM   11  C   UNL     1     -43.428  57.380 -55.682  1.00  0.00     0.261 C 
HETATM   12  N   UNL     1     -42.800  57.143 -56.889  1.00  0.00    -0.323 N 
HETATM   13  H   UNL     1     -41.798  57.306 -56.891  1.00  0.00     0.169 HD
HETATM   14  O   UNL     1     -44.636  57.349 -55.481  1.00  0.00    -0.267 OA
BRANCH  12  15
HETATM   15  C   UNL     1     -43.378  56.720 -58.102  1.00  0.00     0.037 A 
HETATM   16  C   UNL     1     -43.682  55.390 -58.396  1.00  0.00     0.066 A 
HETATM   17  C   UNL     1     -44.231  55.061 -59.636  1.00  0.00     0.067 A 
HETATM   18  C   UNL     1     -44.478  56.036 -60.593  1.00  0.00     0.036 A 
HETATM   19  C   UNL     1     -44.182  57.366 -60.306  1.00  0.00     0.005 A 
HETATM   20  C   UNL     1     -43.637  57.706 -59.064  1.00  0.00     0.029 A 
BRANCH  17  21
HETATM   21  O   UNL     1     -44.542  53.770 -59.951  1.00  0.00    -0.361 OA
HETATM   22  H   UNL     1     -45.456  53.746 -60.283  1.00  0.00     0.217 HD
ENDBRANCH  17  21
ENDBRANCH  12  15
ENDBRANCH   7  11
BRANCH   1  23
HETATM   23  C   UNL     1     -41.668  54.612 -51.594  1.00  0.00    -0.033 A 
HETATM   24  C   UNL     1     -41.651  53.893 -52.803  1.00  0.00     0.046 A 
HETATM   25  C   UNL     1     -40.709  52.889 -53.044  1.00  0.00     0.068 A 
HETATM   26  C   UNL     1     -39.803  52.534 -52.050  1.00  0.00     0.037 A 
HETATM   27  C   UNL     1     -39.833  53.196 -50.824  1.00  0.00     0.003 A 
HETATM   28  C   UNL     1     -40.760  54.219 -50.596  1.00  0.00     0.009 A 
BRANCH  25  29
HETATM   29  O   UNL     1     -40.788  52.278 -54.266  1.00  0.00    -0.356 OA
HETATM   30  C   UNL     1     -40.257  50.957 -54.288  1.00  0.00     0.210 C 
ENDBRANCH  25  29
ENDBRANCH   1  23
BRANCH   8  31
HETATM   31  C   UNL     1     -40.738  58.987 -50.626  1.00  0.00     0.409 C 
HETATM   32  F   UNL     1     -41.549  59.976 -51.068  1.00  0.00    -0.169 F 
HETATM   33  F   UNL     1     -40.980  58.863 -49.291  1.00  0.00    -0.169 F 
HETATM   34  F   UNL     1     -39.460  59.401 -50.735  1.00  0.00    -0.169 F 
ENDBRANCH   8  31
TORSDOF 6
ENDMDL
MODEL 4
REMARK VINA RESULT:      -8.2      4.047      7.743
REMARK  6 active torsions:
REMARK  status: ('A' for Active; 'I' for Inactive)
REMARK    1  A    between atoms: O_2  and  C_3 
REMARK    2  A    between atoms: C_5  and  C_6 
REMARK    3  A    between atoms: C_12  and  C_13 
REMARK       I    between atoms: C_13  and  N_14 
REMARK    4  A    between atoms: N_14  and  C_15 
REMARK    5  A    between atoms: C_17  and  O_18 
REMARK    6  A    between atoms: C_23  and  C_24 
ROOT
HETATM    1  C   UNL     1     -45.354  58.193 -54.903  1.00  0.00     0.118 C 
HETATM    2  N   UNL     1     -44.731  56.867 -54.693  1.00  0.00    -0.365 N 
HETATM    3  C   UNL     1     -43.823  56.423 -55.612  1.00  0.00     0.138 A 
HETATM    4  N   UNL     1     -43.721  57.014 -56.851  1.00  0.00    -0.240 N 
HETATM    5  N   UNL     1     -42.739  56.507 -57.609  1.00  0.00    -0.181 NA
HETATM    6  C   UNL     1     -42.257  55.509 -56.864  1.00  0.00     0.160 A 
HETATM    7  C   UNL     1     -42.890  55.402 -55.600  1.00  0.00     0.096 A 
HETATM    8  C   UNL     1     -44.564  58.100 -57.317  1.00  0.00     0.221 C 
HETATM    9  C   UNL     1     -45.778  58.270 -56.379  1.00  0.00     0.066 C 
HETATM   10  H   UNL     1     -45.402  56.180 -54.340  1.00  0.00     0.161 HD
ENDROOT
BRANCH   7  11
HETATM   11  C   UNL     1     -42.567  54.439 -54.558  1.00  0.00     0.261 C 
HETATM   12  N   UNL     1     -41.394  53.747 -54.787  1.00  0.00    -0.323 N 
HETATM   13  H   UNL     1     -40.959  53.926 -55.687  1.00  0.00     0.169 HD
HETATM   14  O   UNL     1     -43.308  54.298 -53.593  1.00  0.00    -0.267 OA
BRANCH  12  15
HETATM   15  C   UNL     1     -40.746  52.828 -53.939  1.00  0.00     0.037 A 
HETATM   16  C   UNL     1     -40.413  51.524 -54.314  1.00  0.00     0.066 A 
HETATM   17  C   UNL     1     -39.794  50.675 -53.396  1.00  0.00     0.067 A 
HETATM   18  C   UNL     1     -39.506  51.100 -52.107  1.00  0.00     0.036 A 
HETATM   19  C   UNL     1     -39.830  52.399 -51.726  1.00  0.00     0.005 A 
HETATM   20  C   UNL     1     -40.445  53.260 -52.640  1.00  0.00     0.029 A 
BRANCH  17  21
HETATM   21  O   UNL     1     -39.455  49.397 -53.734  1.00  0.00    -0.361 OA
HETATM   22  H   UNL     1     -38.800  49.073 -53.092  1.00  0.00     0.217 HD
ENDBRANCH  17  21
ENDBRANCH  12  15
ENDBRANCH   7  11
BRANCH   1  23
HETATM   23  C   UNL     1     -44.446  59.330 -54.436  1.00  0.00    -0.033 A 
HETATM   24  C   UNL     1     -43.130  59.082 -54.005  1.00  0.00     0.046 A 
HETATM   25  C   UNL     1     -42.281  60.121 -53.614  1.00  0.00     0.068 A 
HETATM   26  C   UNL     1     -42.753  61.429 -53.582  1.00  0.00     0.037 A 
HETATM   27  C   UNL     1     -44.068  61.694 -53.956  1.00  0.00     0.003 A 
HETATM   28  C   UNL     1     -44.908  60.655 -54.371  1.00  0.00     0.009 A 
BRANCH  25  29
HETATM   29  O   UNL     1     -41.020  59.749 -53.232  1.00  0.00    -0.356 OA
HETATM   30  C   UNL     1     -40.770  58.351 -53.344  1.00  0.00     0.210 C 
ENDBRANCH  25  29
ENDBRANCH   1  23
BRANCH   8  31
HETATM   31  C   UNL     1     -45.059  57.869 -58.730  1.00  0.00     0.409 C 
HETATM   32  F   UNL     1     -45.352  56.569 -58.965  1.00  0.00    -0.169 F 
HETATM   33  F   UNL     1     -46.217  58.562 -58.919  1.00  0.00    -0.169 F 
HETATM   34  F   UNL     1     -44.209  58.297 -59.684  1.00  0.00    -0.169 F 
ENDBRANCH   8  31
TORSDOF 6
ENDMDL
MODEL 5
REMARK VINA RESULT:      -8.1      3.934      7.270
REMARK  6 active torsions:
REMARK  status: ('A' for Active; 'I' for Inactive)
REMARK    1  A    between atoms: O_2  and  C_3 
REMARK    2  A    between atoms: C_5  and  C_6 
REMARK    3  A    between atoms: C_12  and  C_13 
REMARK       I    between atoms: C_13  and  N_14 
REMARK    4  A    between atoms: N_14  and  C_15 
REMARK    5  A    between atoms: C_17  and  O_18 
REMARK    6  A    between atoms: C_23  and  C_24 
ROOT
HETATM    1  C   UNL     1     -44.938  58.360 -53.024  1.00  0.00     0.118 C 
HETATM    2  N   UNL     1     -44.388  57.002 -53.225  1.00  0.00    -0.365 N 
HETATM    3  C   UNL     1     -43.454  56.817 -54.207  1.00  0.00     0.138 A 
HETATM    4  N   UNL     1     -43.263  57.762 -55.189  1.00  0.00    -0.240 N 
HETATM    5  N   UNL     1     -42.268  57.463 -56.035  1.00  0.00    -0.181 NA
HETATM    6  C   UNL     1     -41.870  56.254 -55.630  1.00  0.00     0.160 A 
HETATM    7  C   UNL     1     -42.571  55.791 -54.488  1.00  0.00     0.096 A 
HETATM    8  C   UNL     1     -44.032  58.987 -55.314  1.00  0.00     0.221 C 
HETATM    9  C   UNL     1     -45.283  58.923 -54.412  1.00  0.00     0.066 C 
HETATM   10  H   UNL     1     -45.105  56.279 -53.131  1.00  0.00     0.161 HD
ENDROOT
BRANCH   7  11
HETATM   11  C   UNL     1     -42.345  54.531 -53.796  1.00  0.00     0.261 C 
HETATM   12  N   UNL     1     -41.142  53.931 -54.115  1.00  0.00    -0.323 N 
HETATM   13  H   UNL     1     -40.617  54.390 -54.853  1.00  0.00     0.169 HD
HETATM   14  O   UNL     1     -43.183  54.093 -53.017  1.00  0.00    -0.267 OA
BRANCH  12  15
HETATM   15  C   UNL     1     -40.574  52.771 -53.555  1.00  0.00     0.037 A 
HETATM   16  C   UNL     1     -40.373  51.584 -54.264  1.00  0.00     0.066 A 
HETATM   17  C   UNL     1     -39.825  50.475 -53.618  1.00  0.00     0.067 A 
HETATM   18  C   UNL     1     -39.479  50.525 -52.275  1.00  0.00     0.036 A 
HETATM   19  C   UNL     1     -39.671  51.705 -51.563  1.00  0.00     0.005 A 
HETATM   20  C   UNL     1     -40.214  52.825 -52.202  1.00  0.00     0.029 A 
BRANCH  17  21
HETATM   21  O   UNL     1     -39.615  49.303 -54.284  1.00  0.00    -0.361 OA
HETATM   22  H   UNL     1     -39.987  48.577 -53.754  1.00  0.00     0.217 HD
ENDBRANCH  17  21
ENDBRANCH  12  15
ENDBRANCH   7  11
BRANCH   1  23
HETATM   23  C   UNL     1     -44.004  59.235 -52.189  1.00  0.00    -0.033 A 
HETATM   24  C   UNL     1     -42.876  58.694 -51.546  1.00  0.00     0.046 A 
HETATM   25  C   UNL     1     -41.996  59.495 -50.815  1.00  0.00     0.068 A 
HETATM   26  C   UNL     1     -42.263  60.850 -50.652  1.00  0.00     0.037 A 
HETATM   27  C   UNL     1     -43.401  61.402 -51.236  1.00  0.00     0.003 A 
HETATM   28  C   UNL     1     -44.267  60.602 -51.990  1.00  0.00     0.009 A 
BRANCH  25  29
HETATM   29  O   UNL     1     -40.928  58.849 -50.253  1.00  0.00    -0.356 OA
HETATM   30  C   UNL     1     -39.683  59.133 -50.883  1.00  0.00     0.210 C 
ENDBRANCH  25  29
ENDBRANCH   1  23
BRANCH   8  31
HETATM   31  C   UNL     1     -44.464  59.244 -56.742  1.00  0.00     0.409 C 
HETATM   32  F   UNL     1     -44.882  58.116 -57.363  1.00  0.00    -0.169 F 
HETATM   33  F   UNL     1     -45.526  60.097 -56.744  1.00  0.00    -0.169 F 
HETATM   34  F   UNL     1     -43.518  59.827 -57.504  1.00  0.00    -0.169 F 
ENDBRANCH   8  31
TORSDOF 6
ENDMDL
MODEL 6
REMARK VINA RESULT:      -8.0      2.711      8.009
REMARK  6 active torsions:
REMARK  status: ('A' for Active; 'I' for Inactive)
REMARK    1  A    between atoms: O_2  and  C_3 
REMARK    2  A    between atoms: C_5  and  C_6 
REMARK    3  A    between atoms: C_12  and  C_13 
REMARK       I    between atoms: C_13  and  N_14 
REMARK    4  A    between atoms: N_14  and  C_15 
REMARK    5  A    between atoms: C_17  and  O_18 
REMARK    6  A    between atoms: C_23  and  C_24 
ROOT
HETATM    1  C   UNL     1     -42.333  56.835 -58.685  1.00  0.00     0.118 C 
HETATM    2  N   UNL     1     -42.189  56.197 -57.359  1.00  0.00    -0.365 N 
HETATM    3  C   UNL     1     -42.813  56.774 -56.288  1.00  0.00     0.138 A 
HETATM    4  N   UNL     1     -43.286  58.065 -56.355  1.00  0.00    -0.240 N 
HETATM    5  N   UNL     1     -43.930  58.459 -55.249  1.00  0.00    -0.181 NA
HETATM    6  C   UNL     1     -43.792  57.418 -54.422  1.00  0.00     0.160 A 
HETATM    7  C   UNL     1     -43.103  56.328 -55.012  1.00  0.00     0.096 A 
HETATM    8  C   UNL     1     -43.137  58.938 -57.505  1.00  0.00     0.221 C 
HETATM    9  C   UNL     1     -42.110  58.344 -58.493  1.00  0.00     0.066 C 
HETATM   10  H   UNL     1     -41.242  55.844 -57.203  1.00  0.00     0.161 HD
ENDROOT
BRANCH   7  11
HETATM   11  C   UNL     1     -42.825  55.047 -54.379  1.00  0.00     0.261 C 
HETATM   12  N   UNL     1     -41.481  54.820 -54.155  1.00  0.00    -0.323 N 
HETATM   13  H   UNL     1     -40.857  55.523 -54.539  1.00  0.00     0.169 HD
HETATM   14  O   UNL     1     -43.740  54.282 -54.100  1.00  0.00    -0.267 OA
BRANCH  12  15
HETATM   15  C   UNL     1     -40.883  53.740 -53.477  1.00  0.00     0.037 A 
HETATM   16  C   UNL     1     -40.887  53.596 -52.088  1.00  0.00     0.066 A 
HETATM   17  C   UNL     1     -40.246  52.504 -51.503  1.00  0.00     0.067 A 
HETATM   18  C   UNL     1     -39.594  51.554 -52.277  1.00  0.00     0.036 A 
HETATM   19  C   UNL     1     -39.589  51.688 -53.663  1.00  0.00     0.005 A 
HETATM   20  C   UNL     1     -40.234  52.775 -54.260  1.00  0.00     0.029 A 
BRANCH  17  21
HETATM   21  O   UNL     1     -40.235  52.334 -50.148  1.00  0.00    -0.361 OA
HETATM   22  H   UNL     1     -40.543  51.433 -49.949  1.00  0.00     0.217 HD
ENDBRANCH  17  21
ENDBRANCH  12  15
ENDBRANCH   7  11
BRANCH   1  23
HETATM   23  C   UNL     1     -43.654  56.461 -59.357  1.00  0.00    -0.033 A 
HETATM   24  C   UNL     1     -44.609  57.441 -59.685  1.00  0.00     0.046 A 
HETATM   25  C   UNL     1     -45.801  57.112 -60.336  1.00  0.00     0.068 A 
HETATM   26  C   UNL     1     -46.096  55.781 -60.614  1.00  0.00     0.037 A 
HETATM   27  C   UNL     1     -45.189  54.787 -60.255  1.00  0.00     0.003 A 
HETATM   28  C   UNL     1     -43.985  55.122 -59.626  1.00  0.00     0.009 A 
BRANCH  25  29
HETATM   29  O   UNL     1     -46.637  58.159 -60.614  1.00  0.00    -0.356 OA
HETATM   30  C   UNL     1     -46.383  59.325 -59.837  1.00  0.00     0.210 C 
ENDBRANCH  25  29
ENDBRANCH   1  23
BRANCH   8  31
HETATM   31  C   UNL     1     -42.694  60.331 -57.109  1.00  0.00     0.409 C 
HETATM   32  F   UNL     1     -41.734  60.312 -56.155  1.00  0.00    -0.169 F 
HETATM   33  F   UNL     1     -42.146  60.953 -58.190  1.00  0.00    -0.169 F 
HETATM   34  F   UNL     1     -43.698  61.126 -56.691  1.00  0.00    -0.169 F 
ENDBRANCH   8  31
TORSDOF 6
ENDMDL
MODEL 7
REMARK VINA RESULT:      -8.0      2.046      7.310
REMARK  6 active torsions:
REMARK  status: ('A' for Active; 'I' for Inactive)
REMARK    1  A    between atoms: O_2  and  C_3 
REMARK    2  A    between atoms: C_5  and  C_6 
REMARK    3  A    between atoms: C_12  and  C_13 
REMARK       I    between atoms: C_13  and  N_14 
REMARK    4  A    between atoms: N_14  and  C_15 
REMARK    5  A    between atoms: C_17  and  O_18 
REMARK    6  A    between atoms: C_23  and  C_24 
ROOT
HETATM    1  C   UNL     1     -41.776  59.294 -54.587  1.00  0.00     0.118 C 
HETATM    2  N   UNL     1     -41.212  57.988 -54.181  1.00  0.00    -0.365 N 
HETATM    3  C   UNL     1     -41.753  57.356 -53.097  1.00  0.00     0.138 A 
HETATM    4  N   UNL     1     -42.561  58.032 -52.212  1.00  0.00    -0.240 N 
HETATM    5  N   UNL     1     -43.065  57.256 -51.243  1.00  0.00    -0.181 NA
HETATM    6  C   UNL     1     -42.493  56.070 -51.468  1.00  0.00     0.160 A 
HETATM    7  C   UNL     1     -41.660  56.062 -52.616  1.00  0.00     0.096 A 
HETATM    8  C   UNL     1     -42.879  59.446 -52.302  1.00  0.00     0.221 C 
HETATM    9  C   UNL     1     -41.938  60.138 -53.312  1.00  0.00     0.066 C 
HETATM   10  H   UNL     1     -40.193  57.967 -54.265  1.00  0.00     0.161 HD
ENDROOT
BRANCH   7  11
HETATM   11  C   UNL     1     -40.929  54.917 -53.137  1.00  0.00     0.261 C 
HETATM   12  N   UNL     1     -41.021  53.792 -52.341  1.00  0.00    -0.323 N 
HETATM   13  H   UNL     1     -41.503  53.929 -51.458  1.00  0.00     0.169 HD
HETATM   14  O   UNL     1     -40.304  55.007 -54.187  1.00  0.00    -0.267 OA
BRANCH  12  15
HETATM   15  C   UNL     1     -40.524  52.500 -52.602  1.00  0.00     0.037 A 
HETATM   16  C   UNL     1     -39.969  51.669 -51.626  1.00  0.00     0.066 A 
HETATM   17  C   UNL     1     -39.478  50.413 -51.982  1.00  0.00     0.067 A 
HETATM   18  C   UNL     1     -39.524  49.970 -53.296  1.00  0.00     0.036 A 
HETATM   19  C   UNL     1     -40.080  50.790 -54.275  1.00  0.00     0.005 A 
HETATM   20  C   UNL     1     -40.581  52.049 -53.927  1.00  0.00     0.029 A 
BRANCH  17  21
HETATM   21  O   UNL     1     -38.933  49.578 -51.050  1.00  0.00    -0.361 OA
HETATM   22  H   UNL     1     -38.240  50.064 -50.570  1.00  0.00     0.217 HD
ENDBRANCH  17  21
ENDBRANCH  12  15
ENDBRANCH   7  11
BRANCH   1  23
HETATM   23  C   UNL     1     -43.049  59.133 -55.418  1.00  0.00    -0.033 A 
HETATM   24  C   UNL     1     -43.136  58.170 -56.440  1.00  0.00     0.046 A 
HETATM   25  C   UNL     1     -44.309  57.990 -57.177  1.00  0.00     0.068 A 
HETATM   26  C   UNL     1     -45.405  58.817 -56.951  1.00  0.00     0.037 A 
HETATM   27  C   UNL     1     -45.327  59.811 -55.978  1.00  0.00     0.003 A 
HETATM   28  C   UNL     1     -44.159  59.973 -55.224  1.00  0.00     0.009 A 
BRANCH  25  29
HETATM   29  O   UNL     1     -44.269  57.010 -58.131  1.00  0.00    -0.356 OA
HETATM   30  C   UNL     1     -44.778  57.415 -59.398  1.00  0.00     0.210 C 
ENDBRANCH  25  29
ENDBRANCH   1  23
BRANCH   8  31
HETATM   31  C   UNL     1     -42.764  60.141 -50.962  1.00  0.00     0.409 C 
HETATM   32  F   UNL     1     -41.744  59.654 -50.217  1.00  0.00    -0.169 F 
HETATM   33  F   UNL     1     -42.494  61.461 -51.162  1.00  0.00    -0.169 F 
HETATM   34  F   UNL     1     -43.891  60.099 -50.225  1.00  0.00    -0.169 F 
ENDBRANCH   8  31
TORSDOF 6
ENDMDL
MODEL 8
REMARK VINA RESULT:      -7.9      3.578      6.072
REMARK  6 active torsions:
REMARK  status: ('A' for Active; 'I' for Inactive)
REMARK    1  A    between atoms: O_2  and  C_3 
REMARK    2  A    between atoms: C_5  and  C_6 
REMARK    3  A    between atoms: C_12  and  C_13 
REMARK       I    between atoms: C_13  and  N_14 
REMARK    4  A    between atoms: N_14  and  C_15 
REMARK    5  A    between atoms: C_17  and  O_18 
REMARK    6  A    between atoms: C_23  and  C_24 
ROOT
HETATM    1  C   UNL     1     -42.978  54.359 -51.918  1.00  0.00     0.118 C 
HETATM    2  N   UNL     1     -43.288  55.788 -51.696  1.00  0.00    -0.365 N 
HETATM    3  C   UNL     1     -42.330  56.581 -51.128  1.00  0.00     0.138 A 
HETATM    4  N   UNL     1     -41.245  56.030 -50.484  1.00  0.00    -0.240 N 
HETATM    5  N   UNL     1     -40.366  56.938 -50.041  1.00  0.00    -0.181 NA
HETATM    6  C   UNL     1     -40.948  58.103 -50.337  1.00  0.00     0.160 A 
HETATM    7  C   UNL     1     -42.180  57.951 -51.021  1.00  0.00     0.096 A 
HETATM    8  C   UNL     1     -41.031  54.605 -50.303  1.00  0.00     0.221 C 
HETATM    9  C   UNL     1     -42.324  53.828 -50.633  1.00  0.00     0.066 C 
HETATM   10  H   UNL     1     -44.249  55.927 -51.376  1.00  0.00     0.161 HD
ENDROOT
BRANCH   7  11
HETATM   11  C   UNL     1     -43.032  59.029 -51.503  1.00  0.00     0.261 C 
HETATM   12  N   UNL     1     -44.164  59.225 -50.737  1.00  0.00    -0.323 N 
HETATM   13  H   UNL     1     -44.307  58.542 -50.000  1.00  0.00     0.169 HD
HETATM   14  O   UNL     1     -42.720  59.664 -52.503  1.00  0.00    -0.267 OA
BRANCH  12  15
HETATM   15  C   UNL     1     -45.135  60.238 -50.864  1.00  0.00     0.037 A 
HETATM   16  C   UNL     1     -46.071  60.293 -51.899  1.00  0.00     0.066 A 
HETATM   17  C   UNL     1     -46.980  61.349 -51.957  1.00  0.00     0.067 A 
HETATM   18  C   UNL     1     -46.969  62.359 -51.005  1.00  0.00     0.036 A 
HETATM   19  C   UNL     1     -46.042  62.310 -49.967  1.00  0.00     0.005 A 
HETATM   20  C   UNL     1     -45.130  61.251 -49.896  1.00  0.00     0.029 A 
BRANCH  17  21
HETATM   21  O   UNL     1     -47.908  61.428 -52.954  1.00  0.00    -0.361 OA
HETATM   22  H   UNL     1     -47.511  61.901 -53.707  1.00  0.00     0.217 HD
ENDBRANCH  17  21
ENDBRANCH  12  15
ENDBRANCH   7  11
BRANCH   1  23
HETATM   23  C   UNL     1     -42.160  54.144 -53.192  1.00  0.00    -0.033 A 
HETATM   24  C   UNL     1     -42.505  54.782 -54.397  1.00  0.00     0.046 A 
HETATM   25  C   UNL     1     -41.739  54.623 -55.554  1.00  0.00     0.068 A 
HETATM   26  C   UNL     1     -40.644  53.764 -55.549  1.00  0.00     0.037 A 
HETATM   27  C   UNL     1     -40.311  53.082 -54.382  1.00  0.00     0.003 A 
HETATM   28  C   UNL     1     -41.065  53.264 -53.217  1.00  0.00     0.009 A 
BRANCH  25  29
HETATM   29  O   UNL     1     -42.172  55.310 -56.655  1.00  0.00    -0.356 OA
HETATM   30  C   UNL     1     -42.773  56.566 -56.355  1.00  0.00     0.210 C 
ENDBRANCH  25  29
ENDBRANCH   1  23
BRANCH   8  31
HETATM   31  C   UNL     1     -40.599  54.270 -48.891  1.00  0.00     0.409 C 
HETATM   32  F   UNL     1     -40.931  53.007 -48.539  1.00  0.00    -0.169 F 
HETATM   33  F   UNL     1     -39.241  54.346 -48.806  1.00  0.00    -0.169 F 
HETATM   34  F   UNL     1     -41.077  55.116 -47.957  1.00  0.00    -0.169 F 
ENDBRANCH   8  31
TORSDOF 6
ENDMDL
MODEL 9
REMARK VINA RESULT:      -7.7      3.183      4.163
REMARK  6 active torsions:
REMARK  status: ('A' for Active; 'I' for Inactive)
REMARK    1  A    between atoms: O_2  and  C_3 
REMARK    2  A    between atoms: C_5  and  C_6 
REMARK    3  A    between atoms: C_12  and  C_13 
REMARK       I    between atoms: C_13  and  N_14 
REMARK    4  A    between atoms: N_14  and  C_15 
REMARK    5  A    between atoms: C_17  and  O_18 
REMARK    6  A    between atoms: C_23  and  C_24 
ROOT
HETATM    1  C   UNL     1     -42.812  54.076 -51.939  1.00  0.00     0.118 C 
HETATM    2  N   UNL     1     -43.210  55.497 -51.830  1.00  0.00    -0.365 N 
HETATM    3  C   UNL     1     -42.333  56.375 -51.258  1.00  0.00     0.138 A 
HETATM    4  N   UNL     1     -41.264  55.927 -50.515  1.00  0.00    -0.240 N 
HETATM    5  N   UNL     1     -40.463  56.908 -50.080  1.00  0.00    -0.181 NA
HETATM    6  C   UNL     1     -41.085  58.019 -50.486  1.00  0.00     0.160 A 
HETATM    7  C   UNL     1     -42.262  57.756 -51.231  1.00  0.00     0.096 A 
HETATM    8  C   UNL     1     -40.988  54.531 -50.229  1.00  0.00     0.221 C 
HETATM    9  C   UNL     1     -42.214  53.663 -50.585  1.00  0.00     0.066 C 
HETATM   10  H   UNL     1     -44.196  55.601 -51.578  1.00  0.00     0.161 HD
ENDROOT
BRANCH   7  11
HETATM   11  C   UNL     1     -43.137  58.752 -51.833  1.00  0.00     0.261 C 
HETATM   12  N   UNL     1     -42.989  58.865 -53.201  1.00  0.00    -0.323 N 
HETATM   13  H   UNL     1     -42.234  58.314 -53.598  1.00  0.00     0.169 HD
HETATM   14  O   UNL     1     -43.908  59.401 -51.136  1.00  0.00    -0.267 OA
BRANCH  12  15
HETATM   15  C   UNL     1     -43.743  59.649 -54.096  1.00  0.00     0.037 A 
HETATM   16  C   UNL     1     -44.782  59.149 -54.883  1.00  0.00     0.066 A 
HETATM   17  C   UNL     1     -45.457  59.998 -55.760  1.00  0.00     0.067 A 
HETATM   18  C   UNL     1     -45.112  61.337 -55.873  1.00  0.00     0.036 A 
HETATM   19  C   UNL     1     -44.080  61.845 -55.088  1.00  0.00     0.005 A 
HETATM   20  C   UNL     1     -43.401  61.004 -54.200  1.00  0.00     0.029 A 
BRANCH  17  21
HETATM   21  O   UNL     1     -46.479  59.539 -56.541  1.00  0.00    -0.361 OA
HETATM   22  H   UNL     1     -47.205  60.185 -56.508  1.00  0.00     0.217 HD
ENDBRANCH  17  21
ENDBRANCH  12  15
ENDBRANCH   7  11
BRANCH   1  23
HETATM   23  C   UNL     1     -41.904  53.829 -53.144  1.00  0.00    -0.033 A 
HETATM   24  C   UNL     1     -41.031  52.727 -53.187  1.00  0.00     0.046 A 
HETATM   25  C   UNL     1     -40.228  52.473 -54.301  1.00  0.00     0.068 A 
HETATM   26  C   UNL     1     -40.231  53.356 -55.376  1.00  0.00     0.037 A 
HETATM   27  C   UNL     1     -41.050  54.483 -55.337  1.00  0.00     0.003 A 
HETATM   28  C   UNL     1     -41.873  54.721 -54.230  1.00  0.00     0.009 A 
BRANCH  25  29
HETATM   29  O   UNL     1     -39.436  51.360 -54.224  1.00  0.00    -0.356 OA
HETATM   30  C   UNL     1     -40.151  50.132 -54.318  1.00  0.00     0.210 C 
ENDBRANCH  25  29
ENDBRANCH   1  23
BRANCH   8  31
HETATM   31  C   UNL     1     -40.629  54.308 -48.775  1.00  0.00     0.409 C 
HETATM   32  F   UNL     1     -41.006  53.085 -48.334  1.00  0.00    -0.169 F 
HETATM   33  F   UNL     1     -39.276  54.365 -48.632  1.00  0.00    -0.169 F 
HETATM   34  F   UNL     1     -41.131  55.238 -47.939  1.00  0.00    -0.169 F 
ENDBRANCH   8  31
TORSDOF 6
ENDMDL
MODEL 10
REMARK VINA RESULT:      -7.6      3.902      6.599
REMARK  6 active torsions:
REMARK  status: ('A' for Active; 'I' for Inactive)
REMARK    1  A    between atoms: O_2  and  C_3 
REMARK    2  A    between atoms: C_5  and  C_6 
REMARK    3  A    between atoms: C_12  and  C_13 
REMARK       I    between atoms: C_13  and  N_14 
REMARK    4  A    between atoms: N_14  and  C_15 
REMARK    5  A    between atoms: C_17  and  O_18 
REMARK    6  A    between atoms: C_23  and  C_24 
ROOT
HETATM    1  C   UNL     1     -43.462  54.925 -51.853  1.00  0.00     0.118 C 
HETATM    2  N   UNL     1     -43.643  56.340 -51.463  1.00  0.00    -0.365 N 
HETATM    3  C   UNL     1     -42.549  57.042 -51.038  1.00  0.00     0.138 A 
HETATM    4  N   UNL     1     -41.392  56.395 -50.670  1.00  0.00    -0.240 N 
HETATM    5  N   UNL     1     -40.393  57.226 -50.343  1.00  0.00    -0.181 NA
HETATM    6  C   UNL     1     -40.956  58.435 -50.424  1.00  0.00     0.160 A 
HETATM    7  C   UNL     1     -42.306  58.391 -50.856  1.00  0.00     0.096 A 
HETATM    8  C   UNL     1     -41.225  54.953 -50.647  1.00  0.00     0.221 C 
HETATM    9  C   UNL     1     -42.598  54.259 -50.771  1.00  0.00     0.066 C 
HETATM   10  H   UNL     1     -44.513  56.488 -50.946  1.00  0.00     0.161 HD
ENDROOT
BRANCH   7  11
HETATM   11  C   UNL     1     -43.174  59.539 -51.072  1.00  0.00     0.261 C 
HETATM   12  N   UNL     1     -43.082  60.498 -50.082  1.00  0.00    -0.323 N 
HETATM   13  H   UNL     1     -42.498  60.243 -49.291  1.00  0.00     0.169 HD
HETATM   14  O   UNL     1     -43.900  59.590 -52.057  1.00  0.00    -0.267 OA
BRANCH  12  15
HETATM   15  C   UNL     1     -43.700  61.762 -50.036  1.00  0.00     0.037 A 
HETATM   16  C   UNL     1     -45.051  61.957 -49.740  1.00  0.00     0.066 A 
HETATM   17  C   UNL     1     -45.583  63.246 -49.742  1.00  0.00     0.067 A 
HETATM   18  C   UNL     1     -44.794  64.348 -50.041  1.00  0.00     0.036 A 
HETATM   19  C   UNL     1     -43.445  64.164 -50.333  1.00  0.00     0.005 A 
HETATM   20  C   UNL     1     -42.900  62.876 -50.327  1.00  0.00     0.029 A 
BRANCH  17  21
HETATM   21  O   UNL     1     -46.899  63.468 -49.454  1.00  0.00    -0.361 OA
HETATM   22  H   UNL     1     -47.115  64.387 -49.690  1.00  0.00     0.217 HD
ENDBRANCH  17  21
ENDBRANCH  12  15
ENDBRANCH   7  11
BRANCH   1  23
HETATM   23  C   UNL     1     -42.924  54.791 -53.278  1.00  0.00    -0.033 A 
HETATM   24  C   UNL     1     -41.793  54.003 -53.559  1.00  0.00     0.046 A 
HETATM   25  C   UNL     1     -41.319  53.843 -54.864  1.00  0.00     0.068 A 
HETATM   26  C   UNL     1     -41.928  54.525 -55.912  1.00  0.00     0.037 A 
HETATM   27  C   UNL     1     -43.019  55.352 -55.653  1.00  0.00     0.003 A 
HETATM   28  C   UNL     1     -43.507  55.490 -54.349  1.00  0.00     0.009 A 
BRANCH  25  29
HETATM   29  O   UNL     1     -40.223  53.038 -55.005  1.00  0.00    -0.356 OA
HETATM   30  C   UNL     1     -40.040  52.114 -53.937  1.00  0.00     0.210 C 
ENDBRANCH  25  29
ENDBRANCH   1  23
BRANCH   8  31
HETATM   31  C   UNL     1     -40.543  54.479 -49.381  1.00  0.00     0.409 C 
HETATM   32  F   UNL     1     -41.013  55.108 -48.279  1.00  0.00    -0.169 F 
HETATM   33  F   UNL     1     -40.798  53.153 -49.202  1.00  0.00    -0.169 F 
HETATM   34  F   UNL     1     -39.201  54.600 -49.405  1.00  0.00    -0.169 F 
ENDBRANCH   8  31
TORSDOF 6
ENDMDL
