MODEL 1
REMARK VINA RESULT:      -8.4      0.000      0.000
REMARK  5 active torsions:
REMARK  status: ('A' for Active; 'I' for Inactive)
REMARK    1  A    between atoms: C_2  and  N_3 
REMARK    2  A    between atoms: C_2  and  C_16 
REMARK    3  A    between atoms: N_3  and  C_6 
REMARK    4  A    between atoms: C_6  and  C_7 
REMARK    5  A    between atoms: C_19  and  C_20 
ROOT
HETATM    1  C   UNL     1     -44.171  57.460 -53.620  1.00  0.00     0.049 C 
HETATM    2  C   UNL     1     -44.014  56.139 -54.367  1.00  0.00     0.260 C 
ENDROOT
BRANCH   2   3
HETATM    3  N   UNL     1     -43.899  56.459 -55.835  1.00  0.00    -0.060 N 
HETATM    4  H   UNL     1     -44.137  55.621 -56.388  1.00  0.00     0.278 HD
HETATM    5  H   UNL     1     -44.586  57.178 -56.099  1.00  0.00     0.278 HD
BRANCH   3   6
HETATM    6  C   UNL     1     -42.549  56.902 -56.298  1.00  0.00     0.274 C 
BRANCH   6   7
HETATM    7  C   UNL     1     -42.588  57.368 -57.719  1.00  0.00     0.004 A 
HETATM    8  C   UNL     1     -43.136  56.577 -58.719  1.00  0.00     0.113 A 
HETATM    9  C   UNL     1     -43.172  56.971 -60.036  1.00  0.00     0.105 A 
HETATM   10  O   UNL     1     -43.722  55.359 -58.528  1.00  0.00    -0.322 OA
HETATM   11  O   UNL     1     -43.759  56.049 -60.839  1.00  0.00    -0.323 OA
HETATM   12  C   UNL     1     -42.664  58.186 -60.438  1.00  0.00     0.040 A 
HETATM   13  C   UNL     1     -44.036  54.995 -59.901  1.00  0.00     0.352 A 
HETATM   14  C   UNL     1     -42.099  59.010 -59.462  1.00  0.00     0.003 A 
HETATM   15  C   UNL     1     -42.057  58.605 -58.114  1.00  0.00     0.012 A 
ENDBRANCH   6   7
ENDBRANCH   3   6
ENDBRANCH   2   3
BRANCH   2  16
HETATM   16  C   UNL     1     -42.873  55.352 -53.816  1.00  0.00     0.203 A 
HETATM   17  O   UNL     1     -41.962  56.033 -53.068  1.00  0.00    -0.194 OA
HETATM   18  N   UNL     1     -40.981  55.118 -52.715  1.00  0.00    -0.106 NA
HETATM   19  C   UNL     1     -41.396  53.961 -53.259  1.00  0.00     0.189 A 
HETATM   20  N   UNL     1     -42.564  54.090 -53.989  1.00  0.00    -0.202 NA
BRANCH  19  21
HETATM   21  C   UNL     1     -40.701  52.687 -53.114  1.00  0.00     0.017 A 
HETATM   22  C   UNL     1     -40.636  51.797 -54.194  1.00  0.00     0.057 A 
HETATM   23  C   UNL     1     -39.986  50.575 -54.051  1.00  0.00     0.117 A 
HETATM   24  F   UNL     1     -39.938  49.733 -55.091  1.00  0.00    -0.206 F 
HETATM   25  C   UNL     1     -39.391  50.213 -52.849  1.00  0.00     0.042 A 
HETATM   26  C   UNL     1     -39.446  51.090 -51.768  1.00  0.00     0.004 A 
HETATM   27  C   UNL     1     -40.099  52.320 -51.899  1.00  0.00     0.016 A 
ENDBRANCH  19  21
ENDBRANCH   2  16
TORSDOF 5
ENDMDL
MODEL 2
REMARK VINA RESULT:      -8.2      1.704      2.309
REMARK  5 active torsions:
REMARK  status: ('A' for Active; 'I' for Inactive)
REMARK    1  A    between atoms: C_2  and  N_3 
REMARK    2  A    between atoms: C_2  and  C_16 
REMARK    3  A    between atoms: N_3  and  C_6 
REMARK    4  A    between atoms: C_6  and  C_7 
REMARK    5  A    between atoms: C_19  and  C_20 
ROOT
HETATM    1  C   UNL     1     -41.184  57.893 -53.123  1.00  0.00     0.049 C 
HETATM    2  C   UNL     1     -41.895  56.648 -53.643  1.00  0.00     0.260 C 
ENDROOT
BRANCH   2   3
HETATM    3  N   UNL     1     -41.772  56.649 -55.146  1.00  0.00    -0.060 N 
HETATM    4  H   UNL     1     -41.557  57.604 -55.471  1.00  0.00     0.278 HD
HETATM    5  H   UNL     1     -40.979  56.064 -55.440  1.00  0.00     0.278 HD
BRANCH   3   6
HETATM    6  C   UNL     1     -42.989  56.211 -55.895  1.00  0.00     0.274 C 
BRANCH   6   7
HETATM    7  C   UNL     1     -42.875  56.535 -57.352  1.00  0.00     0.004 A 
HETATM    8  C   UNL     1     -42.445  57.784 -57.778  1.00  0.00     0.113 A 
HETATM    9  C   UNL     1     -42.345  58.115 -59.108  1.00  0.00     0.105 A 
HETATM   10  O   UNL     1     -42.046  58.801 -56.960  1.00  0.00    -0.322 OA
HETATM   11  O   UNL     1     -41.897  59.382 -59.296  1.00  0.00    -0.323 OA
HETATM   12  C   UNL     1     -42.666  57.217 -60.101  1.00  0.00     0.040 A 
HETATM   13  C   UNL     1     -41.783  59.844 -57.939  1.00  0.00     0.352 A 
HETATM   14  C   UNL     1     -43.108  55.950 -59.713  1.00  0.00     0.003 A 
HETATM   15  C   UNL     1     -43.216  55.610 -58.351  1.00  0.00     0.012 A 
ENDBRANCH   6   7
ENDBRANCH   3   6
ENDBRANCH   2   3
BRANCH   2  16
HETATM   16  C   UNL     1     -41.367  55.420 -52.982  1.00  0.00     0.203 A 
HETATM   17  O   UNL     1     -41.091  55.509 -51.652  1.00  0.00    -0.194 OA
HETATM   18  N   UNL     1     -40.569  54.281 -51.275  1.00  0.00    -0.106 NA
HETATM   19  C   UNL     1     -40.599  53.548 -52.402  1.00  0.00     0.189 A 
HETATM   20  N   UNL     1     -41.061  54.255 -53.499  1.00  0.00    -0.202 NA
BRANCH  19  21
HETATM   21  C   UNL     1     -40.186  52.153 -52.489  1.00  0.00     0.017 A 
HETATM   22  C   UNL     1     -40.121  51.516 -53.736  1.00  0.00     0.057 A 
HETATM   23  C   UNL     1     -39.742  50.180 -53.816  1.00  0.00     0.117 A 
HETATM   24  F   UNL     1     -39.690  49.585 -55.015  1.00  0.00    -0.206 F 
HETATM   25  C   UNL     1     -39.420  49.454 -52.676  1.00  0.00     0.042 A 
HETATM   26  C   UNL     1     -39.478  50.074 -51.431  1.00  0.00     0.004 A 
HETATM   27  C   UNL     1     -39.861  51.417 -51.338  1.00  0.00     0.016 A 
ENDBRANCH  19  21
ENDBRANCH   2  16
TORSDOF 5
ENDMDL
MODEL 3
REMARK VINA RESULT:      -8.1      1.724      2.359
REMARK  5 active torsions:
REMARK  status: ('A' for Active; 'I' for Inactive)
REMARK    1  A    between atoms: C_2  and  N_3 
REMARK    2  A    between atoms: C_2  and  C_16 
REMARK    3  A    between atoms: N_3  and  C_6 
REMARK    4  A    between atoms: C_6  and  C_7 
REMARK    5  A    between atoms: C_19  and  C_20 
ROOT
HETATM    1  C   UNL     1     -42.912  57.805 -55.295  1.00  0.00     0.049 C 
HETATM    2  C   UNL     1     -42.749  56.395 -55.853  1.00  0.00     0.260 C 
ENDROOT
BRANCH   2   3
HETATM    3  N   UNL     1     -42.025  56.508 -57.171  1.00  0.00    -0.060 N 
HETATM    4  H   UNL     1     -41.059  56.828 -57.005  1.00  0.00     0.278 HD
HETATM    5  H   UNL     1     -41.946  55.584 -57.616  1.00  0.00     0.278 HD
BRANCH   3   6
HETATM    6  C   UNL     1     -42.623  57.459 -58.157  1.00  0.00     0.274 C 
BRANCH   6   7
HETATM    7  C   UNL     1     -43.717  56.808 -58.943  1.00  0.00     0.004 A 
HETATM    8  C   UNL     1     -45.030  57.246 -58.846  1.00  0.00     0.113 A 
HETATM    9  C   UNL     1     -46.058  56.657 -59.544  1.00  0.00     0.105 A 
HETATM   10  O   UNL     1     -45.454  58.304 -58.095  1.00  0.00    -0.322 OA
HETATM   11  O   UNL     1     -47.254  57.251 -59.305  1.00  0.00    -0.323 OA
HETATM   12  C   UNL     1     -45.838  55.594 -60.389  1.00  0.00     0.040 A 
HETATM   13  C   UNL     1     -46.889  58.241 -58.329  1.00  0.00     0.352 A 
HETATM   14  C   UNL     1     -44.530  55.119 -60.512  1.00  0.00     0.003 A 
HETATM   15  C   UNL     1     -43.477  55.717 -59.793  1.00  0.00     0.012 A 
ENDBRANCH   6   7
ENDBRANCH   3   6
ENDBRANCH   2   3
BRANCH   2  16
HETATM   16  C   UNL     1     -42.083  55.505 -54.858  1.00  0.00     0.203 A 
HETATM   17  O   UNL     1     -41.805  56.047 -53.640  1.00  0.00    -0.194 OA
HETATM   18  N   UNL     1     -41.149  55.064 -52.914  1.00  0.00    -0.106 NA
HETATM   19  C   UNL     1     -41.109  54.008 -53.745  1.00  0.00     0.189 A 
HETATM   20  N   UNL     1     -41.657  54.273 -54.988  1.00  0.00    -0.202 NA
BRANCH  19  21
HETATM   21  C   UNL     1     -40.548  52.708 -53.399  1.00  0.00     0.017 A 
HETATM   22  C   UNL     1     -40.490  51.690 -54.360  1.00  0.00     0.057 A 
HETATM   23  C   UNL     1     -39.967  50.445 -54.025  1.00  0.00     0.117 A 
HETATM   24  F   UNL     1     -39.925  49.481 -54.953  1.00  0.00    -0.206 F 
HETATM   25  C   UNL     1     -39.494  50.185 -52.745  1.00  0.00     0.042 A 
HETATM   26  C   UNL     1     -39.543  51.188 -51.780  1.00  0.00     0.004 A 
HETATM   27  C   UNL     1     -40.069  52.443 -52.105  1.00  0.00     0.016 A 
ENDBRANCH  19  21
ENDBRANCH   2  16
TORSDOF 5
ENDMDL
MODEL 4
REMARK VINA RESULT:      -8.1      2.830      5.510
REMARK  5 active torsions:
REMARK  status: ('A' for Active; 'I' for Inactive)
REMARK    1  A    between atoms: C_2  and  N_3 
REMARK    2  A    between atoms: C_2  and  C_16 
REMARK    3  A    between atoms: N_3  and  C_6 
REMARK    4  A    between atoms: C_6  and  C_7 
REMARK    5  A    between atoms: C_19  and  C_20 
ROOT
HETATM    1  C   UNL     1     -44.020  56.693 -55.775  1.00  0.00     0.049 C 
HETATM    2  C   UNL     1     -43.347  56.725 -54.406  1.00  0.00     0.260 C 
ENDROOT
BRANCH   2   3
HETATM    3  N   UNL     1     -44.425  56.543 -53.367  1.00  0.00    -0.060 N 
HETATM    4  H   UNL     1     -45.346  56.517 -53.830  1.00  0.00     0.278 HD
HETATM    5  H   UNL     1     -44.317  55.635 -52.896  1.00  0.00     0.278 HD
BRANCH   3   6
HETATM    6  C   UNL     1     -44.505  57.611 -52.324  1.00  0.00     0.274 C 
BRANCH   6   7
HETATM    7  C   UNL     1     -43.187  57.804 -51.643  1.00  0.00     0.004 A 
HETATM    8  C   UNL     1     -42.593  56.776 -50.925  1.00  0.00     0.113 A 
HETATM    9  C   UNL     1     -41.390  56.929 -50.276  1.00  0.00     0.105 A 
HETATM   10  O   UNL     1     -43.090  55.510 -50.803  1.00  0.00    -0.322 OA
HETATM   11  O   UNL     1     -40.992  55.794 -49.647  1.00  0.00    -0.323 OA
HETATM   12  C   UNL     1     -40.702  58.120 -50.305  1.00  0.00     0.040 A 
HETATM   13  C   UNL     1     -42.102  54.920 -49.911  1.00  0.00     0.352 A 
HETATM   14  C   UNL     1     -41.270  59.182 -51.012  1.00  0.00     0.003 A 
HETATM   15  C   UNL     1     -42.504  59.029 -51.674  1.00  0.00     0.012 A 
ENDBRANCH   6   7
ENDBRANCH   3   6
ENDBRANCH   2   3
BRANCH   2  16
HETATM   16  C   UNL     1     -42.245  55.724 -54.333  1.00  0.00     0.203 A 
HETATM   17  O   UNL     1     -41.074  56.055 -54.944  1.00  0.00    -0.194 OA
HETATM   18  N   UNL     1     -40.229  54.965 -54.793  1.00  0.00    -0.106 NA
HETATM   19  C   UNL     1     -40.952  54.082 -54.083  1.00  0.00     0.189 A 
HETATM   20  N   UNL     1     -42.237  54.521 -53.814  1.00  0.00    -0.202 NA
BRANCH  19  21
HETATM   21  C   UNL     1     -40.460  52.785 -53.634  1.00  0.00     0.017 A 
HETATM   22  C   UNL     1     -40.440  51.698 -54.517  1.00  0.00     0.057 A 
HETATM   23  C   UNL     1     -39.984  50.457 -54.084  1.00  0.00     0.117 A 
HETATM   24  F   UNL     1     -39.978  49.426 -54.939  1.00  0.00    -0.206 F 
HETATM   25  C   UNL     1     -39.539  50.269 -52.781  1.00  0.00     0.042 A 
HETATM   26  C   UNL     1     -39.551  51.341 -51.893  1.00  0.00     0.004 A 
HETATM   27  C   UNL     1     -40.010  52.593 -52.317  1.00  0.00     0.016 A 
ENDBRANCH  19  21
ENDBRANCH   2  16
TORSDOF 5
ENDMDL
MODEL 5
REMARK VINA RESULT:      -8.1      2.311      5.412
REMARK  5 active torsions:
REMARK  status: ('A' for Active; 'I' for Inactive)
REMARK    1  A    between atoms: C_2  and  N_3 
REMARK    2  A    between atoms: C_2  and  C_16 
REMARK    3  A    between atoms: N_3  and  C_6 
REMARK    4  A    between atoms: C_6  and  C_7 
REMARK    5  A    between atoms: C_19  and  C_20 
ROOT
HETATM    1  C   UNL     1     -43.722  57.336 -56.942  1.00  0.00     0.049 C 
HETATM    2  C   UNL     1     -42.439  57.267 -56.119  1.00  0.00     0.260 C 
ENDROOT
BRANCH   2   3
HETATM    3  N   UNL     1     -42.508  58.355 -55.078  1.00  0.00    -0.060 N 
HETATM    4  H   UNL     1     -41.613  58.397 -54.567  1.00  0.00     0.278 HD
HETATM    5  H   UNL     1     -42.621  59.273 -55.528  1.00  0.00     0.278 HD
BRANCH   3   6
HETATM    6  C   UNL     1     -43.579  58.198 -54.047  1.00  0.00     0.274 C 
BRANCH   6   7
HETATM    7  C   UNL     1     -43.047  57.551 -52.808  1.00  0.00     0.004 A 
HETATM    8  C   UNL     1     -41.910  58.034 -52.176  1.00  0.00     0.113 A 
HETATM    9  C   UNL     1     -41.390  57.451 -51.045  1.00  0.00     0.105 A 
HETATM   10  O   UNL     1     -41.202  59.136 -52.562  1.00  0.00    -0.322 OA
HETATM   11  O   UNL     1     -40.283  58.092 -50.592  1.00  0.00    -0.323 OA
HETATM   12  C   UNL     1     -41.976  56.347 -50.469  1.00  0.00     0.040 A 
HETATM   13  C   UNL     1     -40.116  59.109 -51.594  1.00  0.00     0.352 A 
HETATM   14  C   UNL     1     -43.120  55.826 -51.078  1.00  0.00     0.003 A 
HETATM   15  C   UNL     1     -43.652  56.419 -52.239  1.00  0.00     0.012 A 
ENDBRANCH   6   7
ENDBRANCH   3   6
ENDBRANCH   2   3
BRANCH   2  16
HETATM   16  C   UNL     1     -42.237  55.896 -55.566  1.00  0.00     0.203 A 
HETATM   17  O   UNL     1     -43.188  54.968 -55.865  1.00  0.00    -0.194 OA
HETATM   18  N   UNL     1     -42.820  53.804 -55.208  1.00  0.00    -0.106 NA
HETATM   19  C   UNL     1     -41.668  54.120 -54.590  1.00  0.00     0.189 A 
HETATM   20  N   UNL     1     -41.301  55.443 -54.770  1.00  0.00    -0.202 NA
BRANCH  19  21
HETATM   21  C   UNL     1     -40.872  53.188 -53.802  1.00  0.00     0.017 A 
HETATM   22  C   UNL     1     -40.446  51.978 -54.367  1.00  0.00     0.057 A 
HETATM   23  C   UNL     1     -39.698  51.082 -53.609  1.00  0.00     0.117 A 
HETATM   24  F   UNL     1     -39.304  49.927 -54.161  1.00  0.00    -0.206 F 
HETATM   25  C   UNL     1     -39.359  51.362 -52.292  1.00  0.00     0.042 A 
HETATM   26  C   UNL     1     -39.774  52.562 -51.719  1.00  0.00     0.004 A 
HETATM   27  C   UNL     1     -40.528  53.470 -52.470  1.00  0.00     0.016 A 
ENDBRANCH  19  21
ENDBRANCH   2  16
TORSDOF 5
ENDMDL
MODEL 6
REMARK VINA RESULT:      -8.0      1.812      2.195
REMARK  5 active torsions:
REMARK  status: ('A' for Active; 'I' for Inactive)
REMARK    1  A    between atoms: C_2  and  N_3 
REMARK    2  A    between atoms: C_2  and  C_16 
REMARK    3  A    between atoms: N_3  and  C_6 
REMARK    4  A    between atoms: C_6  and  C_7 
REMARK    5  A    between atoms: C_19  and  C_20 
ROOT
HETATM    1  C   UNL     1     -42.236  58.421 -55.477  1.00  0.00     0.049 C 
HETATM    2  C   UNL     1     -42.772  57.155 -56.137  1.00  0.00     0.260 C 
ENDROOT
BRANCH   2   3
HETATM    3  N   UNL     1     -42.115  57.035 -57.489  1.00  0.00    -0.060 N 
HETATM    4  H   UNL     1     -41.096  57.158 -57.386  1.00  0.00     0.278 HD
HETATM    5  H   UNL     1     -42.250  56.089 -57.870  1.00  0.00     0.278 HD
BRANCH   3   6
HETATM    6  C   UNL     1     -42.560  58.027 -58.515  1.00  0.00     0.274 C 
BRANCH   6   7
HETATM    7  C   UNL     1     -44.009  57.853 -58.844  1.00  0.00     0.004 A 
HETATM    8  C   UNL     1     -44.479  56.680 -59.418  1.00  0.00     0.113 A 
HETATM    9  C   UNL     1     -45.802  56.498 -59.746  1.00  0.00     0.105 A 
HETATM   10  O   UNL     1     -43.722  55.578 -59.690  1.00  0.00    -0.322 OA
HETATM   11  O   UNL     1     -46.040  55.276 -60.285  1.00  0.00    -0.323 OA
HETATM   12  C   UNL     1     -46.742  57.477 -59.518  1.00  0.00     0.040 A 
HETATM   13  C   UNL     1     -44.714  54.722 -60.324  1.00  0.00     0.352 A 
HETATM   14  C   UNL     1     -46.308  58.676 -58.947  1.00  0.00     0.003 A 
HETATM   15  C   UNL     1     -44.953  58.866 -58.615  1.00  0.00     0.012 A 
ENDBRANCH   6   7
ENDBRANCH   3   6
ENDBRANCH   2   3
BRANCH   2  16
HETATM   16  C   UNL     1     -42.578  55.972 -55.250  1.00  0.00     0.203 A 
HETATM   17  O   UNL     1     -43.686  55.486 -54.625  1.00  0.00    -0.194 OA
HETATM   18  N   UNL     1     -43.257  54.437 -53.825  1.00  0.00    -0.106 NA
HETATM   19  C   UNL     1     -41.935  54.363 -54.055  1.00  0.00     0.189 A 
HETATM   20  N   UNL     1     -41.477  55.343 -54.919  1.00  0.00    -0.202 NA
BRANCH  19  21
HETATM   21  C   UNL     1     -41.049  53.367 -53.464  1.00  0.00     0.017 A 
HETATM   22  C   UNL     1     -40.590  52.290 -54.235  1.00  0.00     0.057 A 
HETATM   23  C   UNL     1     -39.757  51.332 -53.666  1.00  0.00     0.117 A 
HETATM   24  F   UNL     1     -39.332  50.306 -54.414  1.00  0.00    -0.206 F 
HETATM   25  C   UNL     1     -39.364  51.420 -52.336  1.00  0.00     0.042 A 
HETATM   26  C   UNL     1     -39.811  52.486 -51.559  1.00  0.00     0.004 A 
HETATM   27  C   UNL     1     -40.651  53.454 -52.120  1.00  0.00     0.016 A 
ENDBRANCH  19  21
ENDBRANCH   2  16
TORSDOF 5
ENDMDL
MODEL 7
REMARK VINA RESULT:      -8.0      1.773      2.190
REMARK  5 active torsions:
REMARK  status: ('A' for Active; 'I' for Inactive)
REMARK    1  A    between atoms: C_2  and  N_3 
REMARK    2  A    between atoms: C_2  and  C_16 
REMARK    3  A    between atoms: N_3  and  C_6 
REMARK    4  A    between atoms: C_6  and  C_7 
REMARK    5  A    between atoms: C_19  and  C_20 
ROOT
HETATM    1  C   UNL     1     -43.431  58.330 -54.101  1.00  0.00     0.049 C 
HETATM    2  C   UNL     1     -44.283  57.070 -54.212  1.00  0.00     0.260 C 
ENDROOT
BRANCH   2   3
HETATM    3  N   UNL     1     -45.222  57.259 -55.377  1.00  0.00    -0.060 N 
HETATM    4  H   UNL     1     -45.417  56.345 -55.812  1.00  0.00     0.278 HD
HETATM    5  H   UNL     1     -46.129  57.618 -55.050  1.00  0.00     0.278 HD
BRANCH   3   6
HETATM    6  C   UNL     1     -44.727  58.151 -56.469  1.00  0.00     0.274 C 
BRANCH   6   7
HETATM    7  C   UNL     1     -45.183  57.670 -57.811  1.00  0.00     0.004 A 
HETATM    8  C   UNL     1     -44.309  57.037 -58.683  1.00  0.00     0.113 A 
HETATM    9  C   UNL     1     -44.696  56.599 -59.927  1.00  0.00     0.105 A 
HETATM   10  O   UNL     1     -43.002  56.746 -58.415  1.00  0.00    -0.322 OA
HETATM   11  O   UNL     1     -43.684  56.002 -60.606  1.00  0.00    -0.323 OA
HETATM   12  C   UNL     1     -45.985  56.762 -60.379  1.00  0.00     0.040 A 
HETATM   13  C   UNL     1     -42.592  56.164 -59.685  1.00  0.00     0.352 A 
HETATM   14  C   UNL     1     -46.896  57.399 -59.533  1.00  0.00     0.003 A 
HETATM   15  C   UNL     1     -46.500  57.854 -58.260  1.00  0.00     0.012 A 
ENDBRANCH   6   7
ENDBRANCH   3   6
ENDBRANCH   2   3
BRANCH   2  16
HETATM   16  C   UNL     1     -43.423  55.855 -54.305  1.00  0.00     0.203 A 
HETATM   17  O   UNL     1     -43.456  55.168 -55.480  1.00  0.00    -0.194 OA
HETATM   18  N   UNL     1     -42.631  54.065 -55.313  1.00  0.00    -0.106 NA
HETATM   19  C   UNL     1     -42.153  54.194 -54.064  1.00  0.00     0.189 A 
HETATM   20  N   UNL     1     -42.666  55.292 -53.395  1.00  0.00    -0.202 NA
BRANCH  19  21
HETATM   21  C   UNL     1     -41.195  53.283 -53.450  1.00  0.00     0.017 A 
HETATM   22  C   UNL     1     -40.655  52.226 -54.195  1.00  0.00     0.057 A 
HETATM   23  C   UNL     1     -39.752  51.348 -53.604  1.00  0.00     0.117 A 
HETATM   24  F   UNL     1     -39.250  50.340 -54.328  1.00  0.00    -0.206 F 
HETATM   25  C   UNL     1     -39.368  51.496 -52.277  1.00  0.00     0.042 A 
HETATM   26  C   UNL     1     -39.896  52.543 -51.525  1.00  0.00     0.004 A 
HETATM   27  C   UNL     1     -40.806  53.431 -52.108  1.00  0.00     0.016 A 
ENDBRANCH  19  21
ENDBRANCH   2  16
TORSDOF 5
ENDMDL
MODEL 8
REMARK VINA RESULT:      -7.9      1.701      2.031
REMARK  5 active torsions:
REMARK  status: ('A' for Active; 'I' for Inactive)
REMARK    1  A    between atoms: C_2  and  N_3 
REMARK    2  A    between atoms: C_2  and  C_16 
REMARK    3  A    between atoms: N_3  and  C_6 
REMARK    4  A    between atoms: C_6  and  C_7 
REMARK    5  A    between atoms: C_19  and  C_20 
ROOT
HETATM    1  C   UNL     1     -43.425  58.322 -54.329  1.00  0.00     0.049 C 
HETATM    2  C   UNL     1     -44.284  57.071 -54.489  1.00  0.00     0.260 C 
ENDROOT
BRANCH   2   3
HETATM    3  N   UNL     1     -45.114  57.248 -55.735  1.00  0.00    -0.060 N 
HETATM    4  H   UNL     1     -45.235  56.335 -56.199  1.00  0.00     0.278 HD
HETATM    5  H   UNL     1     -46.060  57.571 -55.492  1.00  0.00     0.278 HD
BRANCH   3   6
HETATM    6  C   UNL     1     -44.548  58.173 -56.764  1.00  0.00     0.274 C 
BRANCH   6   7
HETATM    7  C   UNL     1     -44.212  57.441 -58.025  1.00  0.00     0.004 A 
HETATM    8  C   UNL     1     -45.202  57.054 -58.916  1.00  0.00     0.113 A 
HETATM    9  C   UNL     1     -44.924  56.367 -60.075  1.00  0.00     0.105 A 
HETATM   10  O   UNL     1     -46.533  57.325 -58.782  1.00  0.00    -0.322 OA
HETATM   11  O   UNL     1     -46.040  56.099 -60.799  1.00  0.00    -0.323 OA
HETATM   12  C   UNL     1     -43.636  56.026 -60.419  1.00  0.00     0.040 A 
HETATM   13  C   UNL     1     -47.066  56.634 -59.946  1.00  0.00     0.352 A 
HETATM   14  C   UNL     1     -42.610  56.393 -59.545  1.00  0.00     0.003 A 
HETATM   15  C   UNL     1     -42.893  57.092 -58.355  1.00  0.00     0.012 A 
ENDBRANCH   6   7
ENDBRANCH   3   6
ENDBRANCH   2   3
BRANCH   2  16
HETATM   16  C   UNL     1     -43.438  55.843 -54.480  1.00  0.00     0.203 A 
HETATM   17  O   UNL     1     -43.505  55.045 -55.582  1.00  0.00    -0.194 OA
HETATM   18  N   UNL     1     -42.688  53.954 -55.326  1.00  0.00    -0.106 NA
HETATM   19  C   UNL     1     -42.179  54.199 -54.106  1.00  0.00     0.189 A 
HETATM   20  N   UNL     1     -42.666  55.363 -53.537  1.00  0.00    -0.202 NA
BRANCH  19  21
HETATM   21  C   UNL     1     -41.217  53.340 -53.426  1.00  0.00     0.017 A 
HETATM   22  C   UNL     1     -40.606  52.286 -54.118  1.00  0.00     0.057 A 
HETATM   23  C   UNL     1     -39.699  51.458 -53.465  1.00  0.00     0.117 A 
HETATM   24  F   UNL     1     -39.129  50.450 -54.139  1.00  0.00    -0.206 F 
HETATM   25  C   UNL     1     -39.378  51.656 -52.128  1.00  0.00     0.042 A 
HETATM   26  C   UNL     1     -39.975  52.701 -51.429  1.00  0.00     0.004 A 
HETATM   27  C   UNL     1     -40.891  53.539 -52.075  1.00  0.00     0.016 A 
ENDBRANCH  19  21
ENDBRANCH   2  16
TORSDOF 5
ENDMDL
MODEL 9
REMARK VINA RESULT:      -7.8      1.951      2.451
REMARK  5 active torsions:
REMARK  status: ('A' for Active; 'I' for Inactive)
REMARK    1  A    between atoms: C_2  and  N_3 
REMARK    2  A    between atoms: C_2  and  C_16 
REMARK    3  A    between atoms: N_3  and  C_6 
REMARK    4  A    between atoms: C_6  and  C_7 
REMARK    5  A    between atoms: C_19  and  C_20 
ROOT
HETATM    1  C   UNL     1     -42.100  57.679 -53.961  1.00  0.00     0.049 C 
HETATM    2  C   UNL     1     -42.403  56.325 -54.598  1.00  0.00     0.260 C 
ENDROOT
BRANCH   2   3
HETATM    3  N   UNL     1     -42.044  56.421 -56.059  1.00  0.00    -0.060 N 
HETATM    4  H   UNL     1     -42.140  57.399 -56.372  1.00  0.00     0.278 HD
HETATM    5  H   UNL     1     -41.056  56.173 -56.201  1.00  0.00     0.278 HD
BRANCH   3   6
HETATM    6  C   UNL     1     -42.878  55.595 -56.985  1.00  0.00     0.274 C 
BRANCH   6   7
HETATM    7  C   UNL     1     -43.412  56.419 -58.114  1.00  0.00     0.004 A 
HETATM    8  C   UNL     1     -44.322  57.442 -57.888  1.00  0.00     0.113 A 
HETATM    9  C   UNL     1     -44.841  58.206 -58.907  1.00  0.00     0.105 A 
HETATM   10  O   UNL     1     -44.779  57.835 -56.663  1.00  0.00    -0.322 OA
HETATM   11  O   UNL     1     -45.703  59.153 -58.459  1.00  0.00    -0.323 OA
HETATM   12  C   UNL     1     -44.481  57.998 -60.219  1.00  0.00     0.040 A 
HETATM   13  C   UNL     1     -45.727  58.869 -57.050  1.00  0.00     0.352 A 
HETATM   14  C   UNL     1     -43.571  56.973 -60.489  1.00  0.00     0.003 A 
HETATM   15  C   UNL     1     -43.042  56.187 -59.448  1.00  0.00     0.012 A 
ENDBRANCH   6   7
ENDBRANCH   3   6
ENDBRANCH   2   3
BRANCH   2  16
HETATM   16  C   UNL     1     -41.711  55.228 -53.863  1.00  0.00     0.203 A 
HETATM   17  O   UNL     1     -41.212  55.532 -52.633  1.00  0.00    -0.194 OA
HETATM   18  N   UNL     1     -40.576  54.388 -52.173  1.00  0.00    -0.106 NA
HETATM   19  C   UNL     1     -40.768  53.486 -53.151  1.00  0.00     0.189 A 
HETATM   20  N   UNL     1     -41.446  54.002 -54.242  1.00  0.00    -0.202 NA
BRANCH  19  21
HETATM   21  C   UNL     1     -40.313  52.102 -53.096  1.00  0.00     0.017 A 
HETATM   22  C   UNL     1     -39.882  51.553 -51.881  1.00  0.00     0.057 A 
HETATM   23  C   UNL     1     -39.434  50.236 -51.833  1.00  0.00     0.117 A 
HETATM   24  F   UNL     1     -39.020  49.729 -50.665  1.00  0.00    -0.206 F 
HETATM   25  C   UNL     1     -39.406  49.444 -52.973  1.00  0.00     0.042 A 
HETATM   26  C   UNL     1     -39.833  49.976 -54.187  1.00  0.00     0.004 A 
HETATM   27  C   UNL     1     -40.283  51.300 -54.248  1.00  0.00     0.016 A 
ENDBRANCH  19  21
ENDBRANCH   2  16
TORSDOF 5
ENDMDL
MODEL 10
REMARK VINA RESULT:      -7.7      2.669      3.714
REMARK  5 active torsions:
REMARK  status: ('A' for Active; 'I' for Inactive)
REMARK    1  A    between atoms: C_2  and  N_3 
REMARK    2  A    between atoms: C_2  and  C_16 
REMARK    3  A    between atoms: N_3  and  C_6 
REMARK    4  A    between atoms: C_6  and  C_7 
REMARK    5  A    between atoms: C_19  and  C_20 
ROOT
HETATM    1  C   UNL     1     -40.802  57.696 -50.828  1.00  0.00     0.049 C 
HETATM    2  C   UNL     1     -41.764  56.548 -50.535  1.00  0.00     0.260 C 
ENDROOT
BRANCH   2   3
HETATM    3  N   UNL     1     -42.910  56.658 -51.509  1.00  0.00    -0.060 N 
HETATM    4  H   UNL     1     -42.753  56.011 -52.297  1.00  0.00     0.278 HD
HETATM    5  H   UNL     1     -43.787  56.356 -51.065  1.00  0.00     0.278 HD
BRANCH   3   6
HETATM    6  C   UNL     1     -43.123  58.010 -52.108  1.00  0.00     0.274 C 
BRANCH   6   7
HETATM    7  C   UNL     1     -43.604  57.908 -53.521  1.00  0.00     0.004 A 
HETATM    8  C   UNL     1     -42.995  57.050 -54.427  1.00  0.00     0.113 A 
HETATM    9  C   UNL     1     -43.405  56.947 -55.735  1.00  0.00     0.105 A 
HETATM   10  O   UNL     1     -41.967  56.200 -54.138  1.00  0.00    -0.322 OA
HETATM   11  O   UNL     1     -42.677  56.043 -56.437  1.00  0.00    -0.323 OA
HETATM   12  C   UNL     1     -44.453  57.693 -56.223  1.00  0.00     0.040 A 
HETATM   13  C   UNL     1     -41.716  55.627 -55.452  1.00  0.00     0.352 A 
HETATM   14  C   UNL     1     -45.090  58.574 -55.344  1.00  0.00     0.003 A 
HETATM   15  C   UNL     1     -44.668  58.685 -54.005  1.00  0.00     0.012 A 
ENDBRANCH   6   7
ENDBRANCH   3   6
ENDBRANCH   2   3
BRANCH   2  16
HETATM   16  C   UNL     1     -41.052  55.238 -50.566  1.00  0.00     0.203 A 
HETATM   17  O   UNL     1     -40.138  55.014 -49.582  1.00  0.00    -0.194 OA
HETATM   18  N   UNL     1     -39.575  53.774 -49.844  1.00  0.00    -0.106 NA
HETATM   19  C   UNL     1     -40.214  53.345 -50.946  1.00  0.00     0.189 A 
HETATM   20  N   UNL     1     -41.121  54.266 -51.441  1.00  0.00    -0.202 NA
BRANCH  19  21
HETATM   21  C   UNL     1     -39.989  52.052 -51.578  1.00  0.00     0.017 A 
HETATM   22  C   UNL     1     -39.947  51.951 -52.975  1.00  0.00     0.057 A 
HETATM   23  C   UNL     1     -39.747  50.713 -53.578  1.00  0.00     0.117 A 
HETATM   24  F   UNL     1     -39.716  50.633 -54.915  1.00  0.00    -0.206 F 
HETATM   25  C   UNL     1     -39.584  49.561 -52.819  1.00  0.00     0.042 A 
HETATM   26  C   UNL     1     -39.621  49.647 -51.430  1.00  0.00     0.004 A 
HETATM   27  C   UNL     1     -39.824  50.886 -50.812  1.00  0.00     0.016 A 
ENDBRANCH  19  21
ENDBRANCH   2  16
TORSDOF 5
ENDMDL
