MODEL 1
REMARK VINA RESULT:      -8.7      0.000      0.000
REMARK  5 active torsions:
REMARK  status: ('A' for Active; 'I' for Inactive)
REMARK    1  A    between atoms: C_8  and  N_9 
REMARK    2  A    between atoms: C_12  and  N_13 
REMARK    3  A    between atoms: N_13  and  C_15 
REMARK    4  A    between atoms: C_15  and  C_16 
REMARK    5  A    between atoms: C_17  and  C_18 
ROOT
HETATM    1  N   UNL     1     -41.844  57.940 -52.095  1.00  0.00    -0.067 N 
HETATM    2  H   UNL     1     -42.821  57.775 -52.362  1.00  0.00     0.280 HD
HETATM    3  C   UNL     1     -41.853  59.104 -51.127  1.00  0.00     0.270 C 
ENDROOT
BRANCH   1   4
HETATM    4  C   UNL     1     -40.991  58.154 -53.361  1.00  0.00     0.190 C 
HETATM    5  C   UNL     1     -40.909  56.865 -54.197  1.00  0.00     0.048 C 
HETATM    6  C   UNL     1     -42.177  56.586 -55.004  1.00  0.00     0.099 C 
HETATM    7  N   UNL     1     -42.505  57.766 -55.814  1.00  0.00    -0.268 NA
HETATM    8  C   UNL     1     -42.732  58.992 -55.041  1.00  0.00     0.099 C 
HETATM    9  C   UNL     1     -41.468  59.315 -54.250  1.00  0.00     0.048 C 
BRANCH   7  10
HETATM   10  C   UNL     1     -43.434  57.528 -56.839  1.00  0.00     0.109 A 
HETATM   11  N   UNL     1     -44.640  58.123 -56.795  1.00  0.00    -0.224 NA
HETATM   12  C   UNL     1     -45.542  57.817 -57.762  1.00  0.00     0.102 A 
HETATM   13  N   UNL     1     -45.292  56.949 -58.751  1.00  0.00    -0.348 N 
HETATM   14  C   UNL     1     -46.896  58.449 -57.688  1.00  0.00     0.091 C 
HETATM   15  C   UNL     1     -44.099  56.340 -58.825  1.00  0.00     0.009 A 
HETATM   16  H   UNL     1     -46.019  56.747 -59.435  1.00  0.00     0.167 HD
HETATM   17  C   UNL     1     -43.848  55.362 -59.926  1.00  0.00     0.068 C 
HETATM   18  C   UNL     1     -43.137  56.623 -57.853  1.00  0.00     0.069 A 
ENDBRANCH   7  10
ENDBRANCH   1   4
BRANCH   1  19
HETATM   19  C   UNL     1     -41.404  56.668 -51.346  1.00  0.00     0.277 C 
BRANCH  19  20
HETATM   20  C   UNL     1     -42.476  55.651 -51.199  1.00  0.00     0.016 A 
HETATM   21  C   UNL     1     -42.496  54.274 -51.596  1.00  0.00     0.099 A 
HETATM   22  N   UNL     1     -43.709  53.746 -51.379  1.00  0.00    -0.174 NA
HETATM   23  N   UNL     1     -44.400  54.685 -50.729  1.00  0.00    -0.288 N 
HETATM   24  H   UNL     1     -45.337  54.460 -50.402  1.00  0.00     0.188 HD
HETATM   25  C   UNL     1     -43.721  55.862 -50.631  1.00  0.00     0.120 A 
BRANCH  21  26
HETATM   26  C   UNL     1     -41.463  53.444 -52.215  1.00  0.00     0.034 A 
HETATM   27  C   UNL     1     -40.468  52.812 -51.463  1.00  0.00     0.129 A 
HETATM   28  F   UNL     1     -40.397  52.988 -50.137  1.00  0.00    -0.205 F 
HETATM   29  C   UNL     1     -39.527  51.973 -52.060  1.00  0.00     0.043 A 
HETATM   30  C   UNL     1     -39.575  51.746 -53.434  1.00  0.00     0.003 A 
HETATM   31  C   UNL     1     -40.561  52.361 -54.203  1.00  0.00     0.001 A 
HETATM   32  C   UNL     1     -41.500  53.202 -53.598  1.00  0.00     0.017 A 
ENDBRANCH  21  26
ENDBRANCH  19  20
ENDBRANCH   1  19
TORSDOF 5
ENDMDL
MODEL 2
REMARK VINA RESULT:      -8.6      2.079      2.850
REMARK  5 active torsions:
REMARK  status: ('A' for Active; 'I' for Inactive)
REMARK    1  A    between atoms: C_8  and  N_9 
REMARK    2  A    between atoms: C_12  and  N_13 
REMARK    3  A    between atoms: N_13  and  C_15 
REMARK    4  A    between atoms: C_15  and  C_16 
REMARK    5  A    between atoms: C_17  and  C_18 
ROOT
HETATM    1  N   UNL     1     -43.108  54.952 -52.814  1.00  0.00    -0.067 N 
HETATM    2  H   UNL     1     -43.913  54.637 -53.368  1.00  0.00     0.280 HD
HETATM    3  C   UNL     1     -43.487  56.296 -52.229  1.00  0.00     0.270 C 
ENDROOT
BRANCH   1   4
HETATM    4  C   UNL     1     -41.845  54.962 -53.699  1.00  0.00     0.190 C 
HETATM    5  C   UNL     1     -41.981  53.973 -54.869  1.00  0.00     0.048 C 
HETATM    6  C   UNL     1     -42.870  54.493 -55.999  1.00  0.00     0.099 C 
HETATM    7  N   UNL     1     -42.389  55.813 -56.426  1.00  0.00    -0.268 NA
HETATM    8  C   UNL     1     -42.377  56.829 -55.368  1.00  0.00     0.099 C 
HETATM    9  C   UNL     1     -41.468  56.352 -54.239  1.00  0.00     0.048 C 
BRANCH   7  10
HETATM   10  C   UNL     1     -42.896  56.245 -57.661  1.00  0.00     0.109 A 
HETATM   11  N   UNL     1     -43.595  55.389 -58.429  1.00  0.00    -0.224 NA
HETATM   12  C   UNL     1     -44.010  55.815 -59.649  1.00  0.00     0.102 A 
HETATM   13  N   UNL     1     -43.752  57.039 -60.126  1.00  0.00    -0.348 N 
HETATM   14  C   UNL     1     -44.753  54.848 -60.517  1.00  0.00     0.091 C 
HETATM   15  C   UNL     1     -43.060  57.917 -59.386  1.00  0.00     0.009 A 
HETATM   16  H   UNL     1     -44.075  57.291 -61.060  1.00  0.00     0.167 HD
HETATM   17  C   UNL     1     -42.768  59.271 -59.945  1.00  0.00     0.068 C 
HETATM   18  C   UNL     1     -42.611  57.526 -58.122  1.00  0.00     0.069 A 
ENDBRANCH   7  10
ENDBRANCH   1   4
BRANCH   1  19
HETATM   19  C   UNL     1     -42.970  53.928 -51.673  1.00  0.00     0.277 C 
BRANCH  19  20
HETATM   20  C   UNL     1     -41.784  54.143 -50.805  1.00  0.00     0.016 A 
HETATM   21  C   UNL     1     -40.609  53.340 -50.640  1.00  0.00     0.099 A 
HETATM   22  N   UNL     1     -39.836  53.843 -49.668  1.00  0.00    -0.174 NA
HETATM   23  N   UNL     1     -40.400  55.004 -49.323  1.00  0.00    -0.288 N 
HETATM   24  H   UNL     1     -39.925  55.590 -48.639  1.00  0.00     0.188 HD
HETATM   25  C   UNL     1     -41.593  55.212 -49.946  1.00  0.00     0.120 A 
BRANCH  21  26
HETATM   26  C   UNL     1     -40.199  52.101 -51.301  1.00  0.00     0.034 A 
HETATM   27  C   UNL     1     -40.149  50.879 -50.625  1.00  0.00     0.129 A 
HETATM   28  F   UNL     1     -40.430  50.808 -49.317  1.00  0.00    -0.205 F 
HETATM   29  C   UNL     1     -39.815  49.696 -51.285  1.00  0.00     0.043 A 
HETATM   30  C   UNL     1     -39.533  49.720 -52.649  1.00  0.00     0.003 A 
HETATM   31  C   UNL     1     -39.582  50.927 -53.345  1.00  0.00     0.001 A 
HETATM   32  C   UNL     1     -39.915  52.108 -52.677  1.00  0.00     0.017 A 
ENDBRANCH  21  26
ENDBRANCH  19  20
ENDBRANCH   1  19
TORSDOF 5
ENDMDL
MODEL 3
REMARK VINA RESULT:      -8.1      1.097      1.946
REMARK  5 active torsions:
REMARK  status: ('A' for Active; 'I' for Inactive)
REMARK    1  A    between atoms: C_8  and  N_9 
REMARK    2  A    between atoms: C_12  and  N_13 
REMARK    3  A    between atoms: N_13  and  C_15 
REMARK    4  A    between atoms: C_15  and  C_16 
REMARK    5  A    between atoms: C_17  and  C_18 
ROOT
HETATM    1  N   UNL     1     -42.658  57.789 -53.344  1.00  0.00    -0.067 N 
HETATM    2  H   UNL     1     -43.526  57.282 -53.557  1.00  0.00     0.280 HD
HETATM    3  C   UNL     1     -43.071  59.108 -52.725  1.00  0.00     0.270 C 
ENDROOT
BRANCH   1   4
HETATM    4  C   UNL     1     -41.804  57.908 -54.621  1.00  0.00     0.190 C 
HETATM    5  C   UNL     1     -41.800  56.588 -55.410  1.00  0.00     0.048 C 
HETATM    6  C   UNL     1     -43.087  56.352 -56.201  1.00  0.00     0.099 C 
HETATM    7  N   UNL     1     -43.354  57.519 -57.051  1.00  0.00    -0.268 NA
HETATM    8  C   UNL     1     -43.506  58.782 -56.322  1.00  0.00     0.099 C 
HETATM    9  C   UNL     1     -42.220  59.062 -55.549  1.00  0.00     0.048 C 
BRANCH   7  10
HETATM   10  C   UNL     1     -44.301  57.297 -58.062  1.00  0.00     0.109 A 
HETATM   11  N   UNL     1     -44.167  56.235 -58.877  1.00  0.00    -0.224 NA
HETATM   12  C   UNL     1     -45.058  56.087 -59.890  1.00  0.00     0.102 A 
HETATM   13  N   UNL     1     -46.056  56.950 -60.122  1.00  0.00    -0.348 N 
HETATM   14  C   UNL     1     -44.884  54.927 -60.819  1.00  0.00     0.091 C 
HETATM   15  C   UNL     1     -46.219  58.018 -59.327  1.00  0.00     0.009 A 
HETATM   16  H   UNL     1     -46.680  56.793 -60.912  1.00  0.00     0.167 HD
HETATM   17  C   UNL     1     -47.328  58.977 -59.615  1.00  0.00     0.068 C 
HETATM   18  C   UNL     1     -45.327  58.213 -58.270  1.00  0.00     0.069 A 
ENDBRANCH   7  10
ENDBRANCH   1   4
BRANCH   1  19
HETATM   19  C   UNL     1     -41.939  56.939 -52.280  1.00  0.00     0.277 C 
BRANCH  19  20
HETATM   20  C   UNL     1     -42.788  55.884 -51.671  1.00  0.00     0.016 A 
HETATM   21  C   UNL     1     -42.655  54.458 -51.715  1.00  0.00     0.099 A 
HETATM   22  N   UNL     1     -43.708  53.875 -51.125  1.00  0.00    -0.174 NA
HETATM   23  N   UNL     1     -44.416  54.871 -50.585  1.00  0.00    -0.288 N 
HETATM   24  H   UNL     1     -45.231  54.637 -50.022  1.00  0.00     0.188 HD
HETATM   25  C   UNL     1     -43.930  56.099 -50.918  1.00  0.00     0.120 A 
BRANCH  21  26
HETATM   26  C   UNL     1     -41.627  53.614 -52.323  1.00  0.00     0.034 A 
HETATM   27  C   UNL     1     -40.647  52.971 -51.562  1.00  0.00     0.129 A 
HETATM   28  F   UNL     1     -40.584  53.149 -50.236  1.00  0.00    -0.205 F 
HETATM   29  C   UNL     1     -39.712  52.119 -52.150  1.00  0.00     0.043 A 
HETATM   30  C   UNL     1     -39.751  51.890 -53.524  1.00  0.00     0.003 A 
HETATM   31  C   UNL     1     -40.723  52.516 -54.302  1.00  0.00     0.001 A 
HETATM   32  C   UNL     1     -41.656  53.370 -53.706  1.00  0.00     0.017 A 
ENDBRANCH  21  26
ENDBRANCH  19  20
ENDBRANCH   1  19
TORSDOF 5
ENDMDL
MODEL 4
REMARK VINA RESULT:      -8.1      1.996      2.645
REMARK  5 active torsions:
REMARK  status: ('A' for Active; 'I' for Inactive)
REMARK    1  A    between atoms: C_8  and  N_9 
REMARK    2  A    between atoms: C_12  and  N_13 
REMARK    3  A    between atoms: N_13  and  C_15 
REMARK    4  A    between atoms: C_15  and  C_16 
REMARK    5  A    between atoms: C_17  and  C_18 
ROOT
HETATM    1  N   UNL     1     -43.461  55.500 -53.376  1.00  0.00    -0.067 N 
HETATM    2  H   UNL     1     -44.144  55.039 -53.988  1.00  0.00     0.280 HD
HETATM    3  C   UNL     1     -44.150  56.720 -52.803  1.00  0.00     0.270 C 
ENDROOT
BRANCH   1   4
HETATM    4  C   UNL     1     -42.173  55.795 -54.172  1.00  0.00     0.190 C 
HETATM    5  C   UNL     1     -41.973  54.768 -55.299  1.00  0.00     0.048 C 
HETATM    6  C   UNL     1     -42.871  55.018 -56.511  1.00  0.00     0.099 C 
HETATM    7  N   UNL     1     -42.694  56.402 -56.968  1.00  0.00    -0.268 NA
HETATM    8  C   UNL     1     -43.013  57.421 -55.962  1.00  0.00     0.099 C 
HETATM    9  C   UNL     1     -42.105  57.217 -54.752  1.00  0.00     0.048 C 
BRANCH   7  10
HETATM   10  C   UNL     1     -43.193  56.659 -58.254  1.00  0.00     0.109 A 
HETATM   11  N   UNL     1     -43.175  57.914 -58.736  1.00  0.00    -0.224 NA
HETATM   12  C   UNL     1     -43.729  58.143 -59.954  1.00  0.00     0.102 A 
HETATM   13  N   UNL     1     -44.300  57.182 -60.692  1.00  0.00    -0.348 N 
HETATM   14  C   UNL     1     -43.743  59.547 -60.470  1.00  0.00     0.091 C 
HETATM   15  C   UNL     1     -44.333  55.919 -60.242  1.00  0.00     0.009 A 
HETATM   16  H   UNL     1     -44.718  57.422 -61.590  1.00  0.00     0.167 HD
HETATM   17  C   UNL     1     -44.990  54.867 -61.074  1.00  0.00     0.068 C 
HETATM   18  C   UNL     1     -43.774  55.634 -58.994  1.00  0.00     0.069 A 
ENDBRANCH   7  10
ENDBRANCH   1   4
BRANCH   1  19
HETATM   19  C   UNL     1     -43.186  54.498 -52.240  1.00  0.00     0.277 C 
BRANCH  19  20
HETATM   20  C   UNL     1     -42.068  54.890 -51.344  1.00  0.00     0.016 A 
HETATM   21  C   UNL     1     -40.927  54.136 -50.915  1.00  0.00     0.099 A 
HETATM   22  N   UNL     1     -40.223  54.833 -50.013  1.00  0.00    -0.174 NA
HETATM   23  N   UNL     1     -40.788  56.042 -49.970  1.00  0.00    -0.288 N 
HETATM   24  H   UNL     1     -40.358  56.759 -49.389  1.00  0.00     0.188 HD
HETATM   25  C   UNL     1     -41.924  56.117 -50.718  1.00  0.00     0.120 A 
BRANCH  21  26
HETATM   26  C   UNL     1     -40.491  52.784 -51.263  1.00  0.00     0.034 A 
HETATM   27  C   UNL     1     -40.028  52.458 -52.541  1.00  0.00     0.129 A 
HETATM   28  F   UNL     1     -40.016  53.374 -53.519  1.00  0.00    -0.205 F 
HETATM   29  C   UNL     1     -39.557  51.179 -52.840  1.00  0.00     0.043 A 
HETATM   30  C   UNL     1     -39.535  50.200 -51.849  1.00  0.00     0.003 A 
HETATM   31  C   UNL     1     -39.986  50.504 -50.566  1.00  0.00     0.001 A 
HETATM   32  C   UNL     1     -40.458  51.787 -50.274  1.00  0.00     0.017 A 
ENDBRANCH  21  26
ENDBRANCH  19  20
ENDBRANCH   1  19
TORSDOF 5
ENDMDL
MODEL 5
REMARK VINA RESULT:      -8.0      2.493      5.928
REMARK  5 active torsions:
REMARK  status: ('A' for Active; 'I' for Inactive)
REMARK    1  A    between atoms: C_8  and  N_9 
REMARK    2  A    between atoms: C_12  and  N_13 
REMARK    3  A    between atoms: N_13  and  C_15 
REMARK    4  A    between atoms: C_15  and  C_16 
REMARK    5  A    between atoms: C_17  and  C_18 
ROOT
HETATM    1  N   UNL     1     -43.528  57.338 -54.668  1.00  0.00    -0.067 N 
HETATM    2  H   UNL     1     -43.746  56.617 -53.970  1.00  0.00     0.280 HD
HETATM    3  C   UNL     1     -44.738  57.444 -55.571  1.00  0.00     0.270 C 
ENDROOT
BRANCH   1   4
HETATM    4  C   UNL     1     -42.210  56.982 -55.385  1.00  0.00     0.190 C 
HETATM    5  C   UNL     1     -41.034  56.943 -54.394  1.00  0.00     0.048 C 
HETATM    6  C   UNL     1     -41.003  55.675 -53.541  1.00  0.00     0.099 C 
HETATM    7  N   UNL     1     -41.042  54.499 -54.420  1.00  0.00    -0.268 NA
HETATM    8  C   UNL     1     -42.224  54.423 -55.284  1.00  0.00     0.099 C 
HETATM    9  C   UNL     1     -42.262  55.663 -56.174  1.00  0.00     0.048 C 
BRANCH   7  10
HETATM   10  C   UNL     1     -40.683  53.295 -53.796  1.00  0.00     0.109 A 
HETATM   11  N   UNL     1     -40.598  53.241 -52.454  1.00  0.00    -0.224 NA
HETATM   12  C   UNL     1     -40.179  52.083 -51.884  1.00  0.00     0.102 A 
HETATM   13  N   UNL     1     -39.838  50.997 -52.591  1.00  0.00    -0.348 N 
HETATM   14  C   UNL     1     -40.048  52.038 -50.394  1.00  0.00     0.091 C 
HETATM   15  C   UNL     1     -39.913  51.017 -53.930  1.00  0.00     0.009 A 
HETATM   16  H   UNL     1     -39.511  50.164 -52.103  1.00  0.00     0.167 HD
HETATM   17  C   UNL     1     -39.511  49.802 -54.699  1.00  0.00     0.068 C 
HETATM   18  C   UNL     1     -40.340  52.186 -54.563  1.00  0.00     0.069 A 
ENDBRANCH   7  10
ENDBRANCH   1   4
BRANCH   1  19
HETATM   19  C   UNL     1     -43.381  58.648 -53.870  1.00  0.00     0.277 C 
BRANCH  19  20
HETATM   20  C   UNL     1     -44.299  58.755 -52.708  1.00  0.00     0.016 A 
HETATM   21  C   UNL     1     -44.298  58.037 -51.468  1.00  0.00     0.099 A 
HETATM   22  N   UNL     1     -45.376  58.364 -50.742  1.00  0.00    -0.174 NA
HETATM   23  N   UNL     1     -45.968  59.361 -51.404  1.00  0.00    -0.288 N 
HETATM   24  H   UNL     1     -46.779  59.810 -50.983  1.00  0.00     0.188 HD
HETATM   25  C   UNL     1     -45.386  59.607 -52.610  1.00  0.00     0.120 A 
BRANCH  21  26
HETATM   26  C   UNL     1     -43.376  57.025 -50.951  1.00  0.00     0.034 A 
HETATM   27  C   UNL     1     -42.068  57.338 -50.572  1.00  0.00     0.129 A 
HETATM   28  F   UNL     1     -41.590  58.581 -50.718  1.00  0.00    -0.205 F 
HETATM   29  C   UNL     1     -41.221  56.375 -50.022  1.00  0.00     0.043 A 
HETATM   30  C   UNL     1     -41.681  55.073 -49.835  1.00  0.00     0.003 A 
HETATM   31  C   UNL     1     -42.984  54.741 -50.200  1.00  0.00     0.001 A 
HETATM   32  C   UNL     1     -43.826  55.710 -50.752  1.00  0.00     0.017 A 
ENDBRANCH  21  26
ENDBRANCH  19  20
ENDBRANCH   1  19
TORSDOF 5
ENDMDL
MODEL 6
REMARK VINA RESULT:      -8.0      2.917      7.863
REMARK  5 active torsions:
REMARK  status: ('A' for Active; 'I' for Inactive)
REMARK    1  A    between atoms: C_8  and  N_9 
REMARK    2  A    between atoms: C_12  and  N_13 
REMARK    3  A    between atoms: N_13  and  C_15 
REMARK    4  A    between atoms: C_15  and  C_16 
REMARK    5  A    between atoms: C_17  and  C_18 
ROOT
HETATM    1  N   UNL     1     -42.674  57.822 -56.036  1.00  0.00    -0.067 N 
HETATM    2  H   UNL     1     -41.857  57.598 -56.617  1.00  0.00     0.280 HD
HETATM    3  C   UNL     1     -42.138  58.389 -54.739  1.00  0.00     0.270 C 
ENDROOT
BRANCH   1   4
HETATM    4  C   UNL     1     -43.558  56.569 -55.883  1.00  0.00     0.190 C 
HETATM    5  C   UNL     1     -42.907  55.348 -56.554  1.00  0.00     0.048 C 
HETATM    6  C   UNL     1     -41.769  54.740 -55.733  1.00  0.00     0.099 C 
HETATM    7  N   UNL     1     -42.252  54.451 -54.377  1.00  0.00    -0.268 NA
HETATM    8  C   UNL     1     -42.753  55.619 -53.645  1.00  0.00     0.099 C 
HETATM    9  C   UNL     1     -43.915  56.227 -54.426  1.00  0.00     0.048 C 
BRANCH   7  10
HETATM   10  C   UNL     1     -41.424  53.594 -53.635  1.00  0.00     0.109 A 
HETATM   11  N   UNL     1     -41.040  53.949 -52.396  1.00  0.00    -0.224 NA
HETATM   12  C   UNL     1     -40.182  53.134 -51.732  1.00  0.00     0.102 A 
HETATM   13  N   UNL     1     -39.695  52.001 -52.253  1.00  0.00    -0.348 N 
HETATM   14  C   UNL     1     -39.725  53.551 -50.370  1.00  0.00     0.091 C 
HETATM   15  C   UNL     1     -40.059  51.617 -53.485  1.00  0.00     0.009 A 
HETATM   16  H   UNL     1     -39.037  51.442 -51.711  1.00  0.00     0.167 HD
HETATM   17  C   UNL     1     -39.489  50.358 -54.054  1.00  0.00     0.068 C 
HETATM   18  C   UNL     1     -40.941  52.422 -54.208  1.00  0.00     0.069 A 
ENDBRANCH   7  10
ENDBRANCH   1   4
BRANCH   1  19
HETATM   19  C   UNL     1     -43.424  58.933 -56.797  1.00  0.00     0.277 C 
BRANCH  19  20
HETATM   20  C   UNL     1     -42.872  59.222 -58.145  1.00  0.00     0.016 A 
HETATM   21  C   UNL     1     -43.086  58.543 -59.389  1.00  0.00     0.099 A 
HETATM   22  N   UNL     1     -42.302  59.066 -60.343  1.00  0.00    -0.174 NA
HETATM   23  N   UNL     1     -41.722  60.132 -59.788  1.00  0.00    -0.288 N 
HETATM   24  H   UNL     1     -41.131  60.723 -60.371  1.00  0.00     0.188 HD
HETATM   25  C   UNL     1     -41.997  60.248 -58.459  1.00  0.00     0.120 A 
BRANCH  21  26
HETATM   26  C   UNL     1     -43.940  57.403 -59.720  1.00  0.00     0.034 A 
HETATM   27  C   UNL     1     -43.421  56.121 -59.928  1.00  0.00     0.129 A 
HETATM   28  F   UNL     1     -42.100  55.902 -59.881  1.00  0.00    -0.205 F 
HETATM   29  C   UNL     1     -44.254  55.032 -60.182  1.00  0.00     0.043 A 
HETATM   30  C   UNL     1     -45.635  55.210 -60.222  1.00  0.00     0.003 A 
HETATM   31  C   UNL     1     -46.175  56.478 -60.011  1.00  0.00     0.001 A 
HETATM   32  C   UNL     1     -45.334  57.565 -59.760  1.00  0.00     0.017 A 
ENDBRANCH  21  26
ENDBRANCH  19  20
ENDBRANCH   1  19
TORSDOF 5
ENDMDL
MODEL 7
REMARK VINA RESULT:      -7.9      1.729      2.109
REMARK  5 active torsions:
REMARK  status: ('A' for Active; 'I' for Inactive)
REMARK    1  A    between atoms: C_8  and  N_9 
REMARK    2  A    between atoms: C_12  and  N_13 
REMARK    3  A    between atoms: N_13  and  C_15 
REMARK    4  A    between atoms: C_15  and  C_16 
REMARK    5  A    between atoms: C_17  and  C_18 
ROOT
HETATM    1  N   UNL     1     -42.419  56.234 -51.535  1.00  0.00    -0.067 N 
HETATM    2  H   UNL     1     -42.358  55.613 -52.351  1.00  0.00     0.280 HD
HETATM    3  C   UNL     1     -43.483  55.651 -50.630  1.00  0.00     0.270 C 
ENDROOT
BRANCH   1   4
HETATM    4  C   UNL     1     -42.683  57.679 -52.004  1.00  0.00     0.190 C 
HETATM    5  C   UNL     1     -41.763  58.056 -53.177  1.00  0.00     0.048 C 
HETATM    6  C   UNL     1     -42.209  57.459 -54.512  1.00  0.00     0.099 C 
HETATM    7  N   UNL     1     -43.613  57.815 -54.756  1.00  0.00    -0.268 NA
HETATM    8  C   UNL     1     -44.548  57.348 -53.727  1.00  0.00     0.099 C 
HETATM    9  C   UNL     1     -44.146  57.957 -52.386  1.00  0.00     0.048 C 
BRANCH   7  10
HETATM   10  C   UNL     1     -44.040  57.623 -56.079  1.00  0.00     0.109 A 
HETATM   11  N   UNL     1     -45.227  58.117 -56.472  1.00  0.00    -0.224 NA
HETATM   12  C   UNL     1     -45.645  57.854 -57.737  1.00  0.00     0.102 A 
HETATM   13  N   UNL     1     -44.937  57.121 -58.606  1.00  0.00    -0.348 N 
HETATM   14  C   UNL     1     -46.984  58.371 -58.159  1.00  0.00     0.091 C 
HETATM   15  C   UNL     1     -43.748  56.616 -58.246  1.00  0.00     0.009 A 
HETATM   16  H   UNL     1     -45.315  56.943 -59.535  1.00  0.00     0.167 HD
HETATM   17  C   UNL     1     -42.983  55.786 -59.226  1.00  0.00     0.068 C 
HETATM   18  C   UNL     1     -43.275  56.860 -56.955  1.00  0.00     0.069 A 
ENDBRANCH   7  10
ENDBRANCH   1   4
BRANCH   1  19
HETATM   19  C   UNL     1     -41.051  56.125 -50.836  1.00  0.00     0.277 C 
BRANCH  19  20
HETATM   20  C   UNL     1     -40.847  54.853 -50.099  1.00  0.00     0.016 A 
HETATM   21  C   UNL     1     -40.640  53.525 -50.598  1.00  0.00     0.099 A 
HETATM   22  N   UNL     1     -40.616  52.647 -49.586  1.00  0.00    -0.174 NA
HETATM   23  N   UNL     1     -40.648  53.381 -48.471  1.00  0.00    -0.288 N 
HETATM   24  H   UNL     1     -40.566  52.906 -47.574  1.00  0.00     0.188 HD
HETATM   25  C   UNL     1     -40.828  54.708 -48.722  1.00  0.00     0.120 A 
BRANCH  21  26
HETATM   26  C   UNL     1     -40.518  53.029 -51.969  1.00  0.00     0.034 A 
HETATM   27  C   UNL     1     -39.682  51.959 -52.301  1.00  0.00     0.129 A 
HETATM   28  F   UNL     1     -38.914  51.377 -51.370  1.00  0.00    -0.205 F 
HETATM   29  C   UNL     1     -39.624  51.458 -53.601  1.00  0.00     0.043 A 
HETATM   30  C   UNL     1     -40.419  52.022 -54.597  1.00  0.00     0.003 A 
HETATM   31  C   UNL     1     -41.264  53.085 -54.288  1.00  0.00     0.001 A 
HETATM   32  C   UNL     1     -41.316  53.584 -52.983  1.00  0.00     0.017 A 
ENDBRANCH  21  26
ENDBRANCH  19  20
ENDBRANCH   1  19
TORSDOF 5
ENDMDL
MODEL 8
REMARK VINA RESULT:      -7.8      2.299      3.358
REMARK  5 active torsions:
REMARK  status: ('A' for Active; 'I' for Inactive)
REMARK    1  A    between atoms: C_8  and  N_9 
REMARK    2  A    between atoms: C_12  and  N_13 
REMARK    3  A    between atoms: N_13  and  C_15 
REMARK    4  A    between atoms: C_15  and  C_16 
REMARK    5  A    between atoms: C_17  and  C_18 
ROOT
HETATM    1  N   UNL     1     -42.859  55.084 -53.136  1.00  0.00    -0.067 N 
HETATM    2  H   UNL     1     -41.873  55.077 -53.420  1.00  0.00     0.280 HD
HETATM    3  C   UNL     1     -43.610  54.268 -54.167  1.00  0.00     0.270 C 
ENDROOT
BRANCH   1   4
HETATM    4  C   UNL     1     -43.342  56.540 -52.980  1.00  0.00     0.190 C 
HETATM    5  C   UNL     1     -42.165  57.525 -53.080  1.00  0.00     0.048 C 
HETATM    6  C   UNL     1     -41.687  57.755 -54.514  1.00  0.00     0.099 C 
HETATM    7  N   UNL     1     -42.830  58.151 -55.347  1.00  0.00    -0.268 NA
HETATM    8  C   UNL     1     -43.919  57.170 -55.394  1.00  0.00     0.099 C 
HETATM    9  C   UNL     1     -44.440  56.946 -53.977  1.00  0.00     0.048 C 
BRANCH   7  10
HETATM   10  C   UNL     1     -42.481  58.711 -56.585  1.00  0.00     0.109 A 
HETATM   11  N   UNL     1     -42.423  57.928 -57.677  1.00  0.00    -0.224 NA
HETATM   12  C   UNL     1     -42.013  58.484 -58.845  1.00  0.00     0.102 A 
HETATM   13  N   UNL     1     -41.656  59.770 -58.960  1.00  0.00    -0.348 N 
HETATM   14  C   UNL     1     -41.912  57.601 -60.049  1.00  0.00     0.091 C 
HETATM   15  C   UNL     1     -41.703  60.578 -57.892  1.00  0.00     0.009 A 
HETATM   16  H   UNL     1     -41.336  60.122 -59.862  1.00  0.00     0.167 HD
HETATM   17  C   UNL     1     -41.283  62.004 -58.039  1.00  0.00     0.068 C 
HETATM   18  C   UNL     1     -42.120  60.052 -56.667  1.00  0.00     0.069 A 
ENDBRANCH   7  10
ENDBRANCH   1   4
BRANCH   1  19
HETATM   19  C   UNL     1     -42.901  54.345 -51.784  1.00  0.00     0.277 C 
BRANCH  19  20
HETATM   20  C   UNL     1     -41.614  54.362 -51.045  1.00  0.00     0.016 A 
HETATM   21  C   UNL     1     -40.457  53.531 -51.195  1.00  0.00     0.099 A 
HETATM   22  N   UNL     1     -39.556  53.812 -50.243  1.00  0.00    -0.174 NA
HETATM   23  N   UNL     1     -40.034  54.879 -49.599  1.00  0.00    -0.288 N 
HETATM   24  H   UNL     1     -39.461  55.304 -48.872  1.00  0.00     0.188 HD
HETATM   25  C   UNL     1     -41.284  55.225 -50.012  1.00  0.00     0.120 A 
BRANCH  21  26
HETATM   26  C   UNL     1     -40.171  52.455 -52.145  1.00  0.00     0.034 A 
HETATM   27  C   UNL     1     -39.892  51.151 -51.728  1.00  0.00     0.129 A 
HETATM   28  F   UNL     1     -39.824  50.848 -50.425  1.00  0.00    -0.205 F 
HETATM   29  C   UNL     1     -39.684  50.123 -52.647  1.00  0.00     0.043 A 
HETATM   30  C   UNL     1     -39.762  50.388 -54.013  1.00  0.00     0.003 A 
HETATM   31  C   UNL     1     -40.045  51.680 -54.452  1.00  0.00     0.001 A 
HETATM   32  C   UNL     1     -40.251  52.705 -53.524  1.00  0.00     0.017 A 
ENDBRANCH  21  26
ENDBRANCH  19  20
ENDBRANCH   1  19
TORSDOF 5
ENDMDL
MODEL 9
REMARK VINA RESULT:      -7.8      2.373      6.641
REMARK  5 active torsions:
REMARK  status: ('A' for Active; 'I' for Inactive)
REMARK    1  A    between atoms: C_8  and  N_9 
REMARK    2  A    between atoms: C_12  and  N_13 
REMARK    3  A    between atoms: N_13  and  C_15 
REMARK    4  A    between atoms: C_15  and  C_16 
REMARK    5  A    between atoms: C_17  and  C_18 
ROOT
HETATM    1  N   UNL     1     -43.248  58.445 -53.547  1.00  0.00    -0.067 N 
HETATM    2  H   UNL     1     -42.499  57.777 -53.765  1.00  0.00     0.280 HD
HETATM    3  C   UNL     1     -42.883  59.742 -54.238  1.00  0.00     0.270 C 
ENDROOT
BRANCH   1   4
HETATM    4  C   UNL     1     -43.417  58.548 -52.018  1.00  0.00     0.190 C 
HETATM    5  C   UNL     1     -44.230  57.363 -51.470  1.00  0.00     0.048 C 
HETATM    6  C   UNL     1     -43.422  56.069 -51.371  1.00  0.00     0.099 C 
HETATM    7  N   UNL     1     -42.198  56.321 -50.599  1.00  0.00    -0.268 NA
HETATM    8  C   UNL     1     -41.321  57.350 -51.167  1.00  0.00     0.099 C 
HETATM    9  C   UNL     1     -42.092  58.665 -51.246  1.00  0.00     0.048 C 
BRANCH   7  10
HETATM   10  C   UNL     1     -41.545  55.163 -50.151  1.00  0.00     0.109 A 
HETATM   11  N   UNL     1     -41.205  55.052 -48.854  1.00  0.00    -0.224 NA
HETATM   12  C   UNL     1     -40.511  53.952 -48.464  1.00  0.00     0.102 A 
HETATM   13  N   UNL     1     -40.143  52.980 -49.308  1.00  0.00    -0.348 N 
HETATM   14  C   UNL     1     -40.100  53.850 -47.029  1.00  0.00     0.091 C 
HETATM   15  C   UNL     1     -40.467  53.059 -50.607  1.00  0.00     0.009 A 
HETATM   16  H   UNL     1     -39.604  52.189 -48.957  1.00  0.00     0.167 HD
HETATM   17  C   UNL     1     -40.030  51.972 -51.534  1.00  0.00     0.068 C 
HETATM   18  C   UNL     1     -41.182  54.172 -51.056  1.00  0.00     0.069 A 
ENDBRANCH   7  10
ENDBRANCH   1   4
BRANCH   1  19
HETATM   19  C   UNL     1     -44.516  57.867 -54.202  1.00  0.00     0.277 C 
BRANCH  19  20
HETATM   20  C   UNL     1     -44.333  57.453 -55.616  1.00  0.00     0.016 A 
HETATM   21  C   UNL     1     -43.442  56.484 -56.181  1.00  0.00     0.099 A 
HETATM   22  N   UNL     1     -43.521  56.506 -57.519  1.00  0.00    -0.174 NA
HETATM   23  N   UNL     1     -44.525  57.338 -57.807  1.00  0.00    -0.288 N 
HETATM   24  H   UNL     1     -44.802  57.446 -58.782  1.00  0.00     0.188 HD
HETATM   25  C   UNL     1     -45.020  57.964 -56.705  1.00  0.00     0.120 A 
BRANCH  21  26
HETATM   26  C   UNL     1     -42.486  55.579 -55.543  1.00  0.00     0.034 A 
HETATM   27  C   UNL     1     -42.744  54.214 -55.388  1.00  0.00     0.129 A 
HETATM   28  F   UNL     1     -43.914  53.690 -55.779  1.00  0.00    -0.205 F 
HETATM   29  C   UNL     1     -41.797  53.353 -54.834  1.00  0.00     0.043 A 
HETATM   30  C   UNL     1     -40.561  53.852 -54.430  1.00  0.00     0.003 A 
HETATM   31  C   UNL     1     -40.279  55.208 -54.580  1.00  0.00     0.001 A 
HETATM   32  C   UNL     1     -41.234  56.065 -55.135  1.00  0.00     0.017 A 
ENDBRANCH  21  26
ENDBRANCH  19  20
ENDBRANCH   1  19
TORSDOF 5
ENDMDL
MODEL 10
REMARK VINA RESULT:      -7.7      1.899      2.813
REMARK  5 active torsions:
REMARK  status: ('A' for Active; 'I' for Inactive)
REMARK    1  A    between atoms: C_8  and  N_9 
REMARK    2  A    between atoms: C_12  and  N_13 
REMARK    3  A    between atoms: N_13  and  C_15 
REMARK    4  A    between atoms: C_15  and  C_16 
REMARK    5  A    between atoms: C_17  and  C_18 
ROOT
HETATM    1  N   UNL     1     -42.799  56.833 -51.529  1.00  0.00    -0.067 N 
HETATM    2  H   UNL     1     -42.733  56.103 -52.248  1.00  0.00     0.280 HD
HETATM    3  C   UNL     1     -44.014  56.501 -50.688  1.00  0.00     0.270 C 
ENDROOT
BRANCH   1   4
HETATM    4  C   UNL     1     -42.833  58.219 -52.202  1.00  0.00     0.190 C 
HETATM    5  C   UNL     1     -41.855  58.283 -53.387  1.00  0.00     0.048 C 
HETATM    6  C   UNL     1     -42.374  57.576 -54.639  1.00  0.00     0.099 C 
HETATM    7  N   UNL     1     -43.704  58.100 -54.975  1.00  0.00    -0.268 NA
HETATM    8  C   UNL     1     -44.710  57.931 -53.921  1.00  0.00     0.099 C 
HETATM    9  C   UNL     1     -44.233  58.657 -52.666  1.00  0.00     0.048 C 
BRANCH   7  10
HETATM   10  C   UNL     1     -44.142  57.788 -56.271  1.00  0.00     0.109 A 
HETATM   11  N   UNL     1     -43.374  57.022 -57.066  1.00  0.00    -0.224 NA
HETATM   12  C   UNL     1     -43.790  56.797 -58.338  1.00  0.00     0.102 A 
HETATM   13  N   UNL     1     -44.922  57.307 -58.840  1.00  0.00    -0.348 N 
HETATM   14  C   UNL     1     -42.914  55.977 -59.232  1.00  0.00     0.091 C 
HETATM   15  C   UNL     1     -45.712  58.073 -58.074  1.00  0.00     0.009 A 
HETATM   16  H   UNL     1     -45.170  57.117 -59.810  1.00  0.00     0.167 HD
HETATM   17  C   UNL     1     -46.961  58.646 -58.660  1.00  0.00     0.068 C 
HETATM   18  C   UNL     1     -45.326  58.332 -56.757  1.00  0.00     0.069 A 
ENDBRANCH   7  10
ENDBRANCH   1   4
BRANCH   1  19
HETATM   19  C   UNL     1     -41.533  56.674 -50.666  1.00  0.00     0.277 C 
BRANCH  19  20
HETATM   20  C   UNL     1     -41.131  55.263 -50.435  1.00  0.00     0.016 A 
HETATM   21  C   UNL     1     -41.056  54.167 -51.355  1.00  0.00     0.099 A 
HETATM   22  N   UNL     1     -40.756  53.034 -50.704  1.00  0.00    -0.174 NA
HETATM   23  N   UNL     1     -40.496  53.399 -49.447  1.00  0.00    -0.288 N 
HETATM   24  H   UNL     1     -40.175  52.689 -48.791  1.00  0.00     0.188 HD
HETATM   25  C   UNL     1     -40.745  54.719 -49.221  1.00  0.00     0.120 A 
BRANCH  21  26
HETATM   26  C   UNL     1     -41.300  54.113 -52.797  1.00  0.00     0.034 A 
HETATM   27  C   UNL     1     -42.587  53.981 -53.328  1.00  0.00     0.129 A 
HETATM   28  F   UNL     1     -43.649  53.847 -52.522  1.00  0.00    -0.205 F 
HETATM   29  C   UNL     1     -42.810  53.993 -54.704  1.00  0.00     0.043 A 
HETATM   30  C   UNL     1     -41.736  54.148 -55.579  1.00  0.00     0.003 A 
HETATM   31  C   UNL     1     -40.446  54.287 -55.072  1.00  0.00     0.001 A 
HETATM   32  C   UNL     1     -40.230  54.272 -53.691  1.00  0.00     0.017 A 
ENDBRANCH  21  26
ENDBRANCH  19  20
ENDBRANCH   1  19
TORSDOF 5
ENDMDL
