MODEL 1
REMARK VINA RESULT:      -8.8      0.000      0.000
REMARK  6 active torsions:
REMARK  status: ('A' for Active; 'I' for Inactive)
REMARK    1  A    between atoms: C_7  and  C_8 
REMARK    2  A    between atoms: C_12  and  S_13 
REMARK    3  A    between atoms: S_13  and  C_14 
REMARK    4  A    between atoms: C_14  and  C_15 
REMARK       I    between atoms: C_15  and  N_16 
REMARK    5  A    between atoms: N_16  and  C_17 
REMARK    6  A    between atoms: C_25  and  C_26 
REMARK       I    between atoms: C_26  and  N_27 
ROOT
HETATM    1  C   UNL     1     -41.759  59.492 -53.406  1.00  0.00     0.232 C 
HETATM    2  N   UNL     1     -42.819  59.414 -54.289  1.00  0.00    -0.320 N 
HETATM    3  O   UNL     1     -40.575  59.298 -53.679  1.00  0.00    -0.272 OA
HETATM    4  H   UNL     1     -43.734  59.640 -53.910  1.00  0.00     0.169 HD
ENDROOT
BRANCH   1   5
HETATM    5  C   UNL     1     -42.112  59.932 -51.986  1.00  0.00     0.185 C 
BRANCH   5   6
HETATM    6  S   UNL     1     -41.160  59.168 -50.636  1.00  0.00    -0.081 SA
BRANCH   6   7
HETATM    7  C   UNL     1     -41.486  57.503 -50.913  1.00  0.00     0.185 A 
HETATM    8  N   UNL     1     -42.733  56.980 -50.810  1.00  0.00    -0.253 N 
HETATM    9  N   UNL     1     -42.739  55.691 -51.179  1.00  0.00    -0.152 NA
HETATM   10  H   UNL     1     -43.595  57.432 -50.531  1.00  0.00     0.191 HD
HETATM   11  C   UNL     1     -41.447  55.466 -51.469  1.00  0.00     0.183 A 
HETATM   12  N   UNL     1     -40.650  56.587 -51.320  1.00  0.00    -0.201 NA
BRANCH  11  13
HETATM   13  C   UNL     1     -40.899  54.215 -51.993  1.00  0.00     0.035 A 
HETATM   14  C   UNL     1     -40.378  53.179 -51.198  1.00  0.00     0.049 A 
HETATM   15  C   UNL     1     -39.898  52.001 -51.789  1.00  0.00     0.048 A 
HETATM   16 CL   UNL     1     -40.231  53.267 -49.473  1.00  0.00    -0.083 Cl
HETATM   17  C   UNL     1     -39.922  51.851 -53.172  1.00  0.00     0.035 A 
HETATM   18  C   UNL     1     -40.416  52.867 -53.980  1.00  0.00     0.025 A 
HETATM   19 CL   UNL     1     -39.328  50.404 -53.887  1.00  0.00    -0.084 Cl
HETATM   20  C   UNL     1     -40.900  54.040 -53.393  1.00  0.00     0.019 A 
ENDBRANCH  11  13
ENDBRANCH   6   7
ENDBRANCH   5   6
ENDBRANCH   1   5
BRANCH   2  21
HETATM   21  C   UNL     1     -42.825  58.888 -55.574  1.00  0.00     0.093 A 
HETATM   22  S   UNL     1     -42.164  59.752 -56.879  1.00  0.00    -0.075 SA
HETATM   23  C   UNL     1     -42.405  58.463 -57.950  1.00  0.00    -0.008 A 
HETATM   24  C   UNL     1     -42.985  57.369 -57.340  1.00  0.00    -0.026 A 
HETATM   25  C   UNL     1     -41.984  58.539 -59.385  1.00  0.00     0.047 C 
HETATM   26  C   UNL     1     -43.291  56.112 -58.108  1.00  0.00     0.041 C 
HETATM   27  C   UNL     1     -43.294  57.634 -55.951  1.00  0.00     0.072 A 
HETATM   28  C   UNL     1     -42.564  56.070 -59.463  1.00  0.00     0.005 C 
HETATM   29  C   UNL     1     -42.645  57.415 -60.196  1.00  0.00     0.005 C 
BRANCH  27  30
HETATM   30  C   UNL     1     -43.976  56.699 -55.058  1.00  0.00     0.252 C 
HETATM   31  N   UNL     1     -45.316  56.926 -54.876  1.00  0.00    -0.366 N 
HETATM   32  H   UNL     1     -45.819  57.427 -55.598  1.00  0.00     0.159 HD
HETATM   33  H   UNL     1     -45.807  56.155 -54.438  1.00  0.00     0.159 HD
HETATM   34  O   UNL     1     -43.442  55.728 -54.536  1.00  0.00    -0.268 OA
ENDBRANCH  27  30
ENDBRANCH   2  21
TORSDOF 6
ENDMDL
MODEL 2
REMARK VINA RESULT:      -8.8      1.400      2.167
REMARK  6 active torsions:
REMARK  status: ('A' for Active; 'I' for Inactive)
REMARK    1  A    between atoms: C_7  and  C_8 
REMARK    2  A    between atoms: C_12  and  S_13 
REMARK    3  A    between atoms: S_13  and  C_14 
REMARK    4  A    between atoms: C_14  and  C_15 
REMARK       I    between atoms: C_15  and  N_16 
REMARK    5  A    between atoms: N_16  and  C_17 
REMARK    6  A    between atoms: C_25  and  C_26 
REMARK       I    between atoms: C_26  and  N_27 
ROOT
HETATM    1  C   UNL     1     -41.804  59.572 -53.545  1.00  0.00     0.232 C 
HETATM    2  N   UNL     1     -42.843  59.284 -54.408  1.00  0.00    -0.320 N 
HETATM    3  O   UNL     1     -40.604  59.463 -53.796  1.00  0.00    -0.272 OA
HETATM    4  H   UNL     1     -43.779  59.463 -54.057  1.00  0.00     0.169 HD
ENDROOT
BRANCH   1   5
HETATM    5  C   UNL     1     -42.211  60.143 -52.187  1.00  0.00     0.185 C 
BRANCH   5   6
HETATM    6  S   UNL     1     -41.496  59.339 -50.719  1.00  0.00    -0.081 SA
BRANCH   6   7
HETATM    7  C   UNL     1     -41.842  57.689 -51.053  1.00  0.00     0.185 A 
HETATM    8  N   UNL     1     -43.087  57.168 -50.930  1.00  0.00    -0.253 N 
HETATM    9  N   UNL     1     -43.114  55.895 -51.352  1.00  0.00    -0.152 NA
HETATM   10  H   UNL     1     -43.938  57.612 -50.604  1.00  0.00     0.191 HD
HETATM   11  C   UNL     1     -41.833  55.677 -51.694  1.00  0.00     0.183 A 
HETATM   12  N   UNL     1     -41.025  56.787 -51.525  1.00  0.00    -0.201 NA
BRANCH  11  13
HETATM   13  C   UNL     1     -41.311  54.446 -52.287  1.00  0.00     0.035 A 
HETATM   14  C   UNL     1     -40.395  53.585 -51.658  1.00  0.00     0.049 A 
HETATM   15  C   UNL     1     -39.970  52.409 -52.296  1.00  0.00     0.048 A 
HETATM   16 CL   UNL     1     -39.681  53.900 -50.111  1.00  0.00    -0.083 Cl
HETATM   17  C   UNL     1     -40.444  52.090 -53.564  1.00  0.00     0.035 A 
HETATM   18  C   UNL     1     -41.337  52.933 -54.213  1.00  0.00     0.025 A 
HETATM   19 CL   UNL     1     -39.914  50.648 -54.337  1.00  0.00    -0.084 Cl
HETATM   20  C   UNL     1     -41.766  54.102 -53.578  1.00  0.00     0.019 A 
ENDBRANCH  11  13
ENDBRANCH   6   7
ENDBRANCH   5   6
ENDBRANCH   1   5
BRANCH   2  21
HETATM   21  C   UNL     1     -42.786  58.610 -55.620  1.00  0.00     0.093 A 
HETATM   22  S   UNL     1     -43.116  56.946 -55.716  1.00  0.00    -0.075 SA
HETATM   23  C   UNL     1     -42.997  56.944 -57.405  1.00  0.00    -0.008 A 
HETATM   24  C   UNL     1     -42.708  58.193 -57.917  1.00  0.00    -0.026 A 
HETATM   25  C   UNL     1     -43.226  55.703 -58.212  1.00  0.00     0.047 C 
HETATM   26  C   UNL     1     -42.555  58.419 -59.397  1.00  0.00     0.041 C 
HETATM   27  C   UNL     1     -42.520  59.169 -56.866  1.00  0.00     0.072 A 
HETATM   28  C   UNL     1     -43.114  57.247 -60.221  1.00  0.00     0.005 C 
HETATM   29  C   UNL     1     -42.697  55.890 -59.641  1.00  0.00     0.005 C 
BRANCH  27  30
HETATM   30  C   UNL     1     -42.133  60.563 -57.085  1.00  0.00     0.252 C 
HETATM   31  N   UNL     1     -43.140  61.484 -56.946  1.00  0.00    -0.366 N 
HETATM   32  H   UNL     1     -43.933  61.242 -56.364  1.00  0.00     0.159 HD
HETATM   33  H   UNL     1     -42.814  62.441 -56.886  1.00  0.00     0.159 HD
HETATM   34  O   UNL     1     -40.990  60.935 -57.317  1.00  0.00    -0.268 OA
ENDBRANCH  27  30
ENDBRANCH   2  21
TORSDOF 6
ENDMDL
MODEL 3
REMARK VINA RESULT:      -8.5      2.159      2.515
REMARK  6 active torsions:
REMARK  status: ('A' for Active; 'I' for Inactive)
REMARK    1  A    between atoms: C_7  and  C_8 
REMARK    2  A    between atoms: C_12  and  S_13 
REMARK    3  A    between atoms: S_13  and  C_14 
REMARK    4  A    between atoms: C_14  and  C_15 
REMARK       I    between atoms: C_15  and  N_16 
REMARK    5  A    between atoms: N_16  and  C_17 
REMARK    6  A    between atoms: C_25  and  C_26 
REMARK       I    between atoms: C_26  and  N_27 
ROOT
HETATM    1  C   UNL     1     -42.101  59.116 -55.410  1.00  0.00     0.232 C 
HETATM    2  N   UNL     1     -43.012  58.090 -55.570  1.00  0.00    -0.320 N 
HETATM    3  O   UNL     1     -41.700  59.873 -56.294  1.00  0.00    -0.272 OA
HETATM    4  H   UNL     1     -43.265  57.581 -54.728  1.00  0.00     0.169 HD
ENDROOT
BRANCH   1   5
HETATM    5  C   UNL     1     -41.619  59.356 -53.979  1.00  0.00     0.185 C 
BRANCH   5   6
HETATM    6  S   UNL     1     -42.829  59.059 -52.652  1.00  0.00    -0.081 SA
BRANCH   6   7
HETATM    7  C   UNL     1     -42.383  57.474 -52.158  1.00  0.00     0.185 A 
HETATM    8  N   UNL     1     -42.794  56.937 -50.983  1.00  0.00    -0.253 N 
HETATM    9  N   UNL     1     -42.404  55.658 -50.883  1.00  0.00    -0.152 NA
HETATM   10  H   UNL     1     -43.344  57.359 -50.244  1.00  0.00     0.191 HD
HETATM   11  C   UNL     1     -41.719  55.474 -52.024  1.00  0.00     0.183 A 
HETATM   12  N   UNL     1     -41.703  56.592 -52.838  1.00  0.00    -0.201 NA
BRANCH  11  13
HETATM   13  C   UNL     1     -41.120  54.213 -52.461  1.00  0.00     0.035 A 
HETATM   14  C   UNL     1     -40.253  53.431 -51.679  1.00  0.00     0.049 A 
HETATM   15  C   UNL     1     -39.747  52.219 -52.174  1.00  0.00     0.048 A 
HETATM   16 CL   UNL     1     -39.695  53.889 -50.104  1.00  0.00    -0.083 Cl
HETATM   17  C   UNL     1     -40.092  51.785 -53.450  1.00  0.00     0.035 A 
HETATM   18  C   UNL     1     -40.934  52.549 -54.248  1.00  0.00     0.025 A 
HETATM   19 CL   UNL     1     -39.465  50.299 -54.048  1.00  0.00    -0.084 Cl
HETATM   20  C   UNL     1     -41.443  53.754 -53.756  1.00  0.00     0.019 A 
ENDBRANCH  11  13
ENDBRANCH   6   7
ENDBRANCH   5   6
ENDBRANCH   1   5
BRANCH   2  21
HETATM   21  C   UNL     1     -43.483  57.543 -56.756  1.00  0.00     0.093 A 
HETATM   22  S   UNL     1     -42.920  56.042 -57.317  1.00  0.00    -0.075 SA
HETATM   23  C   UNL     1     -44.012  56.031 -58.610  1.00  0.00    -0.008 A 
HETATM   24  C   UNL     1     -44.812  57.156 -58.637  1.00  0.00    -0.026 A 
HETATM   25  C   UNL     1     -44.086  54.886 -59.573  1.00  0.00     0.047 C 
HETATM   26  C   UNL     1     -45.853  57.354 -59.705  1.00  0.00     0.041 C 
HETATM   27  C   UNL     1     -44.464  58.083 -57.582  1.00  0.00     0.072 A 
HETATM   28  C   UNL     1     -46.153  56.053 -60.469  1.00  0.00     0.005 C 
HETATM   29  C   UNL     1     -44.870  55.294 -60.829  1.00  0.00     0.005 C 
BRANCH  27  30
HETATM   30  C   UNL     1     -45.082  59.395 -57.391  1.00  0.00     0.252 C 
HETATM   31  N   UNL     1     -44.361  60.462 -57.862  1.00  0.00    -0.366 N 
HETATM   32  H   UNL     1     -43.693  60.297 -58.605  1.00  0.00     0.159 HD
HETATM   33  H   UNL     1     -44.892  61.323 -57.918  1.00  0.00     0.159 HD
HETATM   34  O   UNL     1     -46.192  59.572 -56.905  1.00  0.00    -0.268 OA
ENDBRANCH  27  30
ENDBRANCH   2  21
TORSDOF 6
ENDMDL
MODEL 4
REMARK VINA RESULT:      -8.4      3.373      7.091
REMARK  6 active torsions:
REMARK  status: ('A' for Active; 'I' for Inactive)
REMARK    1  A    between atoms: C_7  and  C_8 
REMARK    2  A    between atoms: C_12  and  S_13 
REMARK    3  A    between atoms: S_13  and  C_14 
REMARK    4  A    between atoms: C_14  and  C_15 
REMARK       I    between atoms: C_15  and  N_16 
REMARK    5  A    between atoms: N_16  and  C_17 
REMARK    6  A    between atoms: C_25  and  C_26 
REMARK       I    between atoms: C_26  and  N_27 
ROOT
HETATM    1  C   UNL     1     -42.493  55.688 -51.434  1.00  0.00     0.232 C 
HETATM    2  N   UNL     1     -41.202  55.313 -51.748  1.00  0.00    -0.320 N 
HETATM    3  O   UNL     1     -43.426  54.927 -51.178  1.00  0.00    -0.272 OA
HETATM    4  H   UNL     1     -40.540  56.069 -51.897  1.00  0.00     0.169 HD
ENDROOT
BRANCH   1   5
HETATM    5  C   UNL     1     -42.739  57.193 -51.330  1.00  0.00     0.185 C 
BRANCH   5   6
HETATM    6  S   UNL     1     -41.391  58.279 -51.892  1.00  0.00    -0.081 SA
BRANCH   6   7
HETATM    7  C   UNL     1     -41.863  58.563 -53.520  1.00  0.00     0.185 A 
HETATM    8  N   UNL     1     -41.457  59.655 -54.214  1.00  0.00    -0.253 N 
HETATM    9  N   UNL     1     -41.870  59.588 -55.489  1.00  0.00    -0.152 NA
HETATM   10  H   UNL     1     -40.898  60.439 -53.903  1.00  0.00     0.191 HD
HETATM   11  C   UNL     1     -42.561  58.436 -55.509  1.00  0.00     0.183 A 
HETATM   12  N   UNL     1     -42.560  57.776 -54.293  1.00  0.00    -0.201 NA
BRANCH  11  13
HETATM   13  C   UNL     1     -43.184  57.841 -56.691  1.00  0.00     0.035 A 
HETATM   14  C   UNL     1     -44.375  58.298 -57.280  1.00  0.00     0.049 A 
HETATM   15  C   UNL     1     -44.884  57.678 -58.432  1.00  0.00     0.048 A 
HETATM   16 CL   UNL     1     -45.333  59.593 -56.639  1.00  0.00    -0.083 Cl
HETATM   17  C   UNL     1     -44.218  56.595 -58.996  1.00  0.00     0.035 A 
HETATM   18  C   UNL     1     -43.048  56.114 -58.423  1.00  0.00     0.025 A 
HETATM   19 CL   UNL     1     -44.851  55.841 -60.407  1.00  0.00    -0.084 Cl
HETATM   20  C   UNL     1     -42.536  56.732 -57.278  1.00  0.00     0.019 A 
ENDBRANCH  11  13
ENDBRANCH   6   7
ENDBRANCH   5   6
ENDBRANCH   1   5
BRANCH   2  21
HETATM   21  C   UNL     1     -40.734  54.046 -52.070  1.00  0.00     0.093 A 
HETATM   22  S   UNL     1     -40.189  52.978 -50.866  1.00  0.00    -0.075 SA
HETATM   23  C   UNL     1     -39.967  51.721 -51.978  1.00  0.00    -0.008 A 
HETATM   24  C   UNL     1     -40.299  52.088 -53.267  1.00  0.00    -0.026 A 
HETATM   25  C   UNL     1     -39.495  50.365 -51.553  1.00  0.00     0.047 C 
HETATM   26  C   UNL     1     -40.175  51.124 -54.415  1.00  0.00     0.041 C 
HETATM   27  C   UNL     1     -40.693  53.479 -53.340  1.00  0.00     0.072 A 
HETATM   28  C   UNL     1     -40.022  49.670 -53.936  1.00  0.00     0.005 C 
HETATM   29  C   UNL     1     -39.030  49.555 -52.772  1.00  0.00     0.005 C 
BRANCH  27  30
HETATM   30  C   UNL     1     -41.033  54.183 -54.576  1.00  0.00     0.252 C 
HETATM   31  N   UNL     1     -40.004  54.870 -55.167  1.00  0.00    -0.366 N 
HETATM   32  H   UNL     1     -39.056  54.571 -54.974  1.00  0.00     0.159 HD
HETATM   33  H   UNL     1     -40.200  55.164 -56.117  1.00  0.00     0.159 HD
HETATM   34  O   UNL     1     -42.131  54.138 -55.117  1.00  0.00    -0.268 OA
ENDBRANCH  27  30
ENDBRANCH   2  21
TORSDOF 6
ENDMDL
MODEL 5
REMARK VINA RESULT:      -8.4      1.861      2.207
REMARK  6 active torsions:
REMARK  status: ('A' for Active; 'I' for Inactive)
REMARK    1  A    between atoms: C_7  and  C_8 
REMARK    2  A    between atoms: C_12  and  S_13 
REMARK    3  A    between atoms: S_13  and  C_14 
REMARK    4  A    between atoms: C_14  and  C_15 
REMARK       I    between atoms: C_15  and  N_16 
REMARK    5  A    between atoms: N_16  and  C_17 
REMARK    6  A    between atoms: C_25  and  C_26 
REMARK       I    between atoms: C_26  and  N_27 
ROOT
HETATM    1  C   UNL     1     -44.013  58.095 -54.157  1.00  0.00     0.232 C 
HETATM    2  N   UNL     1     -43.607  58.334 -55.454  1.00  0.00    -0.320 N 
HETATM    3  O   UNL     1     -44.720  57.159 -53.780  1.00  0.00    -0.272 OA
HETATM    4  H   UNL     1     -42.993  59.132 -55.591  1.00  0.00     0.169 HD
ENDROOT
BRANCH   1   5
HETATM    5  C   UNL     1     -43.462  59.054 -53.102  1.00  0.00     0.185 C 
BRANCH   5   6
HETATM    6  S   UNL     1     -41.710  58.851 -52.653  1.00  0.00    -0.081 SA
BRANCH   6   7
HETATM    7  C   UNL     1     -41.666  57.174 -52.276  1.00  0.00     0.185 A 
HETATM    8  N   UNL     1     -42.525  56.604 -51.396  1.00  0.00    -0.253 N 
HETATM    9  N   UNL     1     -42.356  55.274 -51.360  1.00  0.00    -0.152 NA
HETATM   10  H   UNL     1     -43.242  57.040 -50.828  1.00  0.00     0.191 HD
HETATM   11  C   UNL     1     -41.344  55.088 -52.224  1.00  0.00     0.183 A 
HETATM   12  N   UNL     1     -40.906  56.260 -52.814  1.00  0.00    -0.201 NA
BRANCH  11  13
HETATM   13  C   UNL     1     -40.791  53.792 -52.617  1.00  0.00     0.035 A 
HETATM   14  C   UNL     1     -40.238  52.858 -51.723  1.00  0.00     0.049 A 
HETATM   15  C   UNL     1     -39.755  51.626 -52.191  1.00  0.00     0.048 A 
HETATM   16 CL   UNL     1     -40.052  53.141 -50.024  1.00  0.00    -0.083 Cl
HETATM   17  C   UNL     1     -39.810  51.321 -53.547  1.00  0.00     0.035 A 
HETATM   18  C   UNL     1     -40.337  52.234 -54.451  1.00  0.00     0.025 A 
HETATM   19 CL   UNL     1     -39.213  49.809 -54.109  1.00  0.00    -0.084 Cl
HETATM   20  C   UNL     1     -40.823  53.460 -53.988  1.00  0.00     0.019 A 
ENDBRANCH  11  13
ENDBRANCH   6   7
ENDBRANCH   5   6
ENDBRANCH   1   5
BRANCH   2  21
HETATM   21  C   UNL     1     -44.073  57.741 -56.620  1.00  0.00     0.093 A 
HETATM   22  S   UNL     1     -45.162  58.551 -57.642  1.00  0.00    -0.075 SA
HETATM   23  C   UNL     1     -45.104  57.320 -58.803  1.00  0.00    -0.008 A 
HETATM   24  C   UNL     1     -44.267  56.285 -58.435  1.00  0.00    -0.026 A 
HETATM   25  C   UNL     1     -45.868  57.408 -60.088  1.00  0.00     0.047 C 
HETATM   26  C   UNL     1     -44.068  55.084 -59.320  1.00  0.00     0.041 C 
HETATM   27  C   UNL     1     -43.703  56.497 -57.119  1.00  0.00     0.072 A 
HETATM   28  C   UNL     1     -44.572  55.330 -60.752  1.00  0.00     0.005 C 
HETATM   29  C   UNL     1     -45.937  56.031 -60.764  1.00  0.00     0.005 C 
BRANCH  27  30
HETATM   30  C   UNL     1     -42.836  55.546 -56.424  1.00  0.00     0.252 C 
HETATM   31  N   UNL     1     -41.567  55.991 -56.156  1.00  0.00    -0.366 N 
HETATM   32  H   UNL     1     -41.414  56.990 -56.091  1.00  0.00     0.159 HD
HETATM   33  H   UNL     1     -41.062  55.413 -55.494  1.00  0.00     0.159 HD
HETATM   34  O   UNL     1     -43.195  54.442 -56.032  1.00  0.00    -0.268 OA
ENDBRANCH  27  30
ENDBRANCH   2  21
TORSDOF 6
ENDMDL
MODEL 6
REMARK VINA RESULT:      -8.3      3.640      7.080
REMARK  6 active torsions:
REMARK  status: ('A' for Active; 'I' for Inactive)
REMARK    1  A    between atoms: C_7  and  C_8 
REMARK    2  A    between atoms: C_12  and  S_13 
REMARK    3  A    between atoms: S_13  and  C_14 
REMARK    4  A    between atoms: C_14  and  C_15 
REMARK       I    between atoms: C_15  and  N_16 
REMARK    5  A    between atoms: N_16  and  C_17 
REMARK    6  A    between atoms: C_25  and  C_26 
REMARK       I    between atoms: C_26  and  N_27 
ROOT
HETATM    1  C   UNL     1     -43.521  57.265 -52.545  1.00  0.00     0.232 C 
HETATM    2  N   UNL     1     -43.645  55.890 -52.568  1.00  0.00    -0.320 N 
HETATM    3  O   UNL     1     -42.487  57.902 -52.741  1.00  0.00    -0.272 OA
HETATM    4  H   UNL     1     -44.581  55.522 -52.421  1.00  0.00     0.169 HD
ENDROOT
BRANCH   1   5
HETATM    5  C   UNL     1     -44.819  58.043 -52.325  1.00  0.00     0.185 C 
BRANCH   5   6
HETATM    6  S   UNL     1     -44.979  59.625 -53.209  1.00  0.00    -0.081 SA
BRANCH   6   7
HETATM    7  C   UNL     1     -44.433  59.177 -54.776  1.00  0.00     0.185 A 
HETATM    8  N   UNL     1     -43.196  59.494 -55.232  1.00  0.00    -0.253 N 
HETATM    9  N   UNL     1     -42.976  58.939 -56.433  1.00  0.00    -0.152 NA
HETATM   10  H   UNL     1     -42.469  60.039 -54.785  1.00  0.00     0.191 HD
HETATM   11  C   UNL     1     -44.140  58.316 -56.682  1.00  0.00     0.183 A 
HETATM   12  N   UNL     1     -45.059  58.444 -55.655  1.00  0.00    -0.201 NA
BRANCH  11  13
HETATM   13  C   UNL     1     -44.426  57.487 -57.853  1.00  0.00     0.035 A 
HETATM   14  C   UNL     1     -45.624  57.532 -58.587  1.00  0.00     0.049 A 
HETATM   15  C   UNL     1     -45.798  56.716 -59.715  1.00  0.00     0.048 A 
HETATM   16 CL   UNL     1     -46.979  58.524 -58.161  1.00  0.00    -0.083 Cl
HETATM   17  C   UNL     1     -44.789  55.844 -60.111  1.00  0.00     0.035 A 
HETATM   18  C   UNL     1     -43.603  55.769 -59.392  1.00  0.00     0.025 A 
HETATM   19 CL   UNL     1     -45.014  54.846 -61.494  1.00  0.00    -0.084 Cl
HETATM   20  C   UNL     1     -43.424  56.585 -58.270  1.00  0.00     0.019 A 
ENDBRANCH  11  13
ENDBRANCH   6   7
ENDBRANCH   5   6
ENDBRANCH   1   5
BRANCH   2  21
HETATM   21  C   UNL     1     -42.632  54.940 -52.578  1.00  0.00     0.093 A 
HETATM   22  S   UNL     1     -42.076  54.233 -51.138  1.00  0.00    -0.075 SA
HETATM   23  C   UNL     1     -41.051  53.171 -51.967  1.00  0.00    -0.008 A 
HETATM   24  C   UNL     1     -41.114  53.336 -53.336  1.00  0.00    -0.026 A 
HETATM   25  C   UNL     1     -40.214  52.157 -51.249  1.00  0.00     0.047 C 
HETATM   26  C   UNL     1     -40.282  52.496 -54.268  1.00  0.00     0.041 C 
HETATM   27  C   UNL     1     -41.998  54.421 -53.703  1.00  0.00     0.072 A 
HETATM   28  C   UNL     1     -39.699  51.258 -53.565  1.00  0.00     0.005 C 
HETATM   29  C   UNL     1     -39.129  51.602 -52.183  1.00  0.00     0.005 C 
BRANCH  27  30
HETATM   30  C   UNL     1     -42.220  54.887 -55.072  1.00  0.00     0.252 C 
HETATM   31  N   UNL     1     -41.550  56.030 -55.423  1.00  0.00    -0.366 N 
HETATM   32  H   UNL     1     -40.704  56.263 -54.917  1.00  0.00     0.159 HD
HETATM   33  H   UNL     1     -41.543  56.212 -56.419  1.00  0.00     0.159 HD
HETATM   34  O   UNL     1     -42.899  54.294 -55.901  1.00  0.00    -0.268 OA
ENDBRANCH  27  30
ENDBRANCH   2  21
TORSDOF 6
ENDMDL
MODEL 7
REMARK VINA RESULT:      -7.9      1.950      2.668
REMARK  6 active torsions:
REMARK  status: ('A' for Active; 'I' for Inactive)
REMARK    1  A    between atoms: C_7  and  C_8 
REMARK    2  A    between atoms: C_12  and  S_13 
REMARK    3  A    between atoms: S_13  and  C_14 
REMARK    4  A    between atoms: C_14  and  C_15 
REMARK       I    between atoms: C_15  and  N_16 
REMARK    5  A    between atoms: N_16  and  C_17 
REMARK    6  A    between atoms: C_25  and  C_26 
REMARK       I    between atoms: C_26  and  N_27 
ROOT
HETATM    1  C   UNL     1     -44.732  57.790 -55.054  1.00  0.00     0.232 C 
HETATM    2  N   UNL     1     -43.497  57.859 -55.669  1.00  0.00    -0.320 N 
HETATM    3  O   UNL     1     -45.802  58.161 -55.536  1.00  0.00    -0.272 OA
HETATM    4  H   UNL     1     -42.715  57.475 -55.146  1.00  0.00     0.169 HD
ENDROOT
BRANCH   1   5
HETATM    5  C   UNL     1     -44.751  57.122 -53.680  1.00  0.00     0.185 C 
BRANCH   5   6
HETATM    6  S   UNL     1     -43.793  57.937 -52.365  1.00  0.00    -0.081 SA
BRANCH   6   7
HETATM    7  C   UNL     1     -42.537  56.789 -52.121  1.00  0.00     0.185 A 
HETATM    8  N   UNL     1     -41.675  56.865 -51.077  1.00  0.00    -0.253 N 
HETATM    9  N   UNL     1     -40.865  55.797 -51.052  1.00  0.00    -0.152 NA
HETATM   10  H   UNL     1     -41.603  57.574 -50.357  1.00  0.00     0.191 HD
HETATM   11  C   UNL     1     -41.257  55.109 -52.137  1.00  0.00     0.183 A 
HETATM   12  N   UNL     1     -42.307  55.706 -52.812  1.00  0.00    -0.201 NA
BRANCH  11  13
HETATM   13  C   UNL     1     -40.736  53.807 -52.551  1.00  0.00     0.035 A 
HETATM   14  C   UNL     1     -40.313  52.800 -51.666  1.00  0.00     0.049 A 
HETATM   15  C   UNL     1     -39.852  51.569 -52.156  1.00  0.00     0.048 A 
HETATM   16 CL   UNL     1     -40.269  52.986 -49.943  1.00  0.00    -0.083 Cl
HETATM   17  C   UNL     1     -39.797  51.337 -53.527  1.00  0.00     0.035 A 
HETATM   18  C   UNL     1     -40.194  52.322 -54.422  1.00  0.00     0.025 A 
HETATM   19 CL   UNL     1     -39.227  49.825 -54.117  1.00  0.00    -0.084 Cl
HETATM   20  C   UNL     1     -40.658  53.548 -53.936  1.00  0.00     0.019 A 
ENDBRANCH  11  13
ENDBRANCH   6   7
ENDBRANCH   5   6
ENDBRANCH   1   5
BRANCH   2  21
HETATM   21  C   UNL     1     -43.154  58.550 -56.823  1.00  0.00     0.093 A 
HETATM   22  S   UNL     1     -42.287  60.009 -56.749  1.00  0.00    -0.075 SA
HETATM   23  C   UNL     1     -42.153  60.101 -58.434  1.00  0.00    -0.008 A 
HETATM   24  C   UNL     1     -42.759  59.037 -59.073  1.00  0.00    -0.026 A 
HETATM   25  C   UNL     1     -41.416  61.217 -59.109  1.00  0.00     0.047 C 
HETATM   26  C   UNL     1     -42.761  58.920 -60.573  1.00  0.00     0.041 C 
HETATM   27  C   UNL     1     -43.406  58.149 -58.132  1.00  0.00     0.072 A 
HETATM   28  C   UNL     1     -41.736  59.860 -61.229  1.00  0.00     0.005 C 
HETATM   29  C   UNL     1     -41.764  61.260 -60.604  1.00  0.00     0.005 C 
BRANCH  27  30
HETATM   30  C   UNL     1     -44.192  56.973 -58.504  1.00  0.00     0.252 C 
HETATM   31  N   UNL     1     -45.552  57.149 -58.513  1.00  0.00    -0.366 N 
HETATM   32  H   UNL     1     -45.912  58.086 -58.644  1.00  0.00     0.159 HD
HETATM   33  H   UNL     1     -46.058  56.403 -58.976  1.00  0.00     0.159 HD
HETATM   34  O   UNL     1     -43.710  55.902 -58.852  1.00  0.00    -0.268 OA
ENDBRANCH  27  30
ENDBRANCH   2  21
TORSDOF 6
ENDMDL
MODEL 8
REMARK VINA RESULT:      -7.9      5.772      9.261
REMARK  6 active torsions:
REMARK  status: ('A' for Active; 'I' for Inactive)
REMARK    1  A    between atoms: C_7  and  C_8 
REMARK    2  A    between atoms: C_12  and  S_13 
REMARK    3  A    between atoms: S_13  and  C_14 
REMARK    4  A    between atoms: C_14  and  C_15 
REMARK       I    between atoms: C_15  and  N_16 
REMARK    5  A    between atoms: N_16  and  C_17 
REMARK    6  A    between atoms: C_25  and  C_26 
REMARK       I    between atoms: C_26  and  N_27 
ROOT
HETATM    1  C   UNL     1     -43.412  56.850 -51.211  1.00  0.00     0.232 C 
HETATM    2  N   UNL     1     -42.178  56.556 -51.756  1.00  0.00    -0.320 N 
HETATM    3  O   UNL     1     -44.239  56.031 -50.809  1.00  0.00    -0.272 OA
HETATM    4  H   UNL     1     -41.598  57.352 -52.005  1.00  0.00     0.169 HD
ENDROOT
BRANCH   1   5
HETATM    5  C   UNL     1     -43.723  58.336 -51.038  1.00  0.00     0.185 C 
BRANCH   5   6
HETATM    6  S   UNL     1     -45.479  58.811 -51.071  1.00  0.00    -0.081 SA
BRANCH   6   7
HETATM    7  C   UNL     1     -45.426  60.305 -50.223  1.00  0.00     0.185 A 
HETATM    8  N   UNL     1     -45.026  61.460 -50.811  1.00  0.00    -0.253 N 
HETATM    9  N   UNL     1     -45.178  62.496 -49.973  1.00  0.00    -0.152 NA
HETATM   10  H   UNL     1     -44.676  61.613 -51.749  1.00  0.00     0.191 HD
HETATM   11  C   UNL     1     -45.649  61.905 -48.863  1.00  0.00     0.183 A 
HETATM   12  N   UNL     1     -45.821  60.539 -49.002  1.00  0.00    -0.201 NA
BRANCH  11  13
HETATM   13  C   UNL     1     -46.053  62.597 -47.639  1.00  0.00     0.035 A 
HETATM   14  C   UNL     1     -47.240  63.336 -47.498  1.00  0.00     0.049 A 
HETATM   15  C   UNL     1     -47.557  63.945 -46.274  1.00  0.00     0.048 A 
HETATM   16 CL   UNL     1     -48.366  63.609 -48.786  1.00  0.00    -0.083 Cl
HETATM   17  C   UNL     1     -46.693  63.831 -45.190  1.00  0.00     0.035 A 
HETATM   18  C   UNL     1     -45.506  63.119 -45.310  1.00  0.00     0.025 A 
HETATM   19 CL   UNL     1     -47.091  64.583 -43.694  1.00  0.00    -0.084 Cl
HETATM   20  C   UNL     1     -45.189  62.508 -46.526  1.00  0.00     0.019 A 
ENDBRANCH  11  13
ENDBRANCH   6   7
ENDBRANCH   5   6
ENDBRANCH   1   5
BRANCH   2  21
HETATM   21  C   UNL     1     -41.702  55.323 -52.179  1.00  0.00     0.093 A 
HETATM   22  S   UNL     1     -41.762  54.873 -53.816  1.00  0.00    -0.075 SA
HETATM   23  C   UNL     1     -40.917  53.434 -53.529  1.00  0.00    -0.008 A 
HETATM   24  C   UNL     1     -40.581  53.274 -52.199  1.00  0.00    -0.026 A 
HETATM   25  C   UNL     1     -40.566  52.488 -54.636  1.00  0.00     0.047 C 
HETATM   26  C   UNL     1     -39.828  52.062 -51.720  1.00  0.00     0.041 C 
HETATM   27  C   UNL     1     -41.095  54.354 -51.386  1.00  0.00     0.072 A 
HETATM   28  C   UNL     1     -39.187  51.283 -52.880  1.00  0.00     0.005 C 
HETATM   29  C   UNL     1     -40.151  51.125 -54.063  1.00  0.00     0.005 C 
BRANCH  27  30
HETATM   30  C   UNL     1     -40.966  54.434 -49.931  1.00  0.00     0.252 C 
HETATM   31  N   UNL     1     -39.687  54.575 -49.458  1.00  0.00    -0.366 N 
HETATM   32  H   UNL     1     -38.992  54.982 -50.072  1.00  0.00     0.159 HD
HETATM   33  H   UNL     1     -39.638  54.843 -48.482  1.00  0.00     0.159 HD
HETATM   34  O   UNL     1     -41.912  54.441 -49.153  1.00  0.00    -0.268 OA
ENDBRANCH  27  30
ENDBRANCH   2  21
TORSDOF 6
ENDMDL
MODEL 9
REMARK VINA RESULT:      -7.9      3.688      7.075
REMARK  6 active torsions:
REMARK  status: ('A' for Active; 'I' for Inactive)
REMARK    1  A    between atoms: C_7  and  C_8 
REMARK    2  A    between atoms: C_12  and  S_13 
REMARK    3  A    between atoms: S_13  and  C_14 
REMARK    4  A    between atoms: C_14  and  C_15 
REMARK       I    between atoms: C_15  and  N_16 
REMARK    5  A    between atoms: N_16  and  C_17 
REMARK    6  A    between atoms: C_25  and  C_26 
REMARK       I    between atoms: C_26  and  N_27 
ROOT
HETATM    1  C   UNL     1     -43.329  57.485 -52.505  1.00  0.00     0.232 C 
HETATM    2  N   UNL     1     -43.653  56.162 -52.735  1.00  0.00    -0.320 N 
HETATM    3  O   UNL     1     -42.196  57.965 -52.513  1.00  0.00    -0.272 OA
HETATM    4  H   UNL     1     -44.643  55.936 -52.729  1.00  0.00     0.169 HD
ENDROOT
BRANCH   1   5
HETATM    5  C   UNL     1     -44.513  58.429 -52.297  1.00  0.00     0.185 C 
BRANCH   5   6
HETATM    6  S   UNL     1     -44.489  59.986 -53.240  1.00  0.00    -0.081 SA
BRANCH   6   7
HETATM    7  C   UNL     1     -43.975  59.422 -54.781  1.00  0.00     0.185 A 
HETATM    8  N   UNL     1     -42.711  59.604 -55.237  1.00  0.00    -0.253 N 
HETATM    9  N   UNL     1     -42.535  58.980 -56.411  1.00  0.00    -0.152 NA
HETATM   10  H   UNL     1     -41.940  60.100 -54.805  1.00  0.00     0.191 HD
HETATM   11  C   UNL     1     -43.749  58.455 -56.645  1.00  0.00     0.183 A 
HETATM   12  N   UNL     1     -44.659  58.711 -55.634  1.00  0.00    -0.201 NA
BRANCH  11  13
HETATM   13  C   UNL     1     -44.102  57.606 -57.782  1.00  0.00     0.035 A 
HETATM   14  C   UNL     1     -45.059  57.936 -58.757  1.00  0.00     0.049 A 
HETATM   15  C   UNL     1     -45.312  57.067 -59.829  1.00  0.00     0.048 A 
HETATM   16 CL   UNL     1     -46.029  59.372 -58.709  1.00  0.00    -0.083 Cl
HETATM   17  C   UNL     1     -44.624  55.862 -59.932  1.00  0.00     0.035 A 
HETATM   18  C   UNL     1     -43.686  55.506 -58.972  1.00  0.00     0.025 A 
HETATM   19 CL   UNL     1     -44.943  54.804 -61.249  1.00  0.00    -0.084 Cl
HETATM   20  C   UNL     1     -43.428  56.371 -57.905  1.00  0.00     0.019 A 
ENDBRANCH  11  13
ENDBRANCH   6   7
ENDBRANCH   5   6
ENDBRANCH   1   5
BRANCH   2  21
HETATM   21  C   UNL     1     -42.798  55.070 -52.788  1.00  0.00     0.093 A 
HETATM   22  S   UNL     1     -42.452  54.295 -54.260  1.00  0.00    -0.075 SA
HETATM   23  C   UNL     1     -41.315  53.269 -53.538  1.00  0.00    -0.008 A 
HETATM   24  C   UNL     1     -41.183  53.495 -52.183  1.00  0.00    -0.026 A 
HETATM   25  C   UNL     1     -40.538  52.266 -54.334  1.00  0.00     0.047 C 
HETATM   26  C   UNL     1     -40.227  52.692 -51.342  1.00  0.00     0.041 C 
HETATM   27  C   UNL     1     -42.100  54.514 -51.720  1.00  0.00     0.072 A 
HETATM   28  C   UNL     1     -39.211  51.920 -52.200  1.00  0.00     0.005 C 
HETATM   29  C   UNL     1     -39.878  51.239 -53.402  1.00  0.00     0.005 C 
BRANCH  27  30
HETATM   30  C   UNL     1     -42.250  54.927 -50.325  1.00  0.00     0.252 C 
HETATM   31  N   UNL     1     -41.645  56.111 -49.991  1.00  0.00    -0.366 N 
HETATM   32  H   UNL     1     -41.479  56.787 -50.726  1.00  0.00     0.159 HD
HETATM   33  H   UNL     1     -41.938  56.482 -49.095  1.00  0.00     0.159 HD
HETATM   34  O   UNL     1     -42.913  54.320 -49.493  1.00  0.00    -0.268 OA
ENDBRANCH  27  30
ENDBRANCH   2  21
TORSDOF 6
ENDMDL
MODEL 10
REMARK VINA RESULT:      -7.8      3.513      7.171
REMARK  6 active torsions:
REMARK  status: ('A' for Active; 'I' for Inactive)
REMARK    1  A    between atoms: C_7  and  C_8 
REMARK    2  A    between atoms: C_12  and  S_13 
REMARK    3  A    between atoms: S_13  and  C_14 
REMARK    4  A    between atoms: C_14  and  C_15 
REMARK       I    between atoms: C_15  and  N_16 
REMARK    5  A    between atoms: N_16  and  C_17 
REMARK    6  A    between atoms: C_25  and  C_26 
REMARK       I    between atoms: C_26  and  N_27 
ROOT
HETATM    1  C   UNL     1     -43.493  57.073 -52.122  1.00  0.00     0.232 C 
HETATM    2  N   UNL     1     -43.490  55.839 -52.743  1.00  0.00    -0.320 N 
HETATM    3  O   UNL     1     -42.532  57.605 -51.566  1.00  0.00    -0.272 OA
HETATM    4  H   UNL     1     -44.360  55.560 -53.187  1.00  0.00     0.169 HD
ENDROOT
BRANCH   1   5
HETATM    5  C   UNL     1     -44.802  57.857 -52.213  1.00  0.00     0.185 C 
BRANCH   5   6
HETATM    6  S   UNL     1     -44.660  59.668 -52.317  1.00  0.00    -0.081 SA
BRANCH   6   7
HETATM    7  C   UNL     1     -43.544  59.831 -53.613  1.00  0.00     0.185 A 
HETATM    8  N   UNL     1     -42.203  59.871 -53.417  1.00  0.00    -0.253 N 
HETATM    9  N   UNL     1     -41.552  59.893 -54.589  1.00  0.00    -0.152 NA
HETATM   10  H   UNL     1     -41.683  59.860 -52.548  1.00  0.00     0.191 HD
HETATM   11  C   UNL     1     -42.557  59.900 -55.479  1.00  0.00     0.183 A 
HETATM   12  N   UNL     1     -43.809  59.852 -54.891  1.00  0.00    -0.201 NA
BRANCH  11  13
HETATM   13  C   UNL     1     -42.404  59.858 -56.934  1.00  0.00     0.035 A 
HETATM   14  C   UNL     1     -42.843  58.802 -57.750  1.00  0.00     0.049 A 
HETATM   15  C   UNL     1     -42.676  58.862 -59.142  1.00  0.00     0.048 A 
HETATM   16 CL   UNL     1     -43.559  57.346 -57.143  1.00  0.00    -0.083 Cl
HETATM   17  C   UNL     1     -42.063  59.965 -59.727  1.00  0.00     0.035 A 
HETATM   18  C   UNL     1     -41.606  61.014 -58.940  1.00  0.00     0.025 A 
HETATM   19 CL   UNL     1     -41.862  60.028 -61.435  1.00  0.00    -0.084 Cl
HETATM   20  C   UNL     1     -41.775  60.959 -57.553  1.00  0.00     0.019 A 
ENDBRANCH  11  13
ENDBRANCH   6   7
ENDBRANCH   5   6
ENDBRANCH   1   5
BRANCH   2  21
HETATM   21  C   UNL     1     -42.516  54.852 -52.679  1.00  0.00     0.093 A 
HETATM   22  S   UNL     1     -41.951  54.270 -51.186  1.00  0.00    -0.075 SA
HETATM   23  C   UNL     1     -40.991  53.088 -51.925  1.00  0.00    -0.008 A 
HETATM   24  C   UNL     1     -41.082  53.117 -53.302  1.00  0.00    -0.026 A 
HETATM   25  C   UNL     1     -40.177  52.118 -51.126  1.00  0.00     0.047 C 
HETATM   26  C   UNL     1     -40.309  52.154 -54.161  1.00  0.00     0.041 C 
HETATM   27  C   UNL     1     -41.932  54.196 -53.758  1.00  0.00     0.072 A 
HETATM   28  C   UNL     1     -39.757  50.970 -53.349  1.00  0.00     0.005 C 
HETATM   29  C   UNL     1     -39.138  51.426 -52.022  1.00  0.00     0.005 C 
BRANCH  27  30
HETATM   30  C   UNL     1     -42.170  54.531 -55.162  1.00  0.00     0.252 C 
HETATM   31  N   UNL     1     -41.183  55.261 -55.771  1.00  0.00    -0.366 N 
HETATM   32  H   UNL     1     -40.244  55.205 -55.395  1.00  0.00     0.159 HD
HETATM   33  H   UNL     1     -41.262  55.295 -56.781  1.00  0.00     0.159 HD
HETATM   34  O   UNL     1     -43.141  54.153 -55.807  1.00  0.00    -0.268 OA
ENDBRANCH  27  30
ENDBRANCH   2  21
TORSDOF 6
ENDMDL
