MODEL 1
REMARK VINA RESULT:      -8.2      0.000      0.000
REMARK  5 active torsions:
REMARK  status: ('A' for Active; 'I' for Inactive)
REMARK    1  A    between atoms: C_6  and  O_7 
REMARK    2  A    between atoms: O_7  and  C_8 
REMARK    3  A    between atoms: C_8  and  C_9 
REMARK       I    between atoms: C_9  and  N_10 
REMARK    4  A    between atoms: N_10  and  N_11 
REMARK    5  A    between atoms: C_12  and  C_13 
ROOT
HETATM    1  C   UNL     1     -43.066  56.029 -55.436  1.00  0.00     0.261 C 
HETATM    2  N   UNL     1     -42.838  56.117 -54.070  1.00  0.00    -0.246 N 
HETATM    3  O   UNL     1     -42.900  55.020 -56.121  1.00  0.00    -0.269 OA
HETATM    4  H   UNL     1     -42.976  57.003 -53.594  1.00  0.00     0.192 HD
ENDROOT
BRANCH   2   5
HETATM    5  N   UNL     1     -42.395  55.017 -53.397  1.00  0.00    -0.184 NA
HETATM    6  C   UNL     1     -41.122  54.925 -53.199  1.00  0.00     0.152 C 
BRANCH   6   7
HETATM    7  C   UNL     1     -40.611  53.777 -52.475  1.00  0.00     0.011 A 
HETATM    8  C   UNL     1     -40.331  52.465 -52.981  1.00  0.00     0.004 A 
HETATM    9  C   UNL     1     -39.845  51.703 -51.915  1.00  0.00     0.043 A 
HETATM   10  C   UNL     1     -40.431  51.851 -54.247  1.00  0.00     0.014 A 
HETATM   11  C   UNL     1     -39.459  50.364 -52.051  1.00  0.00     0.030 A 
HETATM   12  N   UNL     1     -39.836  52.514 -50.805  1.00  0.00    -0.364 N 
HETATM   13  C   UNL     1     -39.568  49.782 -53.316  1.00  0.00     0.002 A 
HETATM   14  C   UNL     1     -40.046  50.513 -54.401  1.00  0.00     0.001 A 
HETATM   15  H   UNL     1     -39.529  52.228 -49.885  1.00  0.00     0.165 HD
HETATM   16  C   UNL     1     -40.290  53.760 -51.129  1.00  0.00     0.102 A 
ENDBRANCH   6   7
ENDBRANCH   2   5
BRANCH   1  17
HETATM   17  C   UNL     1     -43.666  57.296 -56.036  1.00  0.00     0.280 C 
BRANCH  17  18
HETATM   18  O   UNL     1     -43.306  57.468 -57.405  1.00  0.00    -0.342 OA
BRANCH  18  19
HETATM   19  C   UNL     1     -44.342  57.277 -58.290  1.00  0.00     0.075 A 
HETATM   20  C   UNL     1     -44.069  56.502 -59.428  1.00  0.00    -0.028 A 
HETATM   21  C   UNL     1     -45.101  56.251 -60.350  1.00  0.00     0.016 A 
HETATM   22  C   UNL     1     -42.717  55.883 -59.643  1.00  0.00     0.051 C 
HETATM   23  C   UNL     1     -46.380  56.794 -60.170  1.00  0.00    -0.061 A 
HETATM   24  C   UNL     1     -47.488  56.494 -61.135  1.00  0.00     0.048 C 
HETATM   25  C   UNL     1     -46.627  57.584 -59.045  1.00  0.00     0.009 A 
HETATM   26  C   UNL     1     -45.613  57.832 -58.117  1.00  0.00     0.038 A 
ENDBRANCH  18  19
ENDBRANCH  17  18
ENDBRANCH   1  17
TORSDOF 5
ENDMDL
MODEL 2
REMARK VINA RESULT:      -7.9      2.103      9.124
REMARK  5 active torsions:
REMARK  status: ('A' for Active; 'I' for Inactive)
REMARK    1  A    between atoms: C_6  and  O_7 
REMARK    2  A    between atoms: O_7  and  C_8 
REMARK    3  A    between atoms: C_8  and  C_9 
REMARK       I    between atoms: C_9  and  N_10 
REMARK    4  A    between atoms: N_10  and  N_11 
REMARK    5  A    between atoms: C_12  and  C_13 
ROOT
HETATM    1  C   UNL     1     -42.160  55.834 -54.893  1.00  0.00     0.261 C 
HETATM    2  N   UNL     1     -41.983  55.661 -56.258  1.00  0.00    -0.246 N 
HETATM    3  O   UNL     1     -43.247  55.912 -54.322  1.00  0.00    -0.269 OA
HETATM    4  H   UNL     1     -41.044  55.638 -56.645  1.00  0.00     0.192 HD
ENDROOT
BRANCH   2   5
HETATM    5  N   UNL     1     -43.079  55.561 -57.064  1.00  0.00    -0.184 NA
HETATM    6  C   UNL     1     -42.923  55.879 -58.306  1.00  0.00     0.152 C 
BRANCH   6   7
HETATM    7  C   UNL     1     -44.062  55.773 -59.199  1.00  0.00     0.011 A 
HETATM    8  C   UNL     1     -45.083  56.748 -59.450  1.00  0.00     0.004 A 
HETATM    9  C   UNL     1     -45.957  56.201 -60.393  1.00  0.00     0.043 A 
HETATM   10  C   UNL     1     -45.345  58.051 -58.975  1.00  0.00     0.014 A 
HETATM   11  C   UNL     1     -47.076  56.887 -60.882  1.00  0.00     0.030 A 
HETATM   12  N   UNL     1     -45.492  54.944 -60.700  1.00  0.00    -0.364 N 
HETATM   13  C   UNL     1     -47.310  58.175 -60.395  1.00  0.00     0.002 A 
HETATM   14  C   UNL     1     -46.458  58.752 -59.456  1.00  0.00     0.001 A 
HETATM   15  H   UNL     1     -45.927  54.314 -61.359  1.00  0.00     0.165 HD
HETATM   16  C   UNL     1     -44.354  54.679 -59.993  1.00  0.00     0.102 A 
ENDBRANCH   6   7
ENDBRANCH   2   5
BRANCH   1  17
HETATM   17  C   UNL     1     -40.856  55.816 -54.103  1.00  0.00     0.280 C 
BRANCH  17  18
HETATM   18  O   UNL     1     -40.963  55.056 -52.901  1.00  0.00    -0.342 OA
BRANCH  18  19
HETATM   19  C   UNL     1     -40.589  53.739 -53.030  1.00  0.00     0.075 A 
HETATM   20  C   UNL     1     -40.101  53.102 -51.878  1.00  0.00    -0.028 A 
HETATM   21  C   UNL     1     -39.732  51.747 -51.948  1.00  0.00     0.016 A 
HETATM   22  C   UNL     1     -40.030  53.822 -50.561  1.00  0.00     0.051 C 
HETATM   23  C   UNL     1     -39.805  51.038 -53.154  1.00  0.00    -0.061 A 
HETATM   24  C   UNL     1     -39.445  49.584 -53.217  1.00  0.00     0.048 C 
HETATM   25  C   UNL     1     -40.268  51.695 -54.297  1.00  0.00     0.009 A 
HETATM   26  C   UNL     1     -40.648  53.038 -54.238  1.00  0.00     0.038 A 
ENDBRANCH  18  19
ENDBRANCH  17  18
ENDBRANCH   1  17
TORSDOF 5
ENDMDL
MODEL 3
REMARK VINA RESULT:      -7.9      2.149      8.225
REMARK  5 active torsions:
REMARK  status: ('A' for Active; 'I' for Inactive)
REMARK    1  A    between atoms: C_6  and  O_7 
REMARK    2  A    between atoms: O_7  and  C_8 
REMARK    3  A    between atoms: C_8  and  C_9 
REMARK       I    between atoms: C_9  and  N_10 
REMARK    4  A    between atoms: N_10  and  N_11 
REMARK    5  A    between atoms: C_12  and  C_13 
ROOT
HETATM    1  C   UNL     1     -43.109  55.435 -53.300  1.00  0.00     0.261 C 
HETATM    2  N   UNL     1     -42.619  56.567 -53.934  1.00  0.00    -0.246 N 
HETATM    3  O   UNL     1     -43.984  54.692 -53.746  1.00  0.00    -0.269 OA
HETATM    4  H   UNL     1     -41.916  57.137 -53.473  1.00  0.00     0.192 HD
ENDROOT
BRANCH   2   5
HETATM    5  N   UNL     1     -43.121  56.917 -55.153  1.00  0.00    -0.184 NA
HETATM    6  C   UNL     1     -42.331  56.793 -56.168  1.00  0.00     0.152 C 
BRANCH   6   7
HETATM    7  C   UNL     1     -42.831  57.141 -57.485  1.00  0.00     0.011 A 
HETATM    8  C   UNL     1     -43.455  56.283 -58.449  1.00  0.00     0.004 A 
HETATM    9  C   UNL     1     -43.777  57.069 -59.559  1.00  0.00     0.043 A 
HETATM   10  C   UNL     1     -43.791  54.913 -58.484  1.00  0.00     0.014 A 
HETATM   11  C   UNL     1     -44.412  56.556 -60.697  1.00  0.00     0.030 A 
HETATM   12  N   UNL     1     -43.361  58.351 -59.285  1.00  0.00    -0.364 N 
HETATM   13  C   UNL     1     -44.733  55.197 -60.703  1.00  0.00     0.002 A 
HETATM   14  C   UNL     1     -44.429  54.385 -59.614  1.00  0.00     0.001 A 
HETATM   15  H   UNL     1     -43.466  59.137 -59.912  1.00  0.00     0.165 HD
HETATM   16  C   UNL     1     -42.796  58.406 -58.043  1.00  0.00     0.102 A 
ENDBRANCH   6   7
ENDBRANCH   2   5
BRANCH   1  17
HETATM   17  C   UNL     1     -42.382  55.101 -52.002  1.00  0.00     0.280 C 
BRANCH  17  18
HETATM   18  O   UNL     1     -40.974  54.977 -52.187  1.00  0.00    -0.342 OA
BRANCH  18  19
HETATM   19  C   UNL     1     -40.578  53.769 -52.713  1.00  0.00     0.075 A 
HETATM   20  C   UNL     1     -40.125  52.799 -51.805  1.00  0.00    -0.028 A 
HETATM   21  C   UNL     1     -39.736  51.537 -52.286  1.00  0.00     0.016 A 
HETATM   22  C   UNL     1     -40.110  53.065 -50.326  1.00  0.00     0.051 C 
HETATM   23  C   UNL     1     -39.757  51.247 -53.656  1.00  0.00    -0.061 A 
HETATM   24  C   UNL     1     -39.377  49.888 -54.163  1.00  0.00     0.048 C 
HETATM   25  C   UNL     1     -40.187  52.232 -54.549  1.00  0.00     0.009 A 
HETATM   26  C   UNL     1     -40.586  53.487 -54.082  1.00  0.00     0.038 A 
ENDBRANCH  18  19
ENDBRANCH  17  18
ENDBRANCH   1  17
TORSDOF 5
ENDMDL
MODEL 4
REMARK VINA RESULT:      -7.8      1.732      2.276
REMARK  5 active torsions:
REMARK  status: ('A' for Active; 'I' for Inactive)
REMARK    1  A    between atoms: C_6  and  O_7 
REMARK    2  A    between atoms: O_7  and  C_8 
REMARK    3  A    between atoms: C_8  and  C_9 
REMARK       I    between atoms: C_9  and  N_10 
REMARK    4  A    between atoms: N_10  and  N_11 
REMARK    5  A    between atoms: C_12  and  C_13 
ROOT
HETATM    1  C   UNL     1     -42.975  55.945 -55.669  1.00  0.00     0.261 C 
HETATM    2  N   UNL     1     -42.590  56.038 -54.339  1.00  0.00    -0.246 N 
HETATM    3  O   UNL     1     -42.991  54.909 -56.333  1.00  0.00    -0.269 OA
HETATM    4  H   UNL     1     -42.581  56.944 -53.881  1.00  0.00     0.192 HD
ENDROOT
BRANCH   2   5
HETATM    5  N   UNL     1     -42.193  54.912 -53.681  1.00  0.00    -0.184 NA
HETATM    6  C   UNL     1     -41.004  54.917 -53.175  1.00  0.00     0.152 C 
BRANCH   6   7
HETATM    7  C   UNL     1     -40.549  53.743 -52.455  1.00  0.00     0.011 A 
HETATM    8  C   UNL     1     -40.293  52.432 -52.974  1.00  0.00     0.004 A 
HETATM    9  C   UNL     1     -39.861  51.640 -51.907  1.00  0.00     0.043 A 
HETATM   10  C   UNL     1     -40.374  51.840 -54.252  1.00  0.00     0.014 A 
HETATM   11  C   UNL     1     -39.509  50.292 -52.052  1.00  0.00     0.030 A 
HETATM   12  N   UNL     1     -39.860  52.434 -50.784  1.00  0.00    -0.364 N 
HETATM   13  C   UNL     1     -39.599  49.733 -53.329  1.00  0.00     0.002 A 
HETATM   14  C   UNL     1     -40.023  50.493 -54.415  1.00  0.00     0.001 A 
HETATM   15  H   UNL     1     -39.589  52.125 -49.860  1.00  0.00     0.165 HD
HETATM   16  C   UNL     1     -40.267  53.697 -51.102  1.00  0.00     0.102 A 
ENDBRANCH   6   7
ENDBRANCH   2   5
BRANCH   1  17
HETATM   17  C   UNL     1     -43.501  57.255 -56.244  1.00  0.00     0.280 C 
BRANCH  17  18
HETATM   18  O   UNL     1     -43.947  57.114 -57.592  1.00  0.00    -0.342 OA
BRANCH  18  19
HETATM   19  C   UNL     1     -43.406  58.030 -58.463  1.00  0.00     0.075 A 
HETATM   20  C   UNL     1     -42.682  57.519 -59.553  1.00  0.00    -0.028 A 
HETATM   21  C   UNL     1     -42.133  58.411 -60.490  1.00  0.00     0.016 A 
HETATM   22  C   UNL     1     -42.541  56.039 -59.768  1.00  0.00     0.051 C 
HETATM   23  C   UNL     1     -42.262  59.797 -60.333  1.00  0.00    -0.061 A 
HETATM   24  C   UNL     1     -41.708  60.744 -61.355  1.00  0.00     0.048 C 
HETATM   25  C   UNL     1     -42.964  60.289 -59.230  1.00  0.00     0.009 A 
HETATM   26  C   UNL     1     -43.523  59.413 -58.297  1.00  0.00     0.038 A 
ENDBRANCH  18  19
ENDBRANCH  17  18
ENDBRANCH   1  17
TORSDOF 5
ENDMDL
MODEL 5
REMARK VINA RESULT:      -7.7      2.543      8.910
REMARK  5 active torsions:
REMARK  status: ('A' for Active; 'I' for Inactive)
REMARK    1  A    between atoms: C_6  and  O_7 
REMARK    2  A    between atoms: O_7  and  C_8 
REMARK    3  A    between atoms: C_8  and  C_9 
REMARK       I    between atoms: C_9  and  N_10 
REMARK    4  A    between atoms: N_10  and  N_11 
REMARK    5  A    between atoms: C_12  and  C_13 
ROOT
HETATM    1  C   UNL     1     -42.497  56.332 -54.101  1.00  0.00     0.261 C 
HETATM    2  N   UNL     1     -43.158  55.712 -55.152  1.00  0.00    -0.246 N 
HETATM    3  O   UNL     1     -42.127  57.506 -54.089  1.00  0.00    -0.269 OA
HETATM    4  H   UNL     1     -43.399  54.728 -55.082  1.00  0.00     0.192 HD
ENDROOT
BRANCH   2   5
HETATM    5  N   UNL     1     -43.439  56.429 -56.277  1.00  0.00    -0.184 NA
HETATM    6  C   UNL     1     -43.003  55.956 -57.397  1.00  0.00     0.152 C 
BRANCH   6   7
HETATM    7  C   UNL     1     -43.292  56.681 -58.619  1.00  0.00     0.011 A 
HETATM    8  C   UNL     1     -42.886  58.008 -58.978  1.00  0.00     0.004 A 
HETATM    9  C   UNL     1     -43.392  58.269 -60.254  1.00  0.00     0.043 A 
HETATM   10  C   UNL     1     -42.123  59.014 -58.346  1.00  0.00     0.014 A 
HETATM   11  C   UNL     1     -43.178  59.478 -60.926  1.00  0.00     0.030 A 
HETATM   12  N   UNL     1     -44.084  57.149 -60.654  1.00  0.00    -0.364 N 
HETATM   13  C   UNL     1     -42.420  60.455 -60.278  1.00  0.00     0.002 A 
HETATM   14  C   UNL     1     -41.897  60.229 -59.007  1.00  0.00     0.001 A 
HETATM   15  H   UNL     1     -44.558  57.052 -61.541  1.00  0.00     0.165 HD
HETATM   16  C   UNL     1     -44.028  56.191 -59.683  1.00  0.00     0.102 A 
ENDBRANCH   6   7
ENDBRANCH   2   5
BRANCH   1  17
HETATM   17  C   UNL     1     -42.350  55.449 -52.867  1.00  0.00     0.280 C 
BRANCH  17  18
HETATM   18  O   UNL     1     -40.986  55.146 -52.579  1.00  0.00    -0.342 OA
BRANCH  18  19
HETATM   19  C   UNL     1     -40.615  53.860 -52.895  1.00  0.00     0.075 A 
HETATM   20  C   UNL     1     -40.088  53.078 -51.855  1.00  0.00    -0.028 A 
HETATM   21  C   UNL     1     -39.720  51.746 -52.117  1.00  0.00     0.016 A 
HETATM   22  C   UNL     1     -39.972  53.617 -50.458  1.00  0.00     0.051 C 
HETATM   23  C   UNL     1     -39.833  51.204 -53.403  1.00  0.00    -0.061 A 
HETATM   24  C   UNL     1     -39.475  49.772 -53.671  1.00  0.00     0.048 C 
HETATM   25  C   UNL     1     -40.336  52.004 -54.432  1.00  0.00     0.009 A 
HETATM   26  C   UNL     1     -40.715  53.325 -54.183  1.00  0.00     0.038 A 
ENDBRANCH  18  19
ENDBRANCH  17  18
ENDBRANCH   1  17
TORSDOF 5
ENDMDL
MODEL 6
REMARK VINA RESULT:      -7.5      2.096      8.812
REMARK  5 active torsions:
REMARK  status: ('A' for Active; 'I' for Inactive)
REMARK    1  A    between atoms: C_6  and  O_7 
REMARK    2  A    between atoms: O_7  and  C_8 
REMARK    3  A    between atoms: C_8  and  C_9 
REMARK       I    between atoms: C_9  and  N_10 
REMARK    4  A    between atoms: N_10  and  N_11 
REMARK    5  A    between atoms: C_12  and  C_13 
ROOT
HETATM    1  C   UNL     1     -42.352  56.587 -53.836  1.00  0.00     0.261 C 
HETATM    2  N   UNL     1     -42.178  57.119 -55.106  1.00  0.00    -0.246 N 
HETATM    3  O   UNL     1     -43.433  56.447 -53.266  1.00  0.00    -0.269 OA
HETATM    4  H   UNL     1     -41.241  57.223 -55.484  1.00  0.00     0.192 HD
ENDROOT
BRANCH   2   5
HETATM    5  N   UNL     1     -43.271  57.531 -55.810  1.00  0.00    -0.184 NA
HETATM    6  C   UNL     1     -43.312  57.218 -57.063  1.00  0.00     0.152 C 
BRANCH   6   7
HETATM    7  C   UNL     1     -44.465  57.625 -57.844  1.00  0.00     0.011 A 
HETATM    8  C   UNL     1     -45.061  56.949 -58.958  1.00  0.00     0.004 A 
HETATM    9  C   UNL     1     -46.154  57.716 -59.373  1.00  0.00     0.043 A 
HETATM   10  C   UNL     1     -44.787  55.751 -59.651  1.00  0.00     0.014 A 
HETATM   11  C   UNL     1     -46.981  57.347 -60.442  1.00  0.00     0.030 A 
HETATM   12  N   UNL     1     -46.216  58.816 -58.550  1.00  0.00    -0.364 N 
HETATM   13  C   UNL     1     -46.686  56.156 -61.108  1.00  0.00     0.002 A 
HETATM   14  C   UNL     1     -45.606  55.366 -60.720  1.00  0.00     0.001 A 
HETATM   15  H   UNL     1     -46.912  59.546 -58.617  1.00  0.00     0.165 HD
HETATM   16  C   UNL     1     -45.211  58.770 -57.628  1.00  0.00     0.102 A 
ENDBRANCH   6   7
ENDBRANCH   2   5
BRANCH   1  17
HETATM   17  C   UNL     1     -41.062  56.065 -53.213  1.00  0.00     0.280 C 
BRANCH  17  18
HETATM   18  O   UNL     1     -41.292  54.967 -52.333  1.00  0.00    -0.342 OA
BRANCH  18  19
HETATM   19  C   UNL     1     -40.837  53.759 -52.807  1.00  0.00     0.075 A 
HETATM   20  C   UNL     1     -40.146  52.940 -51.900  1.00  0.00    -0.028 A 
HETATM   21  C   UNL     1     -39.685  51.681 -52.325  1.00  0.00     0.016 A 
HETATM   22  C   UNL     1     -39.950  53.356 -50.470  1.00  0.00     0.051 C 
HETATM   23  C   UNL     1     -39.869  51.252 -53.645  1.00  0.00    -0.061 A 
HETATM   24  C   UNL     1     -39.409  49.894 -54.086  1.00  0.00     0.048 C 
HETATM   25  C   UNL     1     -40.536  52.090 -54.542  1.00  0.00     0.009 A 
HETATM   26  C   UNL     1     -41.008  53.338 -54.129  1.00  0.00     0.038 A 
ENDBRANCH  18  19
ENDBRANCH  17  18
ENDBRANCH   1  17
TORSDOF 5
ENDMDL
MODEL 7
REMARK VINA RESULT:      -7.4      5.376      9.714
REMARK  5 active torsions:
REMARK  status: ('A' for Active; 'I' for Inactive)
REMARK    1  A    between atoms: C_6  and  O_7 
REMARK    2  A    between atoms: O_7  and  C_8 
REMARK    3  A    between atoms: C_8  and  C_9 
REMARK       I    between atoms: C_9  and  N_10 
REMARK    4  A    between atoms: N_10  and  N_11 
REMARK    5  A    between atoms: C_12  and  C_13 
ROOT
HETATM    1  C   UNL     1     -43.284  56.603 -52.530  1.00  0.00     0.261 C 
HETATM    2  N   UNL     1     -44.555  56.836 -52.025  1.00  0.00    -0.246 N 
HETATM    3  O   UNL     1     -42.550  57.456 -53.027  1.00  0.00    -0.269 OA
HETATM    4  H   UNL     1     -45.101  56.061 -51.659  1.00  0.00     0.192 HD
ENDROOT
BRANCH   2   5
HETATM    5  N   UNL     1     -45.065  58.100 -52.063  1.00  0.00    -0.184 NA
HETATM    6  C   UNL     1     -45.248  58.692 -50.929  1.00  0.00     0.152 C 
BRANCH   6   7
HETATM    7  C   UNL     1     -45.776  60.043 -50.927  1.00  0.00     0.011 A 
HETATM    8  C   UNL     1     -45.573  61.070 -49.948  1.00  0.00     0.004 A 
HETATM    9  C   UNL     1     -46.269  62.202 -50.382  1.00  0.00     0.043 A 
HETATM   10  C   UNL     1     -44.855  61.155 -48.737  1.00  0.00     0.014 A 
HETATM   11  C   UNL     1     -46.283  63.407 -49.669  1.00  0.00     0.030 A 
HETATM   12  N   UNL     1     -46.875  61.876 -51.573  1.00  0.00    -0.364 N 
HETATM   13  C   UNL     1     -45.563  63.462 -48.474  1.00  0.00     0.002 A 
HETATM   14  C   UNL     1     -44.857  62.354 -48.013  1.00  0.00     0.001 A 
HETATM   15  H   UNL     1     -47.446  62.506 -52.119  1.00  0.00     0.165 HD
HETATM   16  C   UNL     1     -46.584  60.586 -51.911  1.00  0.00     0.102 A 
ENDBRANCH   6   7
ENDBRANCH   2   5
BRANCH   1  17
HETATM   17  C   UNL     1     -42.798  55.173 -52.320  1.00  0.00     0.280 C 
BRANCH  17  18
HETATM   18  O   UNL     1     -41.376  55.072 -52.374  1.00  0.00    -0.342 OA
BRANCH  18  19
HETATM   19  C   UNL     1     -40.913  53.863 -52.837  1.00  0.00     0.075 A 
HETATM   20  C   UNL     1     -40.174  53.080 -51.936  1.00  0.00    -0.028 A 
HETATM   21  C   UNL     1     -39.702  51.821 -52.349  1.00  0.00     0.016 A 
HETATM   22  C   UNL     1     -39.935  53.533 -50.524  1.00  0.00     0.051 C 
HETATM   23  C   UNL     1     -39.923  51.357 -53.651  1.00  0.00    -0.061 A 
HETATM   24  C   UNL     1     -39.451  49.998 -54.077  1.00  0.00     0.048 C 
HETATM   25  C   UNL     1     -40.639  52.160 -54.543  1.00  0.00     0.009 A 
HETATM   26  C   UNL     1     -41.122  53.408 -54.142  1.00  0.00     0.038 A 
ENDBRANCH  18  19
ENDBRANCH  17  18
ENDBRANCH   1  17
TORSDOF 5
ENDMDL
MODEL 8
REMARK VINA RESULT:      -7.4      2.264      9.445
REMARK  5 active torsions:
REMARK  status: ('A' for Active; 'I' for Inactive)
REMARK    1  A    between atoms: C_6  and  O_7 
REMARK    2  A    between atoms: O_7  and  C_8 
REMARK    3  A    between atoms: C_8  and  C_9 
REMARK       I    between atoms: C_9  and  N_10 
REMARK    4  A    between atoms: N_10  and  N_11 
REMARK    5  A    between atoms: C_12  and  C_13 
ROOT
HETATM    1  C   UNL     1     -42.208  55.560 -55.050  1.00  0.00     0.261 C 
HETATM    2  N   UNL     1     -42.005  55.348 -56.406  1.00  0.00    -0.246 N 
HETATM    3  O   UNL     1     -43.305  55.689 -54.508  1.00  0.00    -0.269 OA
HETATM    4  H   UNL     1     -41.058  55.282 -56.769  1.00  0.00     0.192 HD
ENDROOT
BRANCH   2   5
HETATM    5  N   UNL     1     -43.084  55.268 -57.236  1.00  0.00    -0.184 NA
HETATM    6  C   UNL     1     -43.014  55.915 -58.352  1.00  0.00     0.152 C 
BRANCH   6   7
HETATM    7  C   UNL     1     -44.136  55.844 -59.269  1.00  0.00     0.011 A 
HETATM    8  C   UNL     1     -45.180  56.807 -59.465  1.00  0.00     0.004 A 
HETATM    9  C   UNL     1     -46.025  56.307 -60.460  1.00  0.00     0.043 A 
HETATM   10  C   UNL     1     -45.484  58.065 -58.904  1.00  0.00     0.014 A 
HETATM   11  C   UNL     1     -47.155  56.997 -60.916  1.00  0.00     0.030 A 
HETATM   12  N   UNL     1     -45.522  55.088 -60.848  1.00  0.00    -0.364 N 
HETATM   13  C   UNL     1     -47.431  58.240 -60.343  1.00  0.00     0.002 A 
HETATM   14  C   UNL     1     -46.609  58.770 -59.352  1.00  0.00     0.001 A 
HETATM   15  H   UNL     1     -45.930  54.495 -61.557  1.00  0.00     0.165 HD
HETATM   16  C   UNL     1     -44.388  54.802 -60.143  1.00  0.00     0.102 A 
ENDBRANCH   6   7
ENDBRANCH   2   5
BRANCH   1  17
HETATM   17  C   UNL     1     -40.924  55.514 -54.228  1.00  0.00     0.280 C 
BRANCH  17  18
HETATM   18  O   UNL     1     -40.686  54.224 -53.669  1.00  0.00    -0.342 OA
BRANCH  18  19
HETATM   19  C   UNL     1     -40.650  54.203 -52.294  1.00  0.00     0.075 A 
HETATM   20  C   UNL     1     -40.189  53.023 -51.689  1.00  0.00    -0.028 A 
HETATM   21  C   UNL     1     -40.105  52.958 -50.287  1.00  0.00     0.016 A 
HETATM   22  C   UNL     1     -39.726  51.856 -52.514  1.00  0.00     0.051 C 
HETATM   23  C   UNL     1     -40.508  54.035 -49.488  1.00  0.00    -0.061 A 
HETATM   24  C   UNL     1     -40.382  53.977 -47.994  1.00  0.00     0.048 C 
HETATM   25  C   UNL     1     -40.988  55.193 -50.105  1.00  0.00     0.009 A 
HETATM   26  C   UNL     1     -41.068  55.273 -51.497  1.00  0.00     0.038 A 
ENDBRANCH  18  19
ENDBRANCH  17  18
ENDBRANCH   1  17
TORSDOF 5
ENDMDL
MODEL 9
REMARK VINA RESULT:      -7.3     14.496     17.902
REMARK  5 active torsions:
REMARK  status: ('A' for Active; 'I' for Inactive)
REMARK    1  A    between atoms: C_6  and  O_7 
REMARK    2  A    between atoms: O_7  and  C_8 
REMARK    3  A    between atoms: C_8  and  C_9 
REMARK       I    between atoms: C_9  and  N_10 
REMARK    4  A    between atoms: N_10  and  N_11 
REMARK    5  A    between atoms: C_12  and  C_13 
ROOT
HETATM    1  C   UNL     1     -35.872  41.759 -54.110  1.00  0.00     0.261 C 
HETATM    2  N   UNL     1     -36.834  42.301 -54.950  1.00  0.00    -0.246 N 
HETATM    3  O   UNL     1     -34.891  41.113 -54.477  1.00  0.00    -0.269 OA
HETATM    4  H   UNL     1     -37.627  42.796 -54.553  1.00  0.00     0.192 HD
ENDROOT
BRANCH   2   5
HETATM    5  N   UNL     1     -36.716  42.126 -56.297  1.00  0.00    -0.184 NA
HETATM    6  C   UNL     1     -37.609  41.390 -56.873  1.00  0.00     0.152 C 
BRANCH   6   7
HETATM    7  C   UNL     1     -37.527  41.191 -58.307  1.00  0.00     0.011 A 
HETATM    8  C   UNL     1     -37.823  40.003 -59.053  1.00  0.00     0.004 A 
HETATM    9  C   UNL     1     -37.609  40.295 -60.403  1.00  0.00     0.043 A 
HETATM   10  C   UNL     1     -38.264  38.707 -58.715  1.00  0.00     0.014 A 
HETATM   11  C   UNL     1     -37.812  39.361 -61.426  1.00  0.00     0.030 A 
HETATM   12  N   UNL     1     -37.194  41.605 -60.476  1.00  0.00    -0.364 N 
HETATM   13  C   UNL     1     -38.250  38.086 -61.062  1.00  0.00     0.002 A 
HETATM   14  C   UNL     1     -38.475  37.761 -59.727  1.00  0.00     0.001 A 
HETATM   15  H   UNL     1     -36.967  42.090 -61.333  1.00  0.00     0.165 HD
HETATM   16  C   UNL     1     -37.144  42.152 -59.226  1.00  0.00     0.102 A 
ENDBRANCH   6   7
ENDBRANCH   2   5
BRANCH   1  17
HETATM   17  C   UNL     1     -36.067  42.127 -52.643  1.00  0.00     0.280 C 
BRANCH  17  18
HETATM   18  O   UNL     1     -34.868  41.979 -51.885  1.00  0.00    -0.342 OA
BRANCH  18  19
HETATM   19  C   UNL     1     -34.877  40.910 -51.019  1.00  0.00     0.075 A 
HETATM   20  C   UNL     1     -33.653  40.258 -50.803  1.00  0.00    -0.028 A 
HETATM   21  C   UNL     1     -33.600  39.177 -49.905  1.00  0.00     0.016 A 
HETATM   22  C   UNL     1     -32.390  40.734 -51.463  1.00  0.00     0.051 C 
HETATM   23  C   UNL     1     -34.753  38.719 -49.256  1.00  0.00    -0.061 A 
HETATM   24  C   UNL     1     -34.687  37.590 -48.270  1.00  0.00     0.048 C 
HETATM   25  C   UNL     1     -35.968  39.363 -49.502  1.00  0.00     0.009 A 
HETATM   26  C   UNL     1     -36.032  40.444 -50.384  1.00  0.00     0.038 A 
ENDBRANCH  18  19
ENDBRANCH  17  18
ENDBRANCH   1  17
TORSDOF 5
ENDMDL
MODEL 10
REMARK VINA RESULT:      -7.2      2.939      8.687
REMARK  5 active torsions:
REMARK  status: ('A' for Active; 'I' for Inactive)
REMARK    1  A    between atoms: C_6  and  O_7 
REMARK    2  A    between atoms: O_7  and  C_8 
REMARK    3  A    between atoms: C_8  and  C_9 
REMARK       I    between atoms: C_9  and  N_10 
REMARK    4  A    between atoms: N_10  and  N_11 
REMARK    5  A    between atoms: C_12  and  C_13 
ROOT
HETATM    1  C   UNL     1     -43.010  56.100 -53.686  1.00  0.00     0.261 C 
HETATM    2  N   UNL     1     -42.529  57.397 -53.798  1.00  0.00    -0.246 N 
HETATM    3  O   UNL     1     -43.689  55.518 -54.531  1.00  0.00    -0.269 OA
HETATM    4  H   UNL     1     -42.000  57.805 -53.032  1.00  0.00     0.192 HD
ENDROOT
BRANCH   2   5
HETATM    5  N   UNL     1     -42.810  58.116 -54.922  1.00  0.00    -0.184 NA
HETATM    6  C   UNL     1     -41.896  58.926 -55.342  1.00  0.00     0.152 C 
BRANCH   6   7
HETATM    7  C   UNL     1     -42.150  59.699 -56.543  1.00  0.00     0.011 A 
HETATM    8  C   UNL     1     -42.094  59.258 -57.906  1.00  0.00     0.004 A 
HETATM    9  C   UNL     1     -42.428  60.352 -58.711  1.00  0.00     0.043 A 
HETATM   10  C   UNL     1     -41.804  58.031 -58.539  1.00  0.00     0.014 A 
HETATM   11  C   UNL     1     -42.484  60.280 -60.108  1.00  0.00     0.030 A 
HETATM   12  N   UNL     1     -42.670  61.415 -57.873  1.00  0.00    -0.364 N 
HETATM   13  C   UNL     1     -42.193  59.052 -60.706  1.00  0.00     0.002 A 
HETATM   14  C   UNL     1     -41.859  57.942 -59.936  1.00  0.00     0.001 A 
HETATM   15  H   UNL     1     -42.935  62.341 -58.180  1.00  0.00     0.165 HD
HETATM   16  C   UNL     1     -42.509  61.034 -56.572  1.00  0.00     0.102 A 
ENDBRANCH   6   7
ENDBRANCH   2   5
BRANCH   1  17
HETATM   17  C   UNL     1     -42.527  55.378 -52.433  1.00  0.00     0.280 C 
BRANCH  17  18
HETATM   18  O   UNL     1     -41.114  55.188 -52.429  1.00  0.00    -0.342 OA
BRANCH  18  19
HETATM   19  C   UNL     1     -40.711  53.941 -52.845  1.00  0.00     0.075 A 
HETATM   20  C   UNL     1     -40.235  53.064 -51.857  1.00  0.00    -0.028 A 
HETATM   21  C   UNL     1     -39.837  51.766 -52.225  1.00  0.00     0.016 A 
HETATM   22  C   UNL     1     -40.205  53.465 -50.410  1.00  0.00     0.051 C 
HETATM   23  C   UNL     1     -39.872  51.351 -53.562  1.00  0.00    -0.061 A 
HETATM   24  C   UNL     1     -39.483  49.954 -53.946  1.00  0.00     0.048 C 
HETATM   25  C   UNL     1     -40.324  52.244 -54.536  1.00  0.00     0.009 A 
HETATM   26  C   UNL     1     -40.731  53.533 -54.182  1.00  0.00     0.038 A 
ENDBRANCH  18  19
ENDBRANCH  17  18
ENDBRANCH   1  17
TORSDOF 5
ENDMDL
