MODEL 1
REMARK VINA RESULT:      -9.5      0.000      0.000
REMARK  5 active torsions:
REMARK  status: ('A' for Active; 'I' for Inactive)
REMARK    1  A    between atoms: N_4  and  C_5 
REMARK    2  A    between atoms: C_16  and  N_17 
REMARK       I    between atoms: N_17  and  C_18 
REMARK    3  A    between atoms: C_18  and  C_19 
REMARK       I    between atoms: C_19  and  N_20 
REMARK    4  A    between atoms: N_20  and  C_21 
REMARK    5  A    between atoms: C_21  and  C_22 
ROOT
HETATM    1  C   UNL     1     -38.750  59.950 -50.205  1.00  0.00     0.072 C 
HETATM    2  C   UNL     1     -39.847  59.129 -50.774  1.00  0.00     0.055 C 
HETATM    3  N   UNL     1     -39.828  58.768 -52.059  1.00  0.00    -0.156 NA
HETATM    4  N   UNL     1     -40.979  58.036 -52.229  1.00  0.00    -0.045 N 
HETATM    5  C   UNL     1     -41.625  57.818 -51.012  1.00  0.00     0.152 C 
HETATM    6  C   UNL     1     -40.977  58.622 -50.099  1.00  0.00     0.079 C 
ENDROOT
BRANCH   5   7
HETATM    7  N   UNL     1     -42.737  57.029 -50.768  1.00  0.00    -0.303 N 
HETATM    8  C   UNL     1     -42.754  55.654 -50.605  1.00  0.00     0.315 C 
HETATM    9  O   UNL     1     -43.810  55.024 -50.552  1.00  0.00    -0.262 OA
HETATM   10  H   UNL     1     -43.603  57.477 -50.495  1.00  0.00     0.171 HD
BRANCH   8  11
HETATM   11  C   UNL     1     -41.437  54.895 -50.320  1.00  0.00     0.310 C 
HETATM   12  N   UNL     1     -41.003  54.118 -51.370  1.00  0.00    -0.349 N 
HETATM   13  H   UNL     1     -41.604  54.065 -52.186  1.00  0.00     0.163 HD
HETATM   14  O   UNL     1     -40.887  54.965 -49.230  1.00  0.00    -0.262 OA
BRANCH  12  15
HETATM   15  C   UNL     1     -39.916  53.185 -51.224  1.00  0.00     0.163 C 
BRANCH  15  16
HETATM   16  C   UNL     1     -39.931  52.128 -52.295  1.00  0.00    -0.019 A 
HETATM   17  C   UNL     1     -39.770  50.762 -52.016  1.00  0.00     0.042 A 
HETATM   18 CL   UNL     1     -39.608  50.176 -50.399  1.00  0.00    -0.084 Cl
HETATM   19  C   UNL     1     -39.738  49.824 -53.053  1.00  0.00     0.024 A 
HETATM   20  C   UNL     1     -39.882  50.236 -54.378  1.00  0.00     0.002 A 
HETATM   21  C   UNL     1     -40.079  51.583 -54.666  1.00  0.00     0.001 A 
HETATM   22  C   UNL     1     -40.108  52.521 -53.634  1.00  0.00     0.010 A 
ENDBRANCH  15  16
ENDBRANCH  12  15
ENDBRANCH   8  11
ENDBRANCH   5   7
BRANCH   4  23
HETATM   23  C   UNL     1     -41.413  57.768 -53.546  1.00  0.00     0.732 A 
HETATM   24  N   UNL     1     -41.606  56.579 -54.018  1.00  0.00    -0.067 NA
HETATM   25  C   UNL     1     -42.075  56.496 -55.309  1.00  0.00     0.065 A 
HETATM   26  C   UNL     1     -42.364  57.561 -56.079  1.00  0.00     0.036 A 
HETATM   27  C   UNL     1     -42.295  55.088 -55.816  1.00  0.00     0.060 C 
HETATM   28  C   UNL     1     -42.914  57.478 -57.472  1.00  0.00     0.046 C 
HETATM   29  C   UNL     1     -42.128  58.911 -55.511  1.00  0.00     0.268 A 
HETATM   30  C   UNL     1     -42.871  56.068 -58.062  1.00  0.00     0.005 C 
HETATM   31  C   UNL     1     -43.230  55.013 -57.024  1.00  0.00     0.006 C 
HETATM   32  O   UNL     1     -42.362  59.936 -56.141  1.00  0.00    -0.267 OA
HETATM   33  N   UNL     1     -41.643  58.924 -54.242  1.00  0.00    -0.152 N 
HETATM   34  H   UNL     1     -41.488  59.811 -53.776  1.00  0.00     0.188 HD
ENDBRANCH   4  23
TORSDOF 5
ENDMDL
MODEL 2
REMARK VINA RESULT:      -9.4      2.618      4.362
REMARK  5 active torsions:
REMARK  status: ('A' for Active; 'I' for Inactive)
REMARK    1  A    between atoms: N_4  and  C_5 
REMARK    2  A    between atoms: C_16  and  N_17 
REMARK       I    between atoms: N_17  and  C_18 
REMARK    3  A    between atoms: C_18  and  C_19 
REMARK       I    between atoms: C_19  and  N_20 
REMARK    4  A    between atoms: N_20  and  C_21 
REMARK    5  A    between atoms: C_21  and  C_22 
ROOT
HETATM    1  C   UNL     1     -40.969  54.662 -48.669  1.00  0.00     0.072 C 
HETATM    2  C   UNL     1     -41.694  55.213 -49.841  1.00  0.00     0.055 C 
HETATM    3  N   UNL     1     -41.463  56.462 -50.255  1.00  0.00    -0.156 NA
HETATM    4  N   UNL     1     -42.298  56.627 -51.335  1.00  0.00    -0.045 N 
HETATM    5  C   UNL     1     -42.925  55.428 -51.678  1.00  0.00     0.152 C 
HETATM    6  C   UNL     1     -42.644  54.555 -50.650  1.00  0.00     0.079 C 
ENDROOT
BRANCH   5   7
HETATM    7  N   UNL     1     -43.735  55.175 -52.773  1.00  0.00    -0.303 N 
HETATM    8  C   UNL     1     -43.316  54.931 -54.070  1.00  0.00     0.315 C 
HETATM    9  O   UNL     1     -44.113  54.875 -55.005  1.00  0.00    -0.262 OA
HETATM   10  H   UNL     1     -44.711  54.957 -52.618  1.00  0.00     0.171 HD
BRANCH   8  11
HETATM   11  C   UNL     1     -41.840  54.558 -54.347  1.00  0.00     0.310 C 
HETATM   12  N   UNL     1     -41.588  53.206 -54.305  1.00  0.00    -0.349 N 
HETATM   13  H   UNL     1     -42.359  52.600 -54.041  1.00  0.00     0.163 HD
HETATM   14  O   UNL     1     -40.992  55.420 -54.531  1.00  0.00    -0.262 OA
BRANCH  12  15
HETATM   15  C   UNL     1     -40.248  52.683 -54.334  1.00  0.00     0.163 C 
BRANCH  15  16
HETATM   16  C   UNL     1     -39.987  51.733 -53.197  1.00  0.00    -0.019 A 
HETATM   17  C   UNL     1     -39.748  50.364 -53.391  1.00  0.00     0.042 A 
HETATM   18 CL   UNL     1     -39.668  49.668 -54.970  1.00  0.00    -0.084 Cl
HETATM   19  C   UNL     1     -39.563  49.513 -52.296  1.00  0.00     0.024 A 
HETATM   20  C   UNL     1     -39.599  50.020 -50.998  1.00  0.00     0.002 A 
HETATM   21  C   UNL     1     -39.799  51.381 -50.792  1.00  0.00     0.001 A 
HETATM   22  C   UNL     1     -39.986  52.232 -51.882  1.00  0.00     0.010 A 
ENDBRANCH  15  16
ENDBRANCH  12  15
ENDBRANCH   8  11
ENDBRANCH   5   7
BRANCH   4  23
HETATM   23  C   UNL     1     -42.523  57.936 -51.813  1.00  0.00     0.732 A 
HETATM   24  N   UNL     1     -43.210  58.831 -51.180  1.00  0.00    -0.067 NA
HETATM   25  C   UNL     1     -43.294  60.073 -51.765  1.00  0.00     0.065 A 
HETATM   26  C   UNL     1     -42.690  60.408 -52.921  1.00  0.00     0.036 A 
HETATM   27  C   UNL     1     -44.097  61.091 -50.986  1.00  0.00     0.060 C 
HETATM   28  C   UNL     1     -42.742  61.772 -53.543  1.00  0.00     0.046 C 
HETATM   29  C   UNL     1     -41.913  59.359 -53.625  1.00  0.00     0.268 A 
HETATM   30  C   UNL     1     -43.772  62.698 -52.895  1.00  0.00     0.005 C 
HETATM   31  C   UNL     1     -43.799  62.538 -51.381  1.00  0.00     0.006 C 
HETATM   32  O   UNL     1     -41.332  59.574 -54.682  1.00  0.00    -0.267 OA
HETATM   33  N   UNL     1     -41.888  58.149 -53.006  1.00  0.00    -0.152 N 
HETATM   34  H   UNL     1     -41.350  57.392 -53.414  1.00  0.00     0.188 HD
ENDBRANCH   4  23
TORSDOF 5
ENDMDL
MODEL 3
REMARK VINA RESULT:      -8.9      2.377      4.997
REMARK  5 active torsions:
REMARK  status: ('A' for Active; 'I' for Inactive)
REMARK    1  A    between atoms: N_4  and  C_5 
REMARK    2  A    between atoms: C_16  and  N_17 
REMARK       I    between atoms: N_17  and  C_18 
REMARK    3  A    between atoms: C_18  and  C_19 
REMARK       I    between atoms: C_19  and  N_20 
REMARK    4  A    between atoms: N_20  and  C_21 
REMARK    5  A    between atoms: C_21  and  C_22 
ROOT
HETATM    1  C   UNL     1     -41.725  57.998 -59.233  1.00  0.00     0.072 C 
HETATM    2  C   UNL     1     -42.269  57.724 -57.880  1.00  0.00     0.055 C 
HETATM    3  N   UNL     1     -42.246  58.669 -56.936  1.00  0.00    -0.156 NA
HETATM    4  N   UNL     1     -42.816  58.072 -55.837  1.00  0.00    -0.045 N 
HETATM    5  C   UNL     1     -43.329  56.814 -56.153  1.00  0.00     0.152 C 
HETATM    6  C   UNL     1     -42.869  56.533 -57.421  1.00  0.00     0.079 C 
ENDROOT
BRANCH   5   7
HETATM    7  N   UNL     1     -44.074  55.971 -55.344  1.00  0.00    -0.303 N 
HETATM    8  C   UNL     1     -43.586  54.960 -54.534  1.00  0.00     0.315 C 
HETATM    9  O   UNL     1     -44.338  54.162 -53.976  1.00  0.00    -0.262 OA
HETATM   10  H   UNL     1     -45.041  56.203 -55.158  1.00  0.00     0.171 HD
BRANCH   8  11
HETATM   11  C   UNL     1     -42.080  54.912 -54.182  1.00  0.00     0.310 C 
HETATM   12  N   UNL     1     -41.397  53.885 -54.791  1.00  0.00    -0.349 N 
HETATM   13  H   UNL     1     -41.941  53.233 -55.348  1.00  0.00     0.163 HD
HETATM   14  O   UNL     1     -41.588  55.704 -53.390  1.00  0.00    -0.262 OA
BRANCH  12  15
HETATM   15  C   UNL     1     -40.043  53.555 -54.430  1.00  0.00     0.163 C 
BRANCH  15  16
HETATM   16  C   UNL     1     -39.954  52.234 -53.716  1.00  0.00    -0.019 A 
HETATM   17  C   UNL     1     -39.855  52.131 -52.320  1.00  0.00     0.042 A 
HETATM   18 CL   UNL     1     -39.897  53.524 -51.299  1.00  0.00    -0.084 Cl
HETATM   19  C   UNL     1     -39.722  50.881 -51.707  1.00  0.00     0.024 A 
HETATM   20  C   UNL     1     -39.700  49.719 -52.478  1.00  0.00     0.002 A 
HETATM   21  C   UNL     1     -39.834  49.803 -53.860  1.00  0.00     0.001 A 
HETATM   22  C   UNL     1     -39.965  51.049 -54.475  1.00  0.00     0.010 A 
ENDBRANCH  15  16
ENDBRANCH  12  15
ENDBRANCH   8  11
ENDBRANCH   5   7
BRANCH   4  23
HETATM   23  C   UNL     1     -42.663  58.699 -54.581  1.00  0.00     0.732 A 
HETATM   24  N   UNL     1     -43.642  59.185 -53.889  1.00  0.00    -0.067 NA
HETATM   25  C   UNL     1     -43.325  59.722 -52.663  1.00  0.00     0.065 A 
HETATM   26  C   UNL     1     -42.083  59.743 -52.144  1.00  0.00     0.036 A 
HETATM   27  C   UNL     1     -44.501  60.268 -51.884  1.00  0.00     0.060 C 
HETATM   28  C   UNL     1     -41.737  60.289 -50.791  1.00  0.00     0.046 C 
HETATM   29  C   UNL     1     -40.981  59.182 -52.963  1.00  0.00     0.268 A 
HETATM   30  C   UNL     1     -42.876  61.078 -50.142  1.00  0.00     0.005 C 
HETATM   31  C   UNL     1     -44.226  60.419 -50.387  1.00  0.00     0.006 C 
HETATM   32  O   UNL     1     -39.820  59.161 -52.571  1.00  0.00    -0.267 OA
HETATM   33  N   UNL     1     -41.357  58.689 -54.172  1.00  0.00    -0.152 N 
HETATM   34  H   UNL     1     -40.662  58.261 -54.774  1.00  0.00     0.188 HD
ENDBRANCH   4  23
TORSDOF 5
ENDMDL
MODEL 4
REMARK VINA RESULT:      -8.9      2.660      6.877
REMARK  5 active torsions:
REMARK  status: ('A' for Active; 'I' for Inactive)
REMARK    1  A    between atoms: N_4  and  C_5 
REMARK    2  A    between atoms: C_16  and  N_17 
REMARK       I    between atoms: N_17  and  C_18 
REMARK    3  A    between atoms: C_18  and  C_19 
REMARK       I    between atoms: C_19  and  N_20 
REMARK    4  A    between atoms: N_20  and  C_21 
REMARK    5  A    between atoms: C_21  and  C_22 
ROOT
HETATM    1  C   UNL     1     -45.757  59.336 -50.849  1.00  0.00     0.072 C 
HETATM    2  C   UNL     1     -45.125  58.297 -51.700  1.00  0.00     0.055 C 
HETATM    3  N   UNL     1     -44.534  57.235 -51.146  1.00  0.00    -0.156 NA
HETATM    4  N   UNL     1     -44.067  56.505 -52.213  1.00  0.00    -0.045 N 
HETATM    5  C   UNL     1     -44.508  57.040 -53.424  1.00  0.00     0.152 C 
HETATM    6  C   UNL     1     -45.075  58.256 -53.108  1.00  0.00     0.079 C 
ENDROOT
BRANCH   5   7
HETATM    7  N   UNL     1     -44.344  56.515 -54.696  1.00  0.00    -0.303 N 
HETATM    8  C   UNL     1     -43.534  57.021 -55.699  1.00  0.00     0.315 C 
HETATM    9  O   UNL     1     -43.577  56.578 -56.846  1.00  0.00    -0.262 OA
HETATM   10  H   UNL     1     -44.682  55.581 -54.886  1.00  0.00     0.171 HD
BRANCH   8  11
HETATM   11  C   UNL     1     -42.435  58.053 -55.356  1.00  0.00     0.310 C 
HETATM   12  N   UNL     1     -41.742  57.768 -54.201  1.00  0.00    -0.349 N 
HETATM   13  H   UNL     1     -42.052  56.965 -53.662  1.00  0.00     0.163 HD
HETATM   14  O   UNL     1     -42.260  59.047 -56.046  1.00  0.00    -0.262 OA
BRANCH  12  15
HETATM   15  C   UNL     1     -40.827  58.711 -53.613  1.00  0.00     0.163 C 
BRANCH  15  16
HETATM   16  C   UNL     1     -41.495  59.576 -52.579  1.00  0.00    -0.019 A 
HETATM   17  C   UNL     1     -41.397  59.325 -51.201  1.00  0.00     0.042 A 
HETATM   18 CL   UNL     1     -40.438  58.030 -50.578  1.00  0.00    -0.084 Cl
HETATM   19  C   UNL     1     -42.079  60.128 -50.282  1.00  0.00     0.024 A 
HETATM   20  C   UNL     1     -42.855  61.200 -50.724  1.00  0.00     0.002 A 
HETATM   21  C   UNL     1     -42.932  61.482 -52.085  1.00  0.00     0.001 A 
HETATM   22  C   UNL     1     -42.254  60.681 -53.004  1.00  0.00     0.010 A 
ENDBRANCH  15  16
ENDBRANCH  12  15
ENDBRANCH   8  11
ENDBRANCH   5   7
BRANCH   4  23
HETATM   23  C   UNL     1     -43.127  55.482 -51.964  1.00  0.00     0.732 A 
HETATM   24  N   UNL     1     -42.586  54.753 -52.886  1.00  0.00    -0.067 NA
HETATM   25  C   UNL     1     -41.653  53.830 -52.476  1.00  0.00     0.065 A 
HETATM   26  C   UNL     1     -41.261  53.666 -51.198  1.00  0.00     0.036 A 
HETATM   27  C   UNL     1     -41.039  53.008 -53.588  1.00  0.00     0.060 C 
HETATM   28  C   UNL     1     -40.214  52.690 -50.750  1.00  0.00     0.046 C 
HETATM   29  C   UNL     1     -41.903  54.513 -50.164  1.00  0.00     0.268 A 
HETATM   30  C   UNL     1     -39.809  51.689 -51.833  1.00  0.00     0.005 C 
HETATM   31  C   UNL     1     -39.714  52.349 -53.201  1.00  0.00     0.006 C 
HETATM   32  O   UNL     1     -41.609  54.430 -48.977  1.00  0.00    -0.267 OA
HETATM   33  N   UNL     1     -42.831  55.387 -50.631  1.00  0.00    -0.152 N 
HETATM   34  H   UNL     1     -43.289  56.021 -49.985  1.00  0.00     0.188 HD
ENDBRANCH   4  23
TORSDOF 5
ENDMDL
MODEL 5
REMARK VINA RESULT:      -8.7      2.770      7.165
REMARK  5 active torsions:
REMARK  status: ('A' for Active; 'I' for Inactive)
REMARK    1  A    between atoms: N_4  and  C_5 
REMARK    2  A    between atoms: C_16  and  N_17 
REMARK       I    between atoms: N_17  and  C_18 
REMARK    3  A    between atoms: C_18  and  C_19 
REMARK       I    between atoms: C_19  and  N_20 
REMARK    4  A    between atoms: N_20  and  C_21 
REMARK    5  A    between atoms: C_21  and  C_22 
ROOT
HETATM    1  C   UNL     1     -42.480  57.448 -56.855  1.00  0.00     0.072 C 
HETATM    2  C   UNL     1     -42.629  56.631 -55.626  1.00  0.00     0.055 C 
HETATM    3  N   UNL     1     -41.658  55.797 -55.244  1.00  0.00    -0.156 NA
HETATM    4  N   UNL     1     -42.136  55.217 -54.093  1.00  0.00    -0.045 N 
HETATM    5  C   UNL     1     -43.331  55.810 -53.685  1.00  0.00     0.152 C 
HETATM    6  C   UNL     1     -43.717  56.623 -54.728  1.00  0.00     0.079 C 
ENDROOT
BRANCH   5   7
HETATM    7  N   UNL     1     -44.041  55.578 -52.518  1.00  0.00    -0.303 N 
HETATM    8  C   UNL     1     -43.747  56.078 -51.261  1.00  0.00     0.315 C 
HETATM    9  O   UNL     1     -44.342  55.688 -50.257  1.00  0.00    -0.262 OA
HETATM   10  H   UNL     1     -44.963  55.166 -52.581  1.00  0.00     0.171 HD
BRANCH   8  11
HETATM   11  C   UNL     1     -42.768  57.266 -51.112  1.00  0.00     0.310 C 
HETATM   12  N   UNL     1     -43.387  58.491 -51.012  1.00  0.00    -0.349 N 
HETATM   13  H   UNL     1     -44.397  58.508 -51.108  1.00  0.00     0.163 HD
HETATM   14  O   UNL     1     -41.557  57.097 -51.137  1.00  0.00    -0.262 OA
BRANCH  12  15
HETATM   15  C   UNL     1     -42.645  59.723 -51.073  1.00  0.00     0.163 C 
BRANCH  15  16
HETATM   16  C   UNL     1     -42.990  60.530 -52.295  1.00  0.00    -0.019 A 
HETATM   17  C   UNL     1     -42.336  60.363 -53.526  1.00  0.00     0.042 A 
HETATM   18 CL   UNL     1     -41.119  59.158 -53.753  1.00  0.00    -0.084 Cl
HETATM   19  C   UNL     1     -42.657  61.175 -54.618  1.00  0.00     0.024 A 
HETATM   20  C   UNL     1     -43.644  62.153 -54.500  1.00  0.00     0.002 A 
HETATM   21  C   UNL     1     -44.326  62.306 -53.297  1.00  0.00     0.001 A 
HETATM   22  C   UNL     1     -44.006  61.499 -52.205  1.00  0.00     0.010 A 
ENDBRANCH  15  16
ENDBRANCH  12  15
ENDBRANCH   8  11
ENDBRANCH   5   7
BRANCH   4  23
HETATM   23  C   UNL     1     -41.485  54.063 -53.605  1.00  0.00     0.732 A 
HETATM   24  N   UNL     1     -41.386  52.953 -54.264  1.00  0.00    -0.067 NA
HETATM   25  C   UNL     1     -40.678  51.939 -53.662  1.00  0.00     0.065 A 
HETATM   26  C   UNL     1     -40.072  52.045 -52.464  1.00  0.00     0.036 A 
HETATM   27  C   UNL     1     -40.581  50.664 -54.471  1.00  0.00     0.060 C 
HETATM   28  C   UNL     1     -39.264  50.958 -51.822  1.00  0.00     0.046 C 
HETATM   29  C   UNL     1     -40.207  53.329 -51.733  1.00  0.00     0.268 A 
HETATM   30  C   UNL     1     -39.404  49.602 -52.516  1.00  0.00     0.005 C 
HETATM   31  C   UNL     1     -39.438  49.747 -54.031  1.00  0.00     0.006 C 
HETATM   32  O   UNL     1     -39.689  53.514 -50.637  1.00  0.00    -0.267 OA
HETATM   33  N   UNL     1     -40.937  54.281 -52.371  1.00  0.00    -0.152 N 
HETATM   34  H   UNL     1     -41.045  55.195 -51.945  1.00  0.00     0.188 HD
ENDBRANCH   4  23
TORSDOF 5
ENDMDL
MODEL 6
REMARK VINA RESULT:      -8.7      2.760      4.929
REMARK  5 active torsions:
REMARK  status: ('A' for Active; 'I' for Inactive)
REMARK    1  A    between atoms: N_4  and  C_5 
REMARK    2  A    between atoms: C_16  and  N_17 
REMARK       I    between atoms: N_17  and  C_18 
REMARK    3  A    between atoms: C_18  and  C_19 
REMARK       I    between atoms: C_19  and  N_20 
REMARK    4  A    between atoms: N_20  and  C_21 
REMARK    5  A    between atoms: C_21  and  C_22 
ROOT
HETATM    1  C   UNL     1     -40.190  53.427 -54.633  1.00  0.00     0.072 C 
HETATM    2  C   UNL     1     -40.863  54.717 -54.926  1.00  0.00     0.055 C 
HETATM    3  N   UNL     1     -41.867  54.773 -55.806  1.00  0.00    -0.156 NA
HETATM    4  N   UNL     1     -42.234  56.097 -55.825  1.00  0.00    -0.045 N 
HETATM    5  C   UNL     1     -41.560  56.824 -54.843  1.00  0.00     0.152 C 
HETATM    6  C   UNL     1     -40.590  55.976 -54.354  1.00  0.00     0.079 C 
ENDROOT
BRANCH   5   7
HETATM    7  N   UNL     1     -41.753  58.148 -54.481  1.00  0.00    -0.303 N 
HETATM    8  C   UNL     1     -42.708  58.632 -53.604  1.00  0.00     0.315 C 
HETATM    9  O   UNL     1     -42.906  59.839 -53.468  1.00  0.00    -0.262 OA
HETATM   10  H   UNL     1     -41.038  58.826 -54.712  1.00  0.00     0.171 HD
BRANCH   8  11
HETATM   11  C   UNL     1     -43.440  57.661 -52.648  1.00  0.00     0.310 C 
HETATM   12  N   UNL     1     -42.741  57.378 -51.497  1.00  0.00    -0.349 N 
HETATM   13  H   UNL     1     -41.808  57.770 -51.413  1.00  0.00     0.163 HD
HETATM   14  O   UNL     1     -44.520  57.171 -52.946  1.00  0.00    -0.262 OA
BRANCH  12  15
HETATM   15  C   UNL     1     -43.163  56.345 -50.587  1.00  0.00     0.163 C 
BRANCH  15  16
HETATM   16  C   UNL     1     -42.130  55.261 -50.444  1.00  0.00    -0.019 A 
HETATM   17  C   UNL     1     -42.090  54.134 -51.280  1.00  0.00     0.042 A 
HETATM   18 CL   UNL     1     -43.195  53.935 -52.593  1.00  0.00    -0.084 Cl
HETATM   19  C   UNL     1     -41.141  53.128 -51.072  1.00  0.00     0.024 A 
HETATM   20  C   UNL     1     -40.211  53.242 -50.038  1.00  0.00     0.002 A 
HETATM   21  C   UNL     1     -40.215  54.371 -49.225  1.00  0.00     0.001 A 
HETATM   22  C   UNL     1     -41.163  55.375 -49.429  1.00  0.00     0.010 A 
ENDBRANCH  15  16
ENDBRANCH  12  15
ENDBRANCH   8  11
ENDBRANCH   5   7
BRANCH   4  23
HETATM   23  C   UNL     1     -43.062  56.547 -56.877  1.00  0.00     0.732 A 
HETATM   24  N   UNL     1     -44.104  57.295 -56.711  1.00  0.00    -0.067 NA
HETATM   25  C   UNL     1     -44.774  57.682 -57.848  1.00  0.00     0.065 A 
HETATM   26  C   UNL     1     -44.396  57.354 -59.098  1.00  0.00     0.036 A 
HETATM   27  C   UNL     1     -45.979  58.564 -57.608  1.00  0.00     0.060 C 
HETATM   28  C   UNL     1     -45.098  57.807 -60.344  1.00  0.00     0.046 C 
HETATM   29  C   UNL     1     -43.200  56.492 -59.255  1.00  0.00     0.268 A 
HETATM   30  C   UNL     1     -46.455  58.459 -60.077  1.00  0.00     0.005 C 
HETATM   31  C   UNL     1     -46.417  59.351 -58.844  1.00  0.00     0.006 C 
HETATM   32  O   UNL     1     -42.785  56.143 -60.355  1.00  0.00    -0.267 OA
HETATM   33  N   UNL     1     -42.598  56.126 -58.094  1.00  0.00    -0.152 N 
HETATM   34  H   UNL     1     -41.755  55.563 -58.125  1.00  0.00     0.188 HD
ENDBRANCH   4  23
TORSDOF 5
ENDMDL
MODEL 7
REMARK VINA RESULT:      -8.6      2.948      6.589
REMARK  5 active torsions:
REMARK  status: ('A' for Active; 'I' for Inactive)
REMARK    1  A    between atoms: N_4  and  C_5 
REMARK    2  A    between atoms: C_16  and  N_17 
REMARK       I    between atoms: N_17  and  C_18 
REMARK    3  A    between atoms: C_18  and  C_19 
REMARK       I    between atoms: C_19  and  N_20 
REMARK    4  A    between atoms: N_20  and  C_21 
REMARK    5  A    between atoms: C_21  and  C_22 
ROOT
HETATM    1  C   UNL     1     -45.917  58.151 -50.934  1.00  0.00     0.072 C 
HETATM    2  C   UNL     1     -44.495  57.814 -51.191  1.00  0.00     0.055 C 
HETATM    3  N   UNL     1     -44.154  56.592 -51.609  1.00  0.00    -0.156 NA
HETATM    4  N   UNL     1     -42.786  56.642 -51.735  1.00  0.00    -0.045 N 
HETATM    5  C   UNL     1     -42.306  57.938 -51.545  1.00  0.00     0.152 C 
HETATM    6  C   UNL     1     -43.377  58.664 -51.071  1.00  0.00     0.079 C 
ENDROOT
BRANCH   5   7
HETATM    7  N   UNL     1     -41.010  58.398 -51.711  1.00  0.00    -0.303 N 
HETATM    8  C   UNL     1     -40.483  58.988 -52.848  1.00  0.00     0.315 C 
HETATM    9  O   UNL     1     -39.279  59.218 -52.955  1.00  0.00    -0.262 OA
HETATM   10  H   UNL     1     -40.420  58.500 -50.896  1.00  0.00     0.171 HD
BRANCH   8  11
HETATM   11  C   UNL     1     -41.429  59.522 -53.949  1.00  0.00     0.310 C 
HETATM   12  N   UNL     1     -41.584  58.666 -55.015  1.00  0.00    -0.349 N 
HETATM   13  H   UNL     1     -41.028  57.816 -55.011  1.00  0.00     0.163 HD
HETATM   14  O   UNL     1     -41.935  60.632 -53.867  1.00  0.00    -0.262 OA
BRANCH  12  15
HETATM   15  C   UNL     1     -42.256  59.071 -56.222  1.00  0.00     0.163 C 
BRANCH  15  16
HETATM   16  C   UNL     1     -42.647  57.894 -57.074  1.00  0.00    -0.019 A 
HETATM   17  C   UNL     1     -43.114  58.031 -58.390  1.00  0.00     0.042 A 
HETATM   18 CL   UNL     1     -43.214  59.572 -59.165  1.00  0.00    -0.084 Cl
HETATM   19  C   UNL     1     -43.514  56.908 -59.122  1.00  0.00     0.024 A 
HETATM   20  C   UNL     1     -43.439  55.636 -58.556  1.00  0.00     0.002 A 
HETATM   21  C   UNL     1     -42.944  55.482 -57.265  1.00  0.00     0.001 A 
HETATM   22  C   UNL     1     -42.546  56.600 -56.531  1.00  0.00     0.010 A 
ENDBRANCH  15  16
ENDBRANCH  12  15
ENDBRANCH   8  11
ENDBRANCH   5   7
BRANCH   4  23
HETATM   23  C   UNL     1     -42.081  55.424 -51.862  1.00  0.00     0.732 A 
HETATM   24  N   UNL     1     -42.008  54.739 -52.958  1.00  0.00    -0.067 NA
HETATM   25  C   UNL     1     -41.242  53.598 -52.922  1.00  0.00     0.065 A 
HETATM   26  C   UNL     1     -40.557  53.179 -51.841  1.00  0.00     0.036 A 
HETATM   27  C   UNL     1     -41.176  52.835 -54.226  1.00  0.00     0.060 C 
HETATM   28  C   UNL     1     -39.686  51.959 -51.808  1.00  0.00     0.046 C 
HETATM   29  C   UNL     1     -40.664  53.984 -50.600  1.00  0.00     0.268 A 
HETATM   30  C   UNL     1     -39.849  51.059 -53.035  1.00  0.00     0.005 C 
HETATM   31  C   UNL     1     -39.990  51.873 -54.313  1.00  0.00     0.006 C 
HETATM   32  O   UNL     1     -40.076  53.677 -49.569  1.00  0.00    -0.267 OA
HETATM   33  N   UNL     1     -41.453  55.085 -50.695  1.00  0.00    -0.152 N 
HETATM   34  H   UNL     1     -41.549  55.701 -49.894  1.00  0.00     0.188 HD
ENDBRANCH   4  23
TORSDOF 5
ENDMDL
MODEL 8
REMARK VINA RESULT:      -8.5      3.332      7.456
REMARK  5 active torsions:
REMARK  status: ('A' for Active; 'I' for Inactive)
REMARK    1  A    between atoms: N_4  and  C_5 
REMARK    2  A    between atoms: C_16  and  N_17 
REMARK       I    between atoms: N_17  and  C_18 
REMARK    3  A    between atoms: C_18  and  C_19 
REMARK       I    between atoms: C_19  and  N_20 
REMARK    4  A    between atoms: N_20  and  C_21 
REMARK    5  A    between atoms: C_21  and  C_22 
ROOT
HETATM    1  C   UNL     1     -45.443  57.651 -55.081  1.00  0.00     0.072 C 
HETATM    2  C   UNL     1     -44.060  57.351 -54.633  1.00  0.00     0.055 C 
HETATM    3  N   UNL     1     -43.664  56.087 -54.459  1.00  0.00    -0.156 NA
HETATM    4  N   UNL     1     -42.356  56.190 -54.047  1.00  0.00    -0.045 N 
HETATM    5  C   UNL     1     -41.905  57.509 -54.118  1.00  0.00     0.152 C 
HETATM    6  C   UNL     1     -43.026  58.271 -54.368  1.00  0.00     0.079 C 
ENDROOT
BRANCH   5   7
HETATM    7  N   UNL     1     -40.621  57.981 -53.902  1.00  0.00    -0.303 N 
HETATM    8  C   UNL     1     -40.191  58.737 -52.825  1.00  0.00     0.315 C 
HETATM    9  O   UNL     1     -39.070  59.245 -52.800  1.00  0.00    -0.262 OA
HETATM   10  H   UNL     1     -39.863  57.607 -54.458  1.00  0.00     0.171 HD
BRANCH   8  11
HETATM   11  C   UNL     1     -41.059  58.825 -51.548  1.00  0.00     0.310 C 
HETATM   12  N   UNL     1     -41.787  59.989 -51.447  1.00  0.00    -0.349 N 
HETATM   13  H   UNL     1     -41.641  60.690 -52.167  1.00  0.00     0.163 HD
HETATM   14  O   UNL     1     -41.036  57.943 -50.702  1.00  0.00    -0.262 OA
BRANCH  12  15
HETATM   15  C   UNL     1     -42.490  60.342 -50.242  1.00  0.00     0.163 C 
BRANCH  15  16
HETATM   16  C   UNL     1     -43.889  60.821 -50.523  1.00  0.00    -0.019 A 
HETATM   17  C   UNL     1     -44.916  59.961 -50.940  1.00  0.00     0.042 A 
HETATM   18 CL   UNL     1     -44.671  58.259 -51.100  1.00  0.00    -0.084 Cl
HETATM   19  C   UNL     1     -46.186  60.465 -51.240  1.00  0.00     0.024 A 
HETATM   20  C   UNL     1     -46.450  61.829 -51.112  1.00  0.00     0.002 A 
HETATM   21  C   UNL     1     -45.451  62.687 -50.664  1.00  0.00     0.001 A 
HETATM   22  C   UNL     1     -44.182  62.188 -50.367  1.00  0.00     0.010 A 
ENDBRANCH  15  16
ENDBRANCH  12  15
ENDBRANCH   8  11
ENDBRANCH   5   7
BRANCH   4  23
HETATM   23  C   UNL     1     -41.741  55.051 -53.482  1.00  0.00     0.732 A 
HETATM   24  N   UNL     1     -41.455  53.978 -54.146  1.00  0.00    -0.067 NA
HETATM   25  C   UNL     1     -40.814  52.977 -53.454  1.00  0.00     0.065 A 
HETATM   26  C   UNL     1     -40.452  53.063 -52.160  1.00  0.00     0.036 A 
HETATM   27  C   UNL     1     -40.490  51.746 -54.270  1.00  0.00     0.060 C 
HETATM   28  C   UNL     1     -39.717  51.992 -51.411  1.00  0.00     0.046 C 
HETATM   29  C   UNL     1     -40.799  54.304 -51.426  1.00  0.00     0.268 A 
HETATM   30  C   UNL     1     -39.643  50.662 -52.163  1.00  0.00     0.005 C 
HETATM   31  C   UNL     1     -39.399  50.871 -53.651  1.00  0.00     0.006 C 
HETATM   32  O   UNL     1     -40.510  54.468 -50.246  1.00  0.00    -0.267 OA
HETATM   33  N   UNL     1     -41.450  55.244 -52.160  1.00  0.00    -0.152 N 
HETATM   34  H   UNL     1     -41.691  56.132 -51.732  1.00  0.00     0.188 HD
ENDBRANCH   4  23
TORSDOF 5
ENDMDL
MODEL 9
REMARK VINA RESULT:      -8.5      2.678      3.773
REMARK  5 active torsions:
REMARK  status: ('A' for Active; 'I' for Inactive)
REMARK    1  A    between atoms: N_4  and  C_5 
REMARK    2  A    between atoms: C_16  and  N_17 
REMARK       I    between atoms: N_17  and  C_18 
REMARK    3  A    between atoms: C_18  and  C_19 
REMARK       I    between atoms: C_19  and  N_20 
REMARK    4  A    between atoms: N_20  and  C_21 
REMARK    5  A    between atoms: C_21  and  C_22 
ROOT
HETATM    1  C   UNL     1     -46.375  60.697 -51.719  1.00  0.00     0.072 C 
HETATM    2  C   UNL     1     -45.233  60.291 -52.575  1.00  0.00     0.055 C 
HETATM    3  N   UNL     1     -45.432  59.942 -53.849  1.00  0.00    -0.156 NA
HETATM    4  N   UNL     1     -44.179  59.629 -54.320  1.00  0.00    -0.045 N 
HETATM    5  C   UNL     1     -43.194  59.935 -53.381  1.00  0.00     0.152 C 
HETATM    6  C   UNL     1     -43.870  60.236 -52.218  1.00  0.00     0.079 C 
ENDROOT
BRANCH   5   7
HETATM    7  N   UNL     1     -41.819  59.872 -53.539  1.00  0.00    -0.303 N 
HETATM    8  C   UNL     1     -40.970  58.918 -53.005  1.00  0.00     0.315 C 
HETATM    9  O   UNL     1     -39.746  59.037 -53.068  1.00  0.00    -0.262 OA
HETATM   10  H   UNL     1     -41.383  60.445 -54.250  1.00  0.00     0.171 HD
BRANCH   8  11
HETATM   11  C   UNL     1     -41.546  57.593 -52.455  1.00  0.00     0.310 C 
HETATM   12  N   UNL     1     -41.730  56.624 -53.415  1.00  0.00    -0.349 N 
HETATM   13  H   UNL     1     -41.537  56.883 -54.377  1.00  0.00     0.163 HD
HETATM   14  O   UNL     1     -41.847  57.472 -51.276  1.00  0.00    -0.262 OA
BRANCH  12  15
HETATM   15  C   UNL     1     -42.442  55.404 -53.135  1.00  0.00     0.163 C 
BRANCH  15  16
HETATM   16  C   UNL     1     -41.542  54.200 -53.185  1.00  0.00    -0.019 A 
HETATM   17  C   UNL     1     -40.943  53.650 -52.041  1.00  0.00     0.042 A 
HETATM   18 CL   UNL     1     -41.251  54.280 -50.462  1.00  0.00    -0.084 Cl
HETATM   19  C   UNL     1     -40.072  52.561 -52.148  1.00  0.00     0.024 A 
HETATM   20  C   UNL     1     -39.800  51.999 -53.395  1.00  0.00     0.002 A 
HETATM   21  C   UNL     1     -40.414  52.510 -54.533  1.00  0.00     0.001 A 
HETATM   22  C   UNL     1     -41.282  53.598 -54.430  1.00  0.00     0.010 A 
ENDBRANCH  15  16
ENDBRANCH  12  15
ENDBRANCH   8  11
ENDBRANCH   5   7
BRANCH   4  23
HETATM   23  C   UNL     1     -44.080  58.928 -55.542  1.00  0.00     0.732 A 
HETATM   24  N   UNL     1     -43.494  57.782 -55.676  1.00  0.00    -0.067 NA
HETATM   25  C   UNL     1     -43.527  57.214 -56.928  1.00  0.00     0.065 A 
HETATM   26  C   UNL     1     -44.146  57.761 -57.991  1.00  0.00     0.036 A 
HETATM   27  C   UNL     1     -42.840  55.871 -57.035  1.00  0.00     0.060 C 
HETATM   28  C   UNL     1     -44.221  57.127 -59.348  1.00  0.00     0.046 C 
HETATM   29  C   UNL     1     -44.804  59.077 -57.807  1.00  0.00     0.268 A 
HETATM   30  C   UNL     1     -43.298  55.918 -59.509  1.00  0.00     0.005 C 
HETATM   31  C   UNL     1     -43.276  55.057 -58.254  1.00  0.00     0.006 C 
HETATM   32  O   UNL     1     -45.389  59.649 -58.720  1.00  0.00    -0.267 OA
HETATM   33  N   UNL     1     -44.716  59.594 -56.554  1.00  0.00    -0.152 N 
HETATM   34  H   UNL     1     -45.170  60.477 -56.346  1.00  0.00     0.188 HD
ENDBRANCH   4  23
TORSDOF 5
ENDMDL
MODEL 10
REMARK VINA RESULT:      -8.3      1.729      2.188
REMARK  5 active torsions:
REMARK  status: ('A' for Active; 'I' for Inactive)
REMARK    1  A    between atoms: N_4  and  C_5 
REMARK    2  A    between atoms: C_16  and  N_17 
REMARK       I    between atoms: N_17  and  C_18 
REMARK    3  A    between atoms: C_18  and  C_19 
REMARK       I    between atoms: C_19  and  N_20 
REMARK    4  A    between atoms: N_20  and  C_21 
REMARK    5  A    between atoms: C_21  and  C_22 
ROOT
HETATM    1  C   UNL     1     -41.705  60.075 -50.429  1.00  0.00     0.072 C 
HETATM    2  C   UNL     1     -42.211  59.121 -51.448  1.00  0.00     0.055 C 
HETATM    3  N   UNL     1     -41.703  59.118 -52.684  1.00  0.00    -0.156 NA
HETATM    4  N   UNL     1     -42.399  58.129 -53.338  1.00  0.00    -0.045 N 
HETATM    5  C   UNL     1     -43.223  57.424 -52.461  1.00  0.00     0.152 C 
HETATM    6  C   UNL     1     -43.204  58.135 -51.281  1.00  0.00     0.079 C 
ENDROOT
BRANCH   5   7
HETATM    7  N   UNL     1     -43.978  56.292 -52.727  1.00  0.00    -0.303 N 
HETATM    8  C   UNL     1     -43.583  54.977 -52.548  1.00  0.00     0.315 C 
HETATM    9  O   UNL     1     -44.263  54.039 -52.962  1.00  0.00    -0.262 OA
HETATM   10  H   UNL     1     -44.971  56.395 -52.890  1.00  0.00     0.171 HD
BRANCH   8  11
HETATM   11  C   UNL     1     -42.350  54.654 -51.673  1.00  0.00     0.310 C 
HETATM   12  N   UNL     1     -41.301  54.099 -52.370  1.00  0.00    -0.349 N 
HETATM   13  H   UNL     1     -41.453  53.899 -53.354  1.00  0.00     0.163 HD
HETATM   14  O   UNL     1     -42.361  54.842 -50.465  1.00  0.00    -0.262 OA
BRANCH  12  15
HETATM   15  C   UNL     1     -40.153  53.546 -51.700  1.00  0.00     0.163 C 
BRANCH  15  16
HETATM   16  C   UNL     1     -39.908  52.113 -52.089  1.00  0.00    -0.019 A 
HETATM   17  C   UNL     1     -39.844  51.689 -53.425  1.00  0.00     0.042 A 
HETATM   18 CL   UNL     1     -39.976  52.801 -54.740  1.00  0.00    -0.084 Cl
HETATM   19  C   UNL     1     -39.667  50.336 -53.733  1.00  0.00     0.024 A 
HETATM   20  C   UNL     1     -39.536  49.394 -52.713  1.00  0.00     0.002 A 
HETATM   21  C   UNL     1     -39.561  49.805 -51.384  1.00  0.00     0.001 A 
HETATM   22  C   UNL     1     -39.740  51.153 -51.073  1.00  0.00     0.010 A 
ENDBRANCH  15  16
ENDBRANCH  12  15
ENDBRANCH   8  11
ENDBRANCH   5   7
BRANCH   4  23
HETATM   23  C   UNL     1     -42.320  58.077 -54.747  1.00  0.00     0.732 A 
HETATM   24  N   UNL     1     -42.583  57.022 -55.450  1.00  0.00    -0.067 NA
HETATM   25  C   UNL     1     -42.502  57.154 -56.816  1.00  0.00     0.065 A 
HETATM   26  C   UNL     1     -42.196  58.303 -57.449  1.00  0.00     0.036 A 
HETATM   27  C   UNL     1     -42.827  55.901 -57.597  1.00  0.00     0.060 C 
HETATM   28  C   UNL     1     -42.146  58.465 -58.939  1.00  0.00     0.046 C 
HETATM   29  C   UNL     1     -41.895  59.493 -56.616  1.00  0.00     0.268 A 
HETATM   30  C   UNL     1     -42.205  57.139 -59.699  1.00  0.00     0.005 C 
HETATM   31  C   UNL     1     -43.189  56.168 -59.059  1.00  0.00     0.006 C 
HETATM   32  O   UNL     1     -41.607  60.579 -57.106  1.00  0.00    -0.267 OA
HETATM   33  N   UNL     1     -41.971  59.290 -55.275  1.00  0.00    -0.152 N 
HETATM   34  H   UNL     1     -41.809  60.067 -54.643  1.00  0.00     0.188 HD
ENDBRANCH   4  23
TORSDOF 5
ENDMDL
