MODEL 1
REMARK VINA RESULT:      -8.1      0.000      0.000
REMARK  7 active torsions:
REMARK  status: ('A' for Active; 'I' for Inactive)
REMARK    1  A    between atoms: O_2  and  C_3 
REMARK    2  A    between atoms: C_7  and  C_8 
REMARK    3  A    between atoms: C_8  and  C_9 
REMARK       I    between atoms: C_9  and  N_10 
REMARK    4  A    between atoms: N_10  and  C_11 
REMARK    5  A    between atoms: C_11  and  C_12 
REMARK    6  A    between atoms: C_12  and  N_13 
REMARK    7  A    between atoms: C_12  and  C_19 
ROOT
HETATM    1  C   UNL     1     -41.564  58.616 -54.345  1.00  0.00     0.222 C 
HETATM    2  N   UNL     1     -41.738  57.248 -54.260  1.00  0.00    -0.358 N 
HETATM    3  O   UNL     1     -40.612  59.157 -53.783  1.00  0.00    -0.273 OA
HETATM    4  H   UNL     1     -42.401  56.832 -54.904  1.00  0.00     0.162 HD
ENDROOT
BRANCH   2   5
HETATM    5  C   UNL     1     -40.669  56.380 -53.799  1.00  0.00     0.160 C 
BRANCH   5   6
HETATM    6  C   UNL     1     -40.966  55.410 -52.604  1.00  0.00     0.240 C 
BRANCH   6   7
HETATM    7  N   UNL     1     -42.434  55.451 -52.147  1.00  0.00    -0.061 N 
HETATM    8  H   UNL     1     -42.874  56.104 -52.810  1.00  0.00     0.280 HD
HETATM    9  C   UNL     1     -42.725  55.990 -50.770  1.00  0.00     0.236 C 
HETATM   10  C   UNL     1     -43.292  54.805 -50.019  1.00  0.00     0.029 C 
HETATM   11  C   UNL     1     -44.086  54.073 -51.083  1.00  0.00     0.029 C 
HETATM   12  C   UNL     1     -43.217  54.166 -52.323  1.00  0.00     0.236 C 
ENDBRANCH   6   7
BRANCH   6  13
HETATM   13  C   UNL     1     -40.541  53.963 -52.879  1.00  0.00    -0.004 A 
HETATM   14  C   UNL     1     -40.006  53.161 -51.848  1.00  0.00     0.042 A 
HETATM   15 CL   UNL     1     -39.865  53.748 -50.227  1.00  0.00    -0.084 Cl
HETATM   16  C   UNL     1     -39.608  51.842 -52.085  1.00  0.00     0.024 A 
HETATM   17  C   UNL     1     -39.741  51.289 -53.355  1.00  0.00     0.002 A 
HETATM   18  C   UNL     1     -40.278  52.051 -54.385  1.00  0.00     0.001 A 
HETATM   19  C   UNL     1     -40.678  53.370 -54.151  1.00  0.00     0.011 A 
ENDBRANCH   6  13
ENDBRANCH   5   6
ENDBRANCH   2   5
BRANCH   1  20
HETATM   20  C   UNL     1     -42.576  59.404 -55.181  1.00  0.00     0.144 C 
BRANCH  20  21
HETATM   21  C   UNL     1     -42.315  59.338 -56.651  1.00  0.00    -0.014 A 
HETATM   22  C   UNL     1     -42.649  58.272 -57.544  1.00  0.00     0.006 A 
HETATM   23  C   UNL     1     -42.339  58.726 -58.819  1.00  0.00     0.088 A 
HETATM   24  C   UNL     1     -43.235  57.000 -57.413  1.00  0.00     0.017 A 
HETATM   25  C   UNL     1     -42.601  58.023 -59.995  1.00  0.00     0.074 A 
HETATM   26  O   UNL     1     -41.771  59.961 -58.749  1.00  0.00    -0.321 OA
HETATM   27  C   UNL     1     -43.234  56.785 -59.850  1.00  0.00     0.070 A 
HETATM   28  C   UNL     1     -43.526  56.278 -58.577  1.00  0.00     0.038 A 
HETATM   29  C   UNL     1     -41.736  60.313 -57.438  1.00  0.00     0.151 A 
BRANCH  27  30
HETATM   30  O   UNL     1     -43.627  55.968 -60.878  1.00  0.00    -0.356 OA
HETATM   31  C   UNL     1     -44.796  55.185 -60.671  1.00  0.00     0.210 C 
ENDBRANCH  27  30
ENDBRANCH  20  21
ENDBRANCH   1  20
TORSDOF 7
ENDMDL
MODEL 2
REMARK VINA RESULT:      -8.1      2.479      5.217
REMARK  7 active torsions:
REMARK  status: ('A' for Active; 'I' for Inactive)
REMARK    1  A    between atoms: O_2  and  C_3 
REMARK    2  A    between atoms: C_7  and  C_8 
REMARK    3  A    between atoms: C_8  and  C_9 
REMARK       I    between atoms: C_9  and  N_10 
REMARK    4  A    between atoms: N_10  and  C_11 
REMARK    5  A    between atoms: C_11  and  C_12 
REMARK    6  A    between atoms: C_12  and  N_13 
REMARK    7  A    between atoms: C_12  and  C_19 
ROOT
HETATM    1  C   UNL     1     -42.224  56.444 -55.972  1.00  0.00     0.222 C 
HETATM    2  N   UNL     1     -41.182  55.775 -55.357  1.00  0.00    -0.358 N 
HETATM    3  O   UNL     1     -43.161  55.815 -56.463  1.00  0.00    -0.273 OA
HETATM    4  H   UNL     1     -40.554  56.334 -54.791  1.00  0.00     0.162 HD
ENDROOT
BRANCH   2   5
HETATM    5  C   UNL     1     -41.301  54.376 -54.984  1.00  0.00     0.160 C 
BRANCH   5   6
HETATM    6  C   UNL     1     -40.852  53.954 -53.543  1.00  0.00     0.240 C 
BRANCH   6   7
HETATM    7  N   UNL     1     -41.904  54.274 -52.467  1.00  0.00    -0.061 N 
HETATM    8  H   UNL     1     -41.855  53.465 -51.834  1.00  0.00     0.280 HD
HETATM    9  C   UNL     1     -43.343  54.381 -52.903  1.00  0.00     0.236 C 
HETATM   10  C   UNL     1     -43.705  55.827 -52.640  1.00  0.00     0.029 C 
HETATM   11  C   UNL     1     -42.933  56.149 -51.375  1.00  0.00     0.029 C 
HETATM   12  C   UNL     1     -41.596  55.458 -51.573  1.00  0.00     0.236 C 
ENDBRANCH   6   7
BRANCH   6  13
HETATM   13  C   UNL     1     -40.432  52.483 -53.446  1.00  0.00    -0.004 A 
HETATM   14  C   UNL     1     -39.798  51.989 -52.286  1.00  0.00     0.042 A 
HETATM   15 CL   UNL     1     -39.523  52.998 -50.908  1.00  0.00    -0.084 Cl
HETATM   16  C   UNL     1     -39.403  50.651 -52.187  1.00  0.00     0.024 A 
HETATM   17  C   UNL     1     -39.640  49.772 -53.239  1.00  0.00     0.002 A 
HETATM   18  C   UNL     1     -40.276  50.228 -54.387  1.00  0.00     0.001 A 
HETATM   19  C   UNL     1     -40.672  51.565 -54.490  1.00  0.00     0.011 A 
ENDBRANCH   6  13
ENDBRANCH   5   6
ENDBRANCH   2   5
BRANCH   1  20
HETATM   20  C   UNL     1     -42.168  57.974 -55.984  1.00  0.00     0.144 C 
BRANCH  20  21
HETATM   21  C   UNL     1     -42.535  58.594 -54.676  1.00  0.00    -0.014 A 
HETATM   22  C   UNL     1     -41.699  58.753 -53.526  1.00  0.00     0.006 A 
HETATM   23  C   UNL     1     -42.432  59.505 -52.618  1.00  0.00     0.088 A 
HETATM   24  C   UNL     1     -40.382  58.393 -53.187  1.00  0.00     0.017 A 
HETATM   25  C   UNL     1     -41.943  59.966 -51.395  1.00  0.00     0.074 A 
HETATM   26  O   UNL     1     -43.678  59.745 -53.110  1.00  0.00    -0.321 OA
HETATM   27  C   UNL     1     -40.615  59.645 -51.098  1.00  0.00     0.070 A 
HETATM   28  C   UNL     1     -39.858  58.856 -51.973  1.00  0.00     0.038 A 
HETATM   29  C   UNL     1     -43.743  59.172 -54.338  1.00  0.00     0.151 A 
BRANCH  27  30
HETATM   30  O   UNL     1     -39.932  60.047 -49.980  1.00  0.00    -0.356 OA
HETATM   31  C   UNL     1     -38.512  59.991 -50.035  1.00  0.00     0.210 C 
ENDBRANCH  27  30
ENDBRANCH  20  21
ENDBRANCH   1  20
TORSDOF 7
ENDMDL
MODEL 3
REMARK VINA RESULT:      -8.1      3.286      8.171
REMARK  7 active torsions:
REMARK  status: ('A' for Active; 'I' for Inactive)
REMARK    1  A    between atoms: O_2  and  C_3 
REMARK    2  A    between atoms: C_7  and  C_8 
REMARK    3  A    between atoms: C_8  and  C_9 
REMARK       I    between atoms: C_9  and  N_10 
REMARK    4  A    between atoms: N_10  and  C_11 
REMARK    5  A    between atoms: C_11  and  C_12 
REMARK    6  A    between atoms: C_12  and  N_13 
REMARK    7  A    between atoms: C_12  and  C_19 
ROOT
HETATM    1  C   UNL     1     -42.180  56.875 -54.676  1.00  0.00     0.222 C 
HETATM    2  N   UNL     1     -41.791  56.476 -55.941  1.00  0.00    -0.358 N 
HETATM    3  O   UNL     1     -43.359  57.138 -54.444  1.00  0.00    -0.273 OA
HETATM    4  H   UNL     1     -40.865  56.072 -56.027  1.00  0.00     0.162 HD
ENDROOT
BRANCH   2   5
HETATM    5  C   UNL     1     -42.766  56.047 -56.929  1.00  0.00     0.160 C 
BRANCH   5   6
HETATM    6  C   UNL     1     -43.288  57.105 -57.961  1.00  0.00     0.240 C 
BRANCH   6   7
HETATM    7  N   UNL     1     -42.154  57.835 -58.699  1.00  0.00    -0.061 N 
HETATM    8  H   UNL     1     -41.302  57.389 -58.334  1.00  0.00     0.280 HD
HETATM    9  C   UNL     1     -41.993  59.313 -58.451  1.00  0.00     0.236 C 
HETATM   10  C   UNL     1     -42.283  59.949 -59.794  1.00  0.00     0.029 C 
HETATM   11  C   UNL     1     -41.707  58.950 -60.778  1.00  0.00     0.029 C 
HETATM   12  C   UNL     1     -42.079  57.600 -60.195  1.00  0.00     0.236 C 
ENDBRANCH   6   7
BRANCH   6  13
HETATM   13  C   UNL     1     -44.284  56.523 -58.971  1.00  0.00    -0.004 A 
HETATM   14  C   UNL     1     -45.400  57.276 -59.398  1.00  0.00     0.042 A 
HETATM   15 CL   UNL     1     -45.657  58.897 -58.853  1.00  0.00    -0.084 Cl
HETATM   16  C   UNL     1     -46.320  56.756 -60.313  1.00  0.00     0.024 A 
HETATM   17  C   UNL     1     -46.145  55.476 -60.831  1.00  0.00     0.002 A 
HETATM   18  C   UNL     1     -45.048  54.719 -60.440  1.00  0.00     0.001 A 
HETATM   19  C   UNL     1     -44.125  55.236 -59.525  1.00  0.00     0.011 A 
ENDBRANCH   6  13
ENDBRANCH   5   6
ENDBRANCH   2   5
BRANCH   1  20
HETATM   20  C   UNL     1     -41.097  56.942 -53.596  1.00  0.00     0.144 C 
BRANCH  20  21
HETATM   21  C   UNL     1     -41.049  55.731 -52.724  1.00  0.00    -0.014 A 
HETATM   22  C   UNL     1     -40.725  54.393 -53.113  1.00  0.00     0.006 A 
HETATM   23  C   UNL     1     -40.675  53.652 -51.940  1.00  0.00     0.088 A 
HETATM   24  C   UNL     1     -40.410  53.750 -54.324  1.00  0.00     0.017 A 
HETATM   25  C   UNL     1     -40.297  52.311 -51.867  1.00  0.00     0.074 A 
HETATM   26  O   UNL     1     -41.020  54.432 -50.880  1.00  0.00    -0.321 OA
HETATM   27  C   UNL     1     -39.935  51.702 -53.073  1.00  0.00     0.070 A 
HETATM   28  C   UNL     1     -40.011  52.408 -54.280  1.00  0.00     0.038 A 
HETATM   29  C   UNL     1     -41.269  55.677 -51.361  1.00  0.00     0.151 A 
BRANCH  27  30
HETATM   30  O   UNL     1     -39.482  50.415 -53.208  1.00  0.00    -0.356 OA
HETATM   31  C   UNL     1     -39.718  49.775 -54.456  1.00  0.00     0.210 C 
ENDBRANCH  27  30
ENDBRANCH  20  21
ENDBRANCH   1  20
TORSDOF 7
ENDMDL
MODEL 4
REMARK VINA RESULT:      -8.1      2.773      5.373
REMARK  7 active torsions:
REMARK  status: ('A' for Active; 'I' for Inactive)
REMARK    1  A    between atoms: O_2  and  C_3 
REMARK    2  A    between atoms: C_7  and  C_8 
REMARK    3  A    between atoms: C_8  and  C_9 
REMARK       I    between atoms: C_9  and  N_10 
REMARK    4  A    between atoms: N_10  and  C_11 
REMARK    5  A    between atoms: C_11  and  C_12 
REMARK    6  A    between atoms: C_12  and  N_13 
REMARK    7  A    between atoms: C_12  and  C_19 
ROOT
HETATM    1  C   UNL     1     -42.169  56.891 -55.165  1.00  0.00     0.222 C 
HETATM    2  N   UNL     1     -41.086  56.076 -54.894  1.00  0.00    -0.358 N 
HETATM    3  O   UNL     1     -43.275  56.400 -55.383  1.00  0.00    -0.273 OA
HETATM    4  H   UNL     1     -40.260  56.527 -54.517  1.00  0.00     0.162 HD
ENDROOT
BRANCH   2   5
HETATM    5  C   UNL     1     -41.264  54.679 -54.541  1.00  0.00     0.160 C 
BRANCH   5   6
HETATM    6  C   UNL     1     -40.697  54.185 -53.166  1.00  0.00     0.240 C 
BRANCH   6   7
HETATM    7  N   UNL     1     -41.617  54.519 -51.980  1.00  0.00    -0.061 N 
HETATM    8  H   UNL     1     -41.392  53.792 -51.287  1.00  0.00     0.280 HD
HETATM    9  C   UNL     1     -43.106  54.439 -52.203  1.00  0.00     0.236 C 
HETATM   10  C   UNL     1     -43.585  55.864 -52.027  1.00  0.00     0.029 C 
HETATM   11  C   UNL     1     -42.684  56.396 -50.929  1.00  0.00     0.029 C 
HETATM   12  C   UNL     1     -41.320  55.818 -51.258  1.00  0.00     0.236 C 
ENDBRANCH   6   7
BRANCH   6  13
HETATM   13  C   UNL     1     -40.349  52.691 -53.156  1.00  0.00    -0.004 A 
HETATM   14  C   UNL     1     -39.806  52.085 -52.003  1.00  0.00     0.042 A 
HETATM   15 CL   UNL     1     -39.569  52.978 -50.540  1.00  0.00    -0.084 Cl
HETATM   16  C   UNL     1     -39.478  50.726 -51.981  1.00  0.00     0.024 A 
HETATM   17  C   UNL     1     -39.691  49.938 -53.108  1.00  0.00     0.002 A 
HETATM   18  C   UNL     1     -40.238  50.505 -54.252  1.00  0.00     0.001 A 
HETATM   19  C   UNL     1     -40.568  51.863 -54.277  1.00  0.00     0.011 A 
ENDBRANCH   6  13
ENDBRANCH   5   6
ENDBRANCH   2   5
BRANCH   1  20
HETATM   20  C   UNL     1     -41.931  58.404 -55.151  1.00  0.00     0.144 C 
BRANCH  20  21
HETATM   21  C   UNL     1     -41.556  58.936 -53.807  1.00  0.00    -0.014 A 
HETATM   22  C   UNL     1     -42.415  59.566 -52.852  1.00  0.00     0.006 A 
HETATM   23  C   UNL     1     -41.648  59.756 -51.710  1.00  0.00     0.088 A 
HETATM   24  C   UNL     1     -43.771  59.936 -52.815  1.00  0.00     0.017 A 
HETATM   25  C   UNL     1     -42.136  60.259 -50.504  1.00  0.00     0.074 A 
HETATM   26  O   UNL     1     -40.367  59.354 -51.937  1.00  0.00    -0.321 OA
HETATM   27  C   UNL     1     -43.499  60.571 -50.468  1.00  0.00     0.070 A 
HETATM   28  C   UNL     1     -44.294  60.429 -51.612  1.00  0.00     0.038 A 
HETATM   29  C   UNL     1     -40.312  58.886 -53.209  1.00  0.00     0.151 A 
BRANCH  27  30
HETATM   30  O   UNL     1     -44.181  61.023 -49.369  1.00  0.00    -0.356 OA
HETATM   31  C   UNL     1     -45.594  61.139 -49.488  1.00  0.00     0.210 C 
ENDBRANCH  27  30
ENDBRANCH  20  21
ENDBRANCH   1  20
TORSDOF 7
ENDMDL
MODEL 5
REMARK VINA RESULT:      -8.0      2.765      6.926
REMARK  7 active torsions:
REMARK  status: ('A' for Active; 'I' for Inactive)
REMARK    1  A    between atoms: O_2  and  C_3 
REMARK    2  A    between atoms: C_7  and  C_8 
REMARK    3  A    between atoms: C_8  and  C_9 
REMARK       I    between atoms: C_9  and  N_10 
REMARK    4  A    between atoms: N_10  and  C_11 
REMARK    5  A    between atoms: C_11  and  C_12 
REMARK    6  A    between atoms: C_12  and  N_13 
REMARK    7  A    between atoms: C_12  and  C_19 
ROOT
HETATM    1  C   UNL     1     -42.943  59.442 -53.330  1.00  0.00     0.222 C 
HETATM    2  N   UNL     1     -41.822  58.863 -53.894  1.00  0.00    -0.358 N 
HETATM    3  O   UNL     1     -43.770  60.013 -54.040  1.00  0.00    -0.273 OA
HETATM    4  H   UNL     1     -41.290  58.232 -53.306  1.00  0.00     0.162 HD
ENDROOT
BRANCH   2   5
HETATM    5  C   UNL     1     -41.737  58.622 -55.324  1.00  0.00     0.160 C 
BRANCH   5   6
HETATM    6  C   UNL     1     -42.463  57.360 -55.906  1.00  0.00     0.240 C 
BRANCH   6   7
HETATM    7  N   UNL     1     -42.156  57.123 -57.394  1.00  0.00    -0.061 N 
HETATM    8  H   UNL     1     -41.214  56.709 -57.384  1.00  0.00     0.280 HD
HETATM    9  C   UNL     1     -42.074  58.329 -58.294  1.00  0.00     0.236 C 
HETATM   10  C   UNL     1     -43.226  58.151 -59.260  1.00  0.00     0.029 C 
HETATM   11  C   UNL     1     -43.271  56.650 -59.467  1.00  0.00     0.029 C 
HETATM   12  C   UNL     1     -43.008  56.078 -58.087  1.00  0.00     0.236 C 
ENDBRANCH   6   7
BRANCH   6  13
HETATM   13  C   UNL     1     -42.190  56.082 -55.103  1.00  0.00    -0.004 A 
HETATM   14  C   UNL     1     -43.220  55.462 -54.364  1.00  0.00     0.042 A 
HETATM   15 CL   UNL     1     -44.838  56.075 -54.379  1.00  0.00    -0.084 Cl
HETATM   16  C   UNL     1     -42.985  54.301 -53.621  1.00  0.00     0.024 A 
HETATM   17  C   UNL     1     -41.718  53.725 -53.606  1.00  0.00     0.002 A 
HETATM   18  C   UNL     1     -40.689  54.306 -54.337  1.00  0.00     0.001 A 
HETATM   19  C   UNL     1     -40.921  55.467 -55.081  1.00  0.00     0.011 A 
ENDBRANCH   6  13
ENDBRANCH   5   6
ENDBRANCH   2   5
BRANCH   1  20
HETATM   20  C   UNL     1     -43.113  59.314 -51.814  1.00  0.00     0.144 C 
BRANCH  20  21
HETATM   21  C   UNL     1     -43.487  57.937 -51.371  1.00  0.00    -0.014 A 
HETATM   22  C   UNL     1     -42.604  56.862 -51.040  1.00  0.00     0.006 A 
HETATM   23  C   UNL     1     -43.407  55.840 -50.552  1.00  0.00     0.088 A 
HETATM   24  C   UNL     1     -41.210  56.672 -51.044  1.00  0.00     0.017 A 
HETATM   25  C   UNL     1     -42.928  54.639 -50.028  1.00  0.00     0.074 A 
HETATM   26  O   UNL     1     -44.718  56.196 -50.638  1.00  0.00    -0.321 OA
HETATM   27  C   UNL     1     -41.538  54.489 -49.990  1.00  0.00     0.070 A 
HETATM   28  C   UNL     1     -40.699  55.483 -50.508  1.00  0.00     0.038 A 
HETATM   29  C   UNL     1     -44.761  57.449 -51.155  1.00  0.00     0.151 A 
BRANCH  27  30
HETATM   30  O   UNL     1     -40.869  53.414 -49.465  1.00  0.00    -0.356 OA
HETATM   31  C   UNL     1     -40.322  52.480 -50.387  1.00  0.00     0.210 C 
ENDBRANCH  27  30
ENDBRANCH  20  21
ENDBRANCH   1  20
TORSDOF 7
ENDMDL
MODEL 6
REMARK VINA RESULT:      -7.9      1.637      3.029
REMARK  7 active torsions:
REMARK  status: ('A' for Active; 'I' for Inactive)
REMARK    1  A    between atoms: O_2  and  C_3 
REMARK    2  A    between atoms: C_7  and  C_8 
REMARK    3  A    between atoms: C_8  and  C_9 
REMARK       I    between atoms: C_9  and  N_10 
REMARK    4  A    between atoms: N_10  and  C_11 
REMARK    5  A    between atoms: C_11  and  C_12 
REMARK    6  A    between atoms: C_12  and  N_13 
REMARK    7  A    between atoms: C_12  and  C_19 
ROOT
HETATM    1  C   UNL     1     -42.398  55.966 -56.146  1.00  0.00     0.222 C 
HETATM    2  N   UNL     1     -41.648  54.841 -55.860  1.00  0.00    -0.358 N 
HETATM    3  O   UNL     1     -42.253  56.993 -55.485  1.00  0.00    -0.273 OA
HETATM    4  H   UNL     1     -41.650  54.103 -56.556  1.00  0.00     0.162 HD
ENDROOT
BRANCH   2   5
HETATM    5  C   UNL     1     -40.468  54.917 -55.017  1.00  0.00     0.160 C 
BRANCH   5   6
HETATM    6  C   UNL     1     -40.601  54.480 -53.517  1.00  0.00     0.240 C 
BRANCH   6   7
HETATM    7  N   UNL     1     -41.967  54.836 -52.907  1.00  0.00    -0.061 N 
HETATM    8  H   UNL     1     -42.568  54.982 -53.729  1.00  0.00     0.280 HD
HETATM    9  C   UNL     1     -42.062  56.097 -52.087  1.00  0.00     0.236 C 
HETATM   10  C   UNL     1     -42.390  55.610 -50.692  1.00  0.00     0.029 C 
HETATM   11  C   UNL     1     -43.291  54.418 -50.948  1.00  0.00     0.029 C 
HETATM   12  C   UNL     1     -42.658  53.726 -52.141  1.00  0.00     0.236 C 
ENDBRANCH   6   7
BRANCH   6  13
HETATM   13  C   UNL     1     -40.294  52.995 -53.290  1.00  0.00    -0.004 A 
HETATM   14  C   UNL     1     -39.796  52.544 -52.048  1.00  0.00     0.042 A 
HETATM   15 CL   UNL     1     -39.570  53.627 -50.719  1.00  0.00    -0.084 Cl
HETATM   16  C   UNL     1     -39.505  51.195 -51.829  1.00  0.00     0.024 A 
HETATM   17  C   UNL     1     -39.712  50.261 -52.840  1.00  0.00     0.002 A 
HETATM   18  C   UNL     1     -40.215  50.675 -54.067  1.00  0.00     0.001 A 
HETATM   19  C   UNL     1     -40.508  52.024 -54.289  1.00  0.00     0.011 A 
ENDBRANCH   6  13
ENDBRANCH   5   6
ENDBRANCH   2   5
BRANCH   1  20
HETATM   20  C   UNL     1     -43.376  55.879 -57.322  1.00  0.00     0.144 C 
BRANCH  20  21
HETATM   21  C   UNL     1     -42.911  56.610 -58.538  1.00  0.00    -0.014 A 
HETATM   22  C   UNL     1     -42.860  58.027 -58.733  1.00  0.00     0.006 A 
HETATM   23  C   UNL     1     -42.230  58.225 -59.954  1.00  0.00     0.088 A 
HETATM   24  C   UNL     1     -43.224  59.156 -57.978  1.00  0.00     0.017 A 
HETATM   25  C   UNL     1     -41.895  59.474 -60.478  1.00  0.00     0.074 A 
HETATM   26  O   UNL     1     -41.966  57.027 -60.543  1.00  0.00    -0.321 OA
HETATM   27  C   UNL     1     -42.215  60.584 -59.689  1.00  0.00     0.070 A 
HETATM   28  C   UNL     1     -42.886  60.423 -58.470  1.00  0.00     0.038 A 
HETATM   29  C   UNL     1     -42.403  56.059 -59.698  1.00  0.00     0.151 A 
BRANCH  27  30
HETATM   30  O   UNL     1     -41.922  61.887 -59.995  1.00  0.00    -0.356 OA
HETATM   31  C   UNL     1     -40.594  62.328 -59.739  1.00  0.00     0.210 C 
ENDBRANCH  27  30
ENDBRANCH  20  21
ENDBRANCH   1  20
TORSDOF 7
ENDMDL
MODEL 7
REMARK VINA RESULT:      -7.9      2.326      3.416
REMARK  7 active torsions:
REMARK  status: ('A' for Active; 'I' for Inactive)
REMARK    1  A    between atoms: O_2  and  C_3 
REMARK    2  A    between atoms: C_7  and  C_8 
REMARK    3  A    between atoms: C_8  and  C_9 
REMARK       I    between atoms: C_9  and  N_10 
REMARK    4  A    between atoms: N_10  and  C_11 
REMARK    5  A    between atoms: C_11  and  C_12 
REMARK    6  A    between atoms: C_12  and  N_13 
REMARK    7  A    between atoms: C_12  and  C_19 
ROOT
HETATM    1  C   UNL     1     -43.915  57.021 -55.541  1.00  0.00     0.222 C 
HETATM    2  N   UNL     1     -43.081  55.963 -55.235  1.00  0.00    -0.358 N 
HETATM    3  O   UNL     1     -44.797  57.364 -54.755  1.00  0.00    -0.273 OA
HETATM    4  H   UNL     1     -42.250  55.858 -55.806  1.00  0.00     0.162 HD
ENDROOT
BRANCH   2   5
HETATM    5  C   UNL     1     -42.993  55.440 -53.883  1.00  0.00     0.160 C 
BRANCH   5   6
HETATM    6  C   UNL     1     -41.643  55.616 -53.107  1.00  0.00     0.240 C 
BRANCH   6   7
HETATM    7  N   UNL     1     -41.762  56.563 -51.900  1.00  0.00    -0.061 N 
HETATM    8  H   UNL     1     -41.245  56.072 -51.158  1.00  0.00     0.280 HD
HETATM    9  C   UNL     1     -43.139  56.827 -51.349  1.00  0.00     0.236 C 
HETATM   10  C   UNL     1     -43.361  58.304 -51.596  1.00  0.00     0.029 C 
HETATM   11  C   UNL     1     -41.981  58.897 -51.386  1.00  0.00     0.029 C 
HETATM   12  C   UNL     1     -41.045  57.891 -52.029  1.00  0.00     0.236 C 
ENDBRANCH   6   7
BRANCH   6  13
HETATM   13  C   UNL     1     -41.017  54.286 -52.672  1.00  0.00    -0.004 A 
HETATM   14  C   UNL     1     -40.390  53.442 -53.615  1.00  0.00     0.042 A 
HETATM   15 CL   UNL     1     -40.247  53.895 -55.277  1.00  0.00    -0.084 Cl
HETATM   16  C   UNL     1     -39.822  52.223 -53.234  1.00  0.00     0.024 A 
HETATM   17  C   UNL     1     -39.857  51.820 -51.902  1.00  0.00     0.002 A 
HETATM   18  C   UNL     1     -40.454  52.638 -50.951  1.00  0.00     0.001 A 
HETATM   19  C   UNL     1     -41.023  53.858 -51.328  1.00  0.00     0.011 A 
ENDBRANCH   6  13
ENDBRANCH   5   6
ENDBRANCH   2   5
BRANCH   1  20
HETATM   20  C   UNL     1     -43.672  57.747 -56.868  1.00  0.00     0.144 C 
BRANCH  20  21
HETATM   21  C   UNL     1     -43.824  56.867 -58.065  1.00  0.00    -0.014 A 
HETATM   22  C   UNL     1     -44.972  56.740 -58.910  1.00  0.00     0.006 A 
HETATM   23  C   UNL     1     -44.588  55.919 -59.961  1.00  0.00     0.088 A 
HETATM   24  C   UNL     1     -46.269  57.283 -58.925  1.00  0.00     0.017 A 
HETATM   25  C   UNL     1     -45.389  55.617 -61.062  1.00  0.00     0.074 A 
HETATM   26  O   UNL     1     -43.313  55.481 -59.769  1.00  0.00    -0.321 OA
HETATM   27  C   UNL     1     -46.657  56.208 -61.088  1.00  0.00     0.070 A 
HETATM   28  C   UNL     1     -47.091  57.011 -60.026  1.00  0.00     0.038 A 
HETATM   29  C   UNL     1     -42.868  56.034 -58.613  1.00  0.00     0.151 A 
BRANCH  27  30
HETATM   30  O   UNL     1     -47.570  56.084 -62.102  1.00  0.00    -0.356 OA
HETATM   31  C   UNL     1     -48.510  57.140 -62.257  1.00  0.00     0.210 C 
ENDBRANCH  27  30
ENDBRANCH  20  21
ENDBRANCH   1  20
TORSDOF 7
ENDMDL
MODEL 8
REMARK VINA RESULT:      -7.9      3.890      6.360
REMARK  7 active torsions:
REMARK  status: ('A' for Active; 'I' for Inactive)
REMARK    1  A    between atoms: O_2  and  C_3 
REMARK    2  A    between atoms: C_7  and  C_8 
REMARK    3  A    between atoms: C_8  and  C_9 
REMARK       I    between atoms: C_9  and  N_10 
REMARK    4  A    between atoms: N_10  and  C_11 
REMARK    5  A    between atoms: C_11  and  C_12 
REMARK    6  A    between atoms: C_12  and  N_13 
REMARK    7  A    between atoms: C_12  and  C_19 
ROOT
HETATM    1  C   UNL     1     -41.367  56.320 -53.693  1.00  0.00     0.222 C 
HETATM    2  N   UNL     1     -40.776  55.116 -54.025  1.00  0.00    -0.358 N 
HETATM    3  O   UNL     1     -42.591  56.408 -53.610  1.00  0.00    -0.273 OA
HETATM    4  H   UNL     1     -39.777  55.042 -53.873  1.00  0.00     0.162 HD
ENDROOT
BRANCH   2   5
HETATM    5  C   UNL     1     -41.521  53.870 -53.969  1.00  0.00     0.160 C 
BRANCH   5   6
HETATM    6  C   UNL     1     -41.213  52.875 -52.798  1.00  0.00     0.240 C 
BRANCH   6   7
HETATM    7  N   UNL     1     -40.018  51.952 -53.091  1.00  0.00    -0.061 N 
HETATM    8  H   UNL     1     -39.202  52.542 -52.881  1.00  0.00     0.280 HD
HETATM    9  C   UNL     1     -39.835  51.470 -54.507  1.00  0.00     0.236 C 
HETATM   10  C   UNL     1     -40.028  49.971 -54.417  1.00  0.00     0.029 C 
HETATM   11  C   UNL     1     -39.419  49.628 -53.071  1.00  0.00     0.029 C 
HETATM   12  C   UNL     1     -39.860  50.762 -52.166  1.00  0.00     0.236 C 
ENDBRANCH   6   7
BRANCH   6  13
HETATM   13  C   UNL     1     -41.019  53.574 -51.446  1.00  0.00    -0.004 A 
HETATM   14  C   UNL     1     -42.123  54.104 -50.745  1.00  0.00     0.042 A 
HETATM   15 CL   UNL     1     -43.738  53.937 -51.341  1.00  0.00    -0.084 Cl
HETATM   16  C   UNL     1     -41.960  54.750 -49.515  1.00  0.00     0.024 A 
HETATM   17  C   UNL     1     -40.693  54.875 -48.953  1.00  0.00     0.002 A 
HETATM   18  C   UNL     1     -39.591  54.348 -49.615  1.00  0.00     0.001 A 
HETATM   19  C   UNL     1     -39.750  53.702 -50.844  1.00  0.00     0.011 A 
ENDBRANCH   6  13
ENDBRANCH   5   6
ENDBRANCH   2   5
BRANCH   1  20
HETATM   20  C   UNL     1     -40.439  57.505 -53.411  1.00  0.00     0.144 C 
BRANCH  20  21
HETATM   21  C   UNL     1     -40.849  58.313 -52.223  1.00  0.00    -0.014 A 
HETATM   22  C   UNL     1     -41.622  59.517 -52.218  1.00  0.00     0.006 A 
HETATM   23  C   UNL     1     -41.862  59.815 -50.883  1.00  0.00     0.088 A 
HETATM   24  C   UNL     1     -42.192  60.346 -53.200  1.00  0.00     0.017 A 
HETATM   25  C   UNL     1     -42.664  60.866 -50.439  1.00  0.00     0.074 A 
HETATM   26  O   UNL     1     -41.224  58.917 -50.083  1.00  0.00    -0.321 OA
HETATM   27  C   UNL     1     -43.267  61.648 -51.430  1.00  0.00     0.070 A 
HETATM   28  C   UNL     1     -43.016  61.400 -52.785  1.00  0.00     0.038 A 
HETATM   29  C   UNL     1     -40.595  58.031 -50.895  1.00  0.00     0.151 A 
BRANCH  27  30
HETATM   30  O   UNL     1     -44.131  62.687 -51.204  1.00  0.00    -0.356 OA
HETATM   31  C   UNL     1     -45.337  62.386 -50.513  1.00  0.00     0.210 C 
ENDBRANCH  27  30
ENDBRANCH  20  21
ENDBRANCH   1  20
TORSDOF 7
ENDMDL
MODEL 9
REMARK VINA RESULT:      -7.8      3.507      8.590
REMARK  7 active torsions:
REMARK  status: ('A' for Active; 'I' for Inactive)
REMARK    1  A    between atoms: O_2  and  C_3 
REMARK    2  A    between atoms: C_7  and  C_8 
REMARK    3  A    between atoms: C_8  and  C_9 
REMARK       I    between atoms: C_9  and  N_10 
REMARK    4  A    between atoms: N_10  and  C_11 
REMARK    5  A    between atoms: C_11  and  C_12 
REMARK    6  A    between atoms: C_12  and  N_13 
REMARK    7  A    between atoms: C_12  and  C_19 
ROOT
HETATM    1  C   UNL     1     -42.848  55.934 -56.133  1.00  0.00     0.222 C 
HETATM    2  N   UNL     1     -43.992  56.595 -56.538  1.00  0.00    -0.358 N 
HETATM    3  O   UNL     1     -41.759  56.505 -56.159  1.00  0.00    -0.273 OA
HETATM    4  H   UNL     1     -44.877  56.162 -56.299  1.00  0.00     0.162 HD
ENDROOT
BRANCH   2   5
HETATM    5  C   UNL     1     -44.012  58.040 -56.692  1.00  0.00     0.160 C 
BRANCH   5   6
HETATM    6  C   UNL     1     -44.230  58.627 -58.129  1.00  0.00     0.240 C 
BRANCH   6   7
HETATM    7  N   UNL     1     -42.935  59.162 -58.763  1.00  0.00    -0.061 N 
HETATM    8  H   UNL     1     -42.613  58.380 -59.349  1.00  0.00     0.280 HD
HETATM    9  C   UNL     1     -41.790  59.498 -57.842  1.00  0.00     0.236 C 
HETATM   10  C   UNL     1     -41.614  60.993 -57.997  1.00  0.00     0.029 C 
HETATM   11  C   UNL     1     -41.925  61.225 -59.463  1.00  0.00     0.029 C 
HETATM   12  C   UNL     1     -43.102  60.308 -59.740  1.00  0.00     0.236 C 
ENDBRANCH   6   7
BRANCH   6  13
HETATM   13  C   UNL     1     -44.917  57.646 -59.086  1.00  0.00    -0.004 A 
HETATM   14  C   UNL     1     -46.324  57.541 -59.123  1.00  0.00     0.042 A 
HETATM   15 CL   UNL     1     -47.331  58.552 -58.144  1.00  0.00    -0.084 Cl
HETATM   16  C   UNL     1     -46.965  56.646 -59.985  1.00  0.00     0.024 A 
HETATM   17  C   UNL     1     -46.216  55.839 -60.836  1.00  0.00     0.002 A 
HETATM   18  C   UNL     1     -44.830  55.931 -60.831  1.00  0.00     0.001 A 
HETATM   19  C   UNL     1     -44.187  56.826 -59.971  1.00  0.00     0.011 A 
ENDBRANCH   6  13
ENDBRANCH   5   6
ENDBRANCH   2   5
BRANCH   1  20
HETATM   20  C   UNL     1     -43.007  54.495 -55.634  1.00  0.00     0.144 C 
BRANCH  20  21
HETATM   21  C   UNL     1     -42.563  54.302 -54.220  1.00  0.00    -0.014 A 
HETATM   22  C   UNL     1     -41.669  53.304 -53.720  1.00  0.00     0.006 A 
HETATM   23  C   UNL     1     -41.454  53.614 -52.384  1.00  0.00     0.088 A 
HETATM   24  C   UNL     1     -40.975  52.212 -54.273  1.00  0.00     0.017 A 
HETATM   25  C   UNL     1     -40.564  52.939 -51.549  1.00  0.00     0.074 A 
HETATM   26  O   UNL     1     -42.214  54.684 -52.025  1.00  0.00    -0.321 OA
HETATM   27  C   UNL     1     -39.842  51.890 -52.129  1.00  0.00     0.070 A 
HETATM   28  C   UNL     1     -40.062  51.525 -53.463  1.00  0.00     0.038 A 
HETATM   29  C   UNL     1     -42.900  55.078 -53.128  1.00  0.00     0.151 A 
BRANCH  27  30
HETATM   30  O   UNL     1     -38.883  51.142 -51.498  1.00  0.00    -0.356 OA
HETATM   31  C   UNL     1     -39.285  49.877 -50.985  1.00  0.00     0.210 C 
ENDBRANCH  27  30
ENDBRANCH  20  21
ENDBRANCH   1  20
TORSDOF 7
ENDMDL
MODEL 10
REMARK VINA RESULT:      -7.8     15.595     18.189
REMARK  7 active torsions:
REMARK  status: ('A' for Active; 'I' for Inactive)
REMARK    1  A    between atoms: O_2  and  C_3 
REMARK    2  A    between atoms: C_7  and  C_8 
REMARK    3  A    between atoms: C_8  and  C_9 
REMARK       I    between atoms: C_9  and  N_10 
REMARK    4  A    between atoms: N_10  and  C_11 
REMARK    5  A    between atoms: C_11  and  C_12 
REMARK    6  A    between atoms: C_12  and  N_13 
REMARK    7  A    between atoms: C_12  and  C_19 
ROOT
HETATM    1  C   UNL     1     -31.645  39.453 -54.187  1.00  0.00     0.222 C 
HETATM    2  N   UNL     1     -31.972  40.573 -53.446  1.00  0.00    -0.358 N 
HETATM    3  O   UNL     1     -31.407  38.385 -53.625  1.00  0.00    -0.273 OA
HETATM    4  H   UNL     1     -32.361  41.358 -53.954  1.00  0.00     0.162 HD
ENDROOT
BRANCH   2   5
HETATM    5  C   UNL     1     -32.356  40.466 -52.049  1.00  0.00     0.160 C 
BRANCH   5   6
HETATM    6  C   UNL     1     -33.700  39.735 -51.706  1.00  0.00     0.240 C 
BRANCH   6   7
HETATM    7  N   UNL     1     -34.026  39.751 -50.203  1.00  0.00    -0.061 N 
HETATM    8  H   UNL     1     -34.451  40.677 -50.058  1.00  0.00     0.280 HD
HETATM    9  C   UNL     1     -32.875  39.662 -49.234  1.00  0.00     0.236 C 
HETATM   10  C   UNL     1     -33.093  38.346 -48.518  1.00  0.00     0.029 C 
HETATM   11  C   UNL     1     -34.603  38.260 -48.412  1.00  0.00     0.029 C 
HETATM   12  C   UNL     1     -35.098  38.780 -49.749  1.00  0.00     0.236 C 
ENDBRANCH   6   7
BRANCH   6  13
HETATM   13  C   UNL     1     -34.896  40.260 -52.509  1.00  0.00    -0.004 A 
HETATM   14  C   UNL     1     -35.571  39.424 -53.425  1.00  0.00     0.042 A 
HETATM   15 CL   UNL     1     -35.123  37.767 -53.635  1.00  0.00    -0.084 Cl
HETATM   16  C   UNL     1     -36.659  39.890 -54.169  1.00  0.00     0.024 A 
HETATM   17  C   UNL     1     -37.104  41.199 -54.012  1.00  0.00     0.002 A 
HETATM   18  C   UNL     1     -36.468  42.039 -53.106  1.00  0.00     0.001 A 
HETATM   19  C   UNL     1     -35.381  41.576 -52.360  1.00  0.00     0.011 A 
ENDBRANCH   6  13
ENDBRANCH   5   6
ENDBRANCH   2   5
BRANCH   1  20
HETATM   20  C   UNL     1     -31.626  39.600 -55.711  1.00  0.00     0.144 C 
BRANCH  20  21
HETATM   21  C   UNL     1     -32.941  39.307 -56.355  1.00  0.00    -0.014 A 
HETATM   22  C   UNL     1     -33.984  40.236 -56.662  1.00  0.00     0.006 A 
HETATM   23  C   UNL     1     -34.938  39.524 -57.376  1.00  0.00     0.088 A 
HETATM   24  C   UNL     1     -34.189  41.614 -56.464  1.00  0.00     0.017 A 
HETATM   25  C   UNL     1     -36.079  40.085 -57.950  1.00  0.00     0.074 A 
HETATM   26  O   UNL     1     -34.578  38.213 -57.455  1.00  0.00    -0.321 OA
HETATM   27  C   UNL     1     -36.240  41.465 -57.789  1.00  0.00     0.070 A 
HETATM   28  C   UNL     1     -35.318  42.208 -57.042  1.00  0.00     0.038 A 
HETATM   29  C   UNL     1     -33.388  38.084 -56.816  1.00  0.00     0.151 A 
BRANCH  27  30
HETATM   30  O   UNL     1     -37.258  42.212 -58.320  1.00  0.00    -0.356 OA
HETATM   31  C   UNL     1     -37.313  42.315 -59.737  1.00  0.00     0.210 C 
ENDBRANCH  27  30
ENDBRANCH  20  21
ENDBRANCH   1  20
TORSDOF 7
ENDMDL
