MODEL 1
REMARK VINA RESULT:      -7.8      0.000      0.000
REMARK  6 active torsions:
REMARK  status: ('A' for Active; 'I' for Inactive)
REMARK    1  A    between atoms: O_2  and  C_3 
REMARK    2  A    between atoms: C_4  and  O_5 
REMARK    3  A    between atoms: C_8  and  C_9 
REMARK    4  A    between atoms: C_13  and  C_14 
REMARK       I    between atoms: C_14  and  N_15 
REMARK    5  A    between atoms: N_15  and  C_16 
REMARK    6  A    between atoms: C_19  and  O_20 
ROOT
HETATM    1  C   UNL     1     -41.453  55.061 -54.806  1.00  0.00     0.063 A 
HETATM    2  N   UNL     1     -41.467  56.392 -54.476  1.00  0.00    -0.277 N 
HETATM    3  H   UNL     1     -41.101  56.819 -53.632  1.00  0.00     0.189 HD
HETATM    4  N   UNL     1     -42.069  57.185 -55.382  1.00  0.00    -0.169 NA
HETATM    5  C   UNL     1     -42.474  56.326 -56.342  1.00  0.00     0.147 A 
HETATM    6  C   UNL     1     -42.112  54.995 -56.018  1.00  0.00     0.071 A 
ENDROOT
BRANCH   5   7
HETATM    7  C   UNL     1     -43.207  56.784 -57.536  1.00  0.00     0.276 C 
HETATM    8  N   UNL     1     -44.008  55.789 -58.059  1.00  0.00    -0.320 N 
HETATM    9  H   UNL     1     -43.961  54.915 -57.540  1.00  0.00     0.169 HD
HETATM   10  O   UNL     1     -43.078  57.920 -57.978  1.00  0.00    -0.266 OA
BRANCH   8  11
HETATM   11  C   UNL     1     -44.836  55.854 -59.191  1.00  0.00     0.052 A 
HETATM   12  C   UNL     1     -44.659  55.113 -60.357  1.00  0.00     0.149 A 
HETATM   13  N   UNL     1     -45.472  55.193 -61.442  1.00  0.00    -0.235 NA
HETATM   14  C   UNL     1     -46.510  56.048 -61.362  1.00  0.00     0.163 A 
HETATM   15  C   UNL     1     -46.775  56.827 -60.249  1.00  0.00     0.060 A 
HETATM   16  C   UNL     1     -45.924  56.728 -59.150  1.00  0.00     0.035 A 
BRANCH  14  17
HETATM   17  O   UNL     1     -47.380  56.184 -62.425  1.00  0.00    -0.339 OA
HETATM   18  C   UNL     1     -48.585  56.857 -62.073  1.00  0.00     0.211 C 
ENDBRANCH  14  17
ENDBRANCH   8  11
ENDBRANCH   5   7
BRANCH   1  19
HETATM   19  C   UNL     1     -40.886  54.021 -53.953  1.00  0.00    -0.005 A 
HETATM   20  C   UNL     1     -40.898  54.140 -52.556  1.00  0.00     0.053 A 
HETATM   21  C   UNL     1     -40.376  53.125 -51.744  1.00  0.00     0.102 A 
HETATM   22  C   UNL     1     -39.851  51.960 -52.335  1.00  0.00     0.101 A 
HETATM   23  C   UNL     1     -39.809  51.853 -53.728  1.00  0.00     0.040 A 
HETATM   24  C   UNL     1     -40.321  52.877 -54.529  1.00  0.00     0.017 A 
BRANCH  21  25
HETATM   25  O   UNL     1     -40.364  53.162 -50.371  1.00  0.00    -0.353 OA
HETATM   26  C   UNL     1     -39.749  54.282 -49.751  1.00  0.00     0.210 C 
ENDBRANCH  21  25
BRANCH  22  27
HETATM   27  O   UNL     1     -39.370  51.002 -51.478  1.00  0.00    -0.353 OA
HETATM   28  C   UNL     1     -39.577  49.646 -51.855  1.00  0.00     0.210 C 
ENDBRANCH  22  27
ENDBRANCH   1  19
TORSDOF 6
ENDMDL
MODEL 2
REMARK VINA RESULT:      -7.7      0.760      1.842
REMARK  6 active torsions:
REMARK  status: ('A' for Active; 'I' for Inactive)
REMARK    1  A    between atoms: O_2  and  C_3 
REMARK    2  A    between atoms: C_4  and  O_5 
REMARK    3  A    between atoms: C_8  and  C_9 
REMARK    4  A    between atoms: C_13  and  C_14 
REMARK       I    between atoms: C_14  and  N_15 
REMARK    5  A    between atoms: N_15  and  C_16 
REMARK    6  A    between atoms: C_19  and  O_20 
ROOT
HETATM    1  C   UNL     1     -41.522  55.191 -54.822  1.00  0.00     0.063 A 
HETATM    2  N   UNL     1     -41.562  56.531 -54.533  1.00  0.00    -0.277 N 
HETATM    3  H   UNL     1     -41.235  56.987 -53.688  1.00  0.00     0.189 HD
HETATM    4  N   UNL     1     -42.133  57.290 -55.487  1.00  0.00    -0.169 NA
HETATM    5  C   UNL     1     -42.490  56.399 -56.436  1.00  0.00     0.147 A 
HETATM    6  C   UNL     1     -42.129  55.083 -56.057  1.00  0.00     0.071 A 
ENDROOT
BRANCH   5   7
HETATM    7  C   UNL     1     -43.176  56.814 -57.673  1.00  0.00     0.276 C 
HETATM    8  N   UNL     1     -44.111  55.880 -58.078  1.00  0.00    -0.320 N 
HETATM    9  H   UNL     1     -44.169  55.072 -57.464  1.00  0.00     0.169 HD
HETATM   10  O   UNL     1     -42.908  57.866 -58.241  1.00  0.00    -0.266 OA
BRANCH   8  11
HETATM   11  C   UNL     1     -44.942  55.928 -59.208  1.00  0.00     0.052 A 
HETATM   12  C   UNL     1     -44.736  55.212 -60.385  1.00  0.00     0.149 A 
HETATM   13  N   UNL     1     -45.552  55.273 -61.468  1.00  0.00    -0.235 NA
HETATM   14  C   UNL     1     -46.625  56.083 -61.375  1.00  0.00     0.163 A 
HETATM   15  C   UNL     1     -46.921  56.834 -60.251  1.00  0.00     0.060 A 
HETATM   16  C   UNL     1     -46.065  56.755 -59.154  1.00  0.00     0.035 A 
BRANCH  14  17
HETATM   17  O   UNL     1     -47.501  56.198 -62.436  1.00  0.00    -0.339 OA
HETATM   18  C   UNL     1     -48.516  57.173 -62.214  1.00  0.00     0.211 C 
ENDBRANCH  14  17
ENDBRANCH   8  11
ENDBRANCH   5   7
BRANCH   1  19
HETATM   19  C   UNL     1     -40.981  54.183 -53.915  1.00  0.00    -0.005 A 
HETATM   20  C   UNL     1     -40.393  53.008 -54.404  1.00  0.00     0.053 A 
HETATM   21  C   UNL     1     -39.852  52.058 -53.528  1.00  0.00     0.102 A 
HETATM   22  C   UNL     1     -39.878  52.294 -52.140  1.00  0.00     0.101 A 
HETATM   23  C   UNL     1     -40.491  53.450 -51.650  1.00  0.00     0.040 A 
HETATM   24  C   UNL     1     -41.039  54.385 -52.532  1.00  0.00     0.017 A 
BRANCH  21  25
HETATM   25  O   UNL     1     -39.249  50.891 -53.929  1.00  0.00    -0.353 OA
HETATM   26  C   UNL     1     -40.088  49.848 -54.402  1.00  0.00     0.210 C 
ENDBRANCH  21  25
BRANCH  22  27
HETATM   27  O   UNL     1     -39.316  51.328 -51.344  1.00  0.00    -0.353 OA
HETATM   28  C   UNL     1     -40.194  50.633 -50.467  1.00  0.00     0.210 C 
ENDBRANCH  22  27
ENDBRANCH   1  19
TORSDOF 6
ENDMDL
MODEL 3
REMARK VINA RESULT:      -7.5      3.114      4.028
REMARK  6 active torsions:
REMARK  status: ('A' for Active; 'I' for Inactive)
REMARK    1  A    between atoms: O_2  and  C_3 
REMARK    2  A    between atoms: C_4  and  O_5 
REMARK    3  A    between atoms: C_8  and  C_9 
REMARK    4  A    between atoms: C_13  and  C_14 
REMARK       I    between atoms: C_14  and  N_15 
REMARK    5  A    between atoms: N_15  and  C_16 
REMARK    6  A    between atoms: C_19  and  O_20 
ROOT
HETATM    1  C   UNL     1     -42.261  54.761 -53.969  1.00  0.00     0.063 A 
HETATM    2  N   UNL     1     -43.492  55.189 -53.541  1.00  0.00    -0.277 N 
HETATM    3  H   UNL     1     -43.998  54.880 -52.718  1.00  0.00     0.189 HD
HETATM    4  N   UNL     1     -44.077  56.096 -54.345  1.00  0.00    -0.169 NA
HETATM    5  C   UNL     1     -43.187  56.258 -55.348  1.00  0.00     0.147 A 
HETATM    6  C   UNL     1     -42.046  55.442 -55.150  1.00  0.00     0.071 A 
ENDROOT
BRANCH   5   7
HETATM    7  C   UNL     1     -43.445  57.172 -56.475  1.00  0.00     0.276 C 
HETATM    8  N   UNL     1     -42.285  57.483 -57.158  1.00  0.00    -0.320 N 
HETATM    9  H   UNL     1     -41.456  57.036 -56.773  1.00  0.00     0.169 HD
HETATM   10  O   UNL     1     -44.570  57.585 -56.730  1.00  0.00    -0.266 OA
BRANCH   8  11
HETATM   11  C   UNL     1     -42.140  58.325 -58.272  1.00  0.00     0.052 A 
HETATM   12  C   UNL     1     -41.983  59.709 -58.215  1.00  0.00     0.149 A 
HETATM   13  N   UNL     1     -41.845  60.506 -59.305  1.00  0.00    -0.235 NA
HETATM   14  C   UNL     1     -41.863  59.898 -60.508  1.00  0.00     0.163 A 
HETATM   15  C   UNL     1     -42.010  58.532 -60.673  1.00  0.00     0.060 A 
HETATM   16  C   UNL     1     -42.152  57.737 -59.537  1.00  0.00     0.035 A 
BRANCH  14  17
HETATM   17  O   UNL     1     -41.728  60.643 -61.663  1.00  0.00    -0.339 OA
HETATM   18  C   UNL     1     -41.304  61.979 -61.415  1.00  0.00     0.211 C 
ENDBRANCH  14  17
ENDBRANCH   8  11
ENDBRANCH   5   7
BRANCH   1  19
HETATM   19  C   UNL     1     -41.466  53.755 -53.271  1.00  0.00    -0.005 A 
HETATM   20  C   UNL     1     -40.719  52.801 -53.978  1.00  0.00     0.053 A 
HETATM   21  C   UNL     1     -39.937  51.856 -53.300  1.00  0.00     0.102 A 
HETATM   22  C   UNL     1     -39.883  51.875 -51.893  1.00  0.00     0.101 A 
HETATM   23  C   UNL     1     -40.652  52.804 -51.187  1.00  0.00     0.040 A 
HETATM   24  C   UNL     1     -41.438  53.735 -51.872  1.00  0.00     0.017 A 
BRANCH  21  25
HETATM   25  O   UNL     1     -39.169  50.902 -53.920  1.00  0.00    -0.353 OA
HETATM   26  C   UNL     1     -39.843  49.804 -54.518  1.00  0.00     0.210 C 
ENDBRANCH  21  25
BRANCH  22  27
HETATM   27  O   UNL     1     -39.086  50.930 -51.299  1.00  0.00    -0.353 OA
HETATM   28  C   UNL     1     -39.749  49.853 -50.647  1.00  0.00     0.210 C 
ENDBRANCH  22  27
ENDBRANCH   1  19
TORSDOF 6
ENDMDL
MODEL 4
REMARK VINA RESULT:      -7.5      2.945      3.532
REMARK  6 active torsions:
REMARK  status: ('A' for Active; 'I' for Inactive)
REMARK    1  A    between atoms: O_2  and  C_3 
REMARK    2  A    between atoms: C_4  and  O_5 
REMARK    3  A    between atoms: C_8  and  C_9 
REMARK    4  A    between atoms: C_13  and  C_14 
REMARK       I    between atoms: C_14  and  N_15 
REMARK    5  A    between atoms: N_15  and  C_16 
REMARK    6  A    between atoms: C_19  and  O_20 
ROOT
HETATM    1  C   UNL     1     -42.142  54.795 -54.245  1.00  0.00     0.063 A 
HETATM    2  N   UNL     1     -43.378  55.216 -53.822  1.00  0.00    -0.277 N 
HETATM    3  H   UNL     1     -43.877  54.918 -52.992  1.00  0.00     0.189 HD
HETATM    4  N   UNL     1     -43.975  56.101 -54.642  1.00  0.00    -0.169 NA
HETATM    5  C   UNL     1     -43.090  56.254 -55.651  1.00  0.00     0.147 A 
HETATM    6  C   UNL     1     -41.939  55.456 -55.440  1.00  0.00     0.071 A 
ENDROOT
BRANCH   5   7
HETATM    7  C   UNL     1     -43.362  57.142 -56.796  1.00  0.00     0.276 C 
HETATM    8  N   UNL     1     -42.199  57.519 -57.439  1.00  0.00    -0.320 N 
HETATM    9  H   UNL     1     -41.359  57.126 -57.020  1.00  0.00     0.169 HD
HETATM   10  O   UNL     1     -44.500  57.483 -57.095  1.00  0.00    -0.266 OA
BRANCH   8  11
HETATM   11  C   UNL     1     -42.066  58.360 -58.554  1.00  0.00     0.052 A 
HETATM   12  C   UNL     1     -41.979  57.930 -59.877  1.00  0.00     0.149 A 
HETATM   13  N   UNL     1     -41.848  58.761 -60.942  1.00  0.00    -0.235 NA
HETATM   14  C   UNL     1     -41.805  60.083 -60.680  1.00  0.00     0.163 A 
HETATM   15  C   UNL     1     -41.886  60.612 -59.404  1.00  0.00     0.060 A 
HETATM   16  C   UNL     1     -42.016  59.736 -58.327  1.00  0.00     0.035 A 
BRANCH  14  17
HETATM   17  O   UNL     1     -41.674  60.990 -61.712  1.00  0.00    -0.339 OA
HETATM   18  C   UNL     1     -41.202  62.262 -61.276  1.00  0.00     0.211 C 
ENDBRANCH  14  17
ENDBRANCH   8  11
ENDBRANCH   5   7
BRANCH   1  19
HETATM   19  C   UNL     1     -41.334  53.813 -53.530  1.00  0.00    -0.005 A 
HETATM   20  C   UNL     1     -41.130  53.909 -52.145  1.00  0.00     0.053 A 
HETATM   21  C   UNL     1     -40.374  52.947 -51.462  1.00  0.00     0.102 A 
HETATM   22  C   UNL     1     -39.830  51.857 -52.169  1.00  0.00     0.101 A 
HETATM   23  C   UNL     1     -40.006  51.777 -53.553  1.00  0.00     0.040 A 
HETATM   24  C   UNL     1     -40.751  52.749 -54.226  1.00  0.00     0.017 A 
BRANCH  21  25
HETATM   25  O   UNL     1     -40.142  52.965 -50.109  1.00  0.00    -0.353 OA
HETATM   26  C   UNL     1     -39.685  54.182 -49.538  1.00  0.00     0.210 C 
ENDBRANCH  21  25
BRANCH  22  27
HETATM   27  O   UNL     1     -39.115  50.947 -51.433  1.00  0.00    -0.353 OA
HETATM   28  C   UNL     1     -39.639  49.626 -51.367  1.00  0.00     0.210 C 
ENDBRANCH  22  27
ENDBRANCH   1  19
TORSDOF 6
ENDMDL
MODEL 5
REMARK VINA RESULT:      -7.1      1.506      1.743
REMARK  6 active torsions:
REMARK  status: ('A' for Active; 'I' for Inactive)
REMARK    1  A    between atoms: O_2  and  C_3 
REMARK    2  A    between atoms: C_4  and  O_5 
REMARK    3  A    between atoms: C_8  and  C_9 
REMARK    4  A    between atoms: C_13  and  C_14 
REMARK       I    between atoms: C_14  and  N_15 
REMARK    5  A    between atoms: N_15  and  C_16 
REMARK    6  A    between atoms: C_19  and  O_20 
ROOT
HETATM    1  C   UNL     1     -41.909  55.476 -55.380  1.00  0.00     0.063 A 
HETATM    2  N   UNL     1     -41.941  56.845 -55.316  1.00  0.00    -0.277 N 
HETATM    3  H   UNL     1     -41.615  57.433 -54.557  1.00  0.00     0.189 HD
HETATM    4  N   UNL     1     -42.503  57.440 -56.385  1.00  0.00    -0.169 NA
HETATM    5  C   UNL     1     -42.862  56.406 -57.176  1.00  0.00     0.147 A 
HETATM    6  C   UNL     1     -42.511  55.168 -56.583  1.00  0.00     0.071 A 
ENDROOT
BRANCH   5   7
HETATM    7  C   UNL     1     -43.540  56.614 -58.469  1.00  0.00     0.276 C 
HETATM    8  N   UNL     1     -44.856  57.000 -58.301  1.00  0.00    -0.320 N 
HETATM    9  H   UNL     1     -45.135  57.075 -57.325  1.00  0.00     0.169 HD
HETATM   10  O   UNL     1     -42.964  56.443 -59.537  1.00  0.00    -0.266 OA
BRANCH   8  11
HETATM   11  C   UNL     1     -45.807  57.275 -59.296  1.00  0.00     0.052 A 
HETATM   12  C   UNL     1     -46.203  58.550 -59.694  1.00  0.00     0.149 A 
HETATM   13  N   UNL     1     -47.127  58.795 -60.659  1.00  0.00    -0.235 NA
HETATM   14  C   UNL     1     -47.680  57.721 -61.257  1.00  0.00     0.163 A 
HETATM   15  C   UNL     1     -47.352  56.415 -60.937  1.00  0.00     0.060 A 
HETATM   16  C   UNL     1     -46.404  56.191 -59.941  1.00  0.00     0.035 A 
BRANCH  14  17
HETATM   17  O   UNL     1     -48.626  57.890 -62.248  1.00  0.00    -0.339 OA
HETATM   18  C   UNL     1     -48.916  59.259 -62.510  1.00  0.00     0.211 C 
ENDBRANCH  14  17
ENDBRANCH   8  11
ENDBRANCH   5   7
BRANCH   1  19
HETATM   19  C   UNL     1     -41.378  54.629 -54.316  1.00  0.00    -0.005 A 
HETATM   20  C   UNL     1     -41.464  55.013 -52.970  1.00  0.00     0.053 A 
HETATM   21  C   UNL     1     -40.976  54.181 -51.953  1.00  0.00     0.102 A 
HETATM   22  C   UNL     1     -40.411  52.934 -52.283  1.00  0.00     0.101 A 
HETATM   23  C   UNL     1     -40.296  52.564 -53.626  1.00  0.00     0.040 A 
HETATM   24  C   UNL     1     -40.774  53.407 -54.633  1.00  0.00     0.017 A 
BRANCH  21  25
HETATM   25  O   UNL     1     -41.036  54.480 -50.615  1.00  0.00    -0.353 OA
HETATM   26  C   UNL     1     -40.957  55.849 -50.245  1.00  0.00     0.210 C 
ENDBRANCH  21  25
BRANCH  22  27
HETATM   27  O   UNL     1     -39.968  52.167 -51.236  1.00  0.00    -0.353 OA
HETATM   28  C   UNL     1     -39.473  50.872 -51.557  1.00  0.00     0.210 C 
ENDBRANCH  22  27
ENDBRANCH   1  19
TORSDOF 6
ENDMDL
MODEL 6
REMARK VINA RESULT:      -6.7      3.354      9.995
REMARK  6 active torsions:
REMARK  status: ('A' for Active; 'I' for Inactive)
REMARK    1  A    between atoms: O_2  and  C_3 
REMARK    2  A    between atoms: C_4  and  O_5 
REMARK    3  A    between atoms: C_8  and  C_9 
REMARK    4  A    between atoms: C_13  and  C_14 
REMARK       I    between atoms: C_14  and  N_15 
REMARK    5  A    between atoms: N_15  and  C_16 
REMARK    6  A    between atoms: C_19  and  O_20 
ROOT
HETATM    1  C   UNL     1     -42.411  57.588 -57.920  1.00  0.00     0.063 A 
HETATM    2  N   UNL     1     -43.134  56.579 -58.504  1.00  0.00    -0.277 N 
HETATM    3  H   UNL     1     -43.572  56.588 -59.419  1.00  0.00     0.189 HD
HETATM    4  N   UNL     1     -43.283  55.484 -57.737  1.00  0.00    -0.169 NA
HETATM    5  C   UNL     1     -42.635  55.799 -56.595  1.00  0.00     0.147 A 
HETATM    6  C   UNL     1     -42.082  57.101 -56.670  1.00  0.00     0.071 A 
ENDROOT
BRANCH   5   7
HETATM    7  C   UNL     1     -42.567  54.866 -55.456  1.00  0.00     0.276 C 
HETATM    8  N   UNL     1     -41.262  54.597 -55.092  1.00  0.00    -0.320 N 
HETATM    9  H   UNL     1     -40.574  55.080 -55.664  1.00  0.00     0.169 HD
HETATM   10  O   UNL     1     -43.576  54.406 -54.935  1.00  0.00    -0.266 OA
BRANCH   8  11
HETATM   11  C   UNL     1     -40.810  53.751 -54.066  1.00  0.00     0.052 A 
HETATM   12  C   UNL     1     -40.769  54.084 -52.714  1.00  0.00     0.149 A 
HETATM   13  N   UNL     1     -40.328  53.251 -51.737  1.00  0.00    -0.235 NA
HETATM   14  C   UNL     1     -39.909  52.029 -52.123  1.00  0.00     0.163 A 
HETATM   15  C   UNL     1     -39.912  51.601 -53.439  1.00  0.00     0.060 A 
HETATM   16  C   UNL     1     -40.368  52.477 -54.423  1.00  0.00     0.035 A 
BRANCH  14  17
HETATM   17  O   UNL     1     -39.446  51.127 -51.187  1.00  0.00    -0.339 OA
HETATM   18  C   UNL     1     -39.566  49.774 -51.614  1.00  0.00     0.211 C 
ENDBRANCH  14  17
ENDBRANCH   8  11
ENDBRANCH   5   7
BRANCH   1  19
HETATM   19  C   UNL     1     -42.157  58.876 -58.557  1.00  0.00    -0.005 A 
HETATM   20  C   UNL     1     -42.414  59.075 -59.921  1.00  0.00     0.053 A 
HETATM   21  C   UNL     1     -42.193  60.323 -60.519  1.00  0.00     0.102 A 
HETATM   22  C   UNL     1     -41.728  61.398 -59.737  1.00  0.00     0.101 A 
HETATM   23  C   UNL     1     -41.442  61.193 -58.384  1.00  0.00     0.040 A 
HETATM   24  C   UNL     1     -41.654  59.941 -57.801  1.00  0.00     0.017 A 
BRANCH  21  25
HETATM   25  O   UNL     1     -42.432  60.599 -61.842  1.00  0.00    -0.353 OA
HETATM   26  C   UNL     1     -43.786  60.695 -62.258  1.00  0.00     0.210 C 
ENDBRANCH  21  25
BRANCH  22  27
HETATM   27  O   UNL     1     -41.549  62.594 -60.386  1.00  0.00    -0.353 OA
HETATM   28  C   UNL     1     -40.211  63.062 -60.504  1.00  0.00     0.210 C 
ENDBRANCH  22  27
ENDBRANCH   1  19
TORSDOF 6
ENDMDL
MODEL 7
REMARK VINA RESULT:      -6.7      3.247      9.662
REMARK  6 active torsions:
REMARK  status: ('A' for Active; 'I' for Inactive)
REMARK    1  A    between atoms: O_2  and  C_3 
REMARK    2  A    between atoms: C_4  and  O_5 
REMARK    3  A    between atoms: C_8  and  C_9 
REMARK    4  A    between atoms: C_13  and  C_14 
REMARK       I    between atoms: C_14  and  N_15 
REMARK    5  A    between atoms: N_15  and  C_16 
REMARK    6  A    between atoms: C_19  and  O_20 
ROOT
HETATM    1  C   UNL     1     -42.881  57.551 -56.851  1.00  0.00     0.063 A 
HETATM    2  N   UNL     1     -43.885  57.857 -55.967  1.00  0.00    -0.277 N 
HETATM    3  H   UNL     1     -44.531  58.637 -56.017  1.00  0.00     0.189 HD
HETATM    4  N   UNL     1     -43.973  57.024 -54.914  1.00  0.00    -0.169 NA
HETATM    5  C   UNL     1     -42.972  56.141 -55.117  1.00  0.00     0.147 A 
HETATM    6  C   UNL     1     -42.269  56.438 -56.310  1.00  0.00     0.071 A 
ENDROOT
BRANCH   5   7
HETATM    7  C   UNL     1     -42.697  55.045 -54.170  1.00  0.00     0.276 C 
HETATM    8  N   UNL     1     -41.389  54.610 -54.256  1.00  0.00    -0.320 N 
HETATM    9  H   UNL     1     -40.840  55.111 -54.950  1.00  0.00     0.169 HD
HETATM   10  O   UNL     1     -43.562  54.603 -53.423  1.00  0.00    -0.266 OA
BRANCH   8  11
HETATM   11  C   UNL     1     -40.773  53.584 -53.523  1.00  0.00     0.052 A 
HETATM   12  C   UNL     1     -40.441  53.653 -52.171  1.00  0.00     0.149 A 
HETATM   13  N   UNL     1     -39.844  52.648 -51.481  1.00  0.00    -0.235 NA
HETATM   14  C   UNL     1     -39.565  51.521 -52.166  1.00  0.00     0.163 A 
HETATM   15  C   UNL     1     -39.856  51.351 -53.509  1.00  0.00     0.060 A 
HETATM   16  C   UNL     1     -40.466  52.399 -54.195  1.00  0.00     0.035 A 
BRANCH  14  17
HETATM   17  O   UNL     1     -38.957  50.456 -51.532  1.00  0.00    -0.339 OA
HETATM   18  C   UNL     1     -39.865  49.685 -50.752  1.00  0.00     0.211 C 
ENDBRANCH  14  17
ENDBRANCH   8  11
ENDBRANCH   5   7
BRANCH   1  19
HETATM   19  C   UNL     1     -42.583  58.341 -58.042  1.00  0.00    -0.005 A 
HETATM   20  C   UNL     1     -42.298  59.711 -57.953  1.00  0.00     0.053 A 
HETATM   21  C   UNL     1     -41.987  60.455 -59.098  1.00  0.00     0.102 A 
HETATM   22  C   UNL     1     -41.937  59.817 -60.353  1.00  0.00     0.101 A 
HETATM   23  C   UNL     1     -42.251  58.459 -60.447  1.00  0.00     0.040 A 
HETATM   24  C   UNL     1     -42.573  57.729 -59.300  1.00  0.00     0.017 A 
BRANCH  21  25
HETATM   25  O   UNL     1     -41.684  61.795 -59.091  1.00  0.00    -0.353 OA
HETATM   26  C   UNL     1     -40.434  62.181 -58.540  1.00  0.00     0.210 C 
ENDBRANCH  21  25
BRANCH  22  27
HETATM   27  O   UNL     1     -41.611  60.605 -61.427  1.00  0.00    -0.353 OA
HETATM   28  C   UNL     1     -42.650  60.875 -62.360  1.00  0.00     0.210 C 
ENDBRANCH  22  27
ENDBRANCH   1  19
TORSDOF 6
ENDMDL
MODEL 8
REMARK VINA RESULT:      -6.6      3.750      9.912
REMARK  6 active torsions:
REMARK  status: ('A' for Active; 'I' for Inactive)
REMARK    1  A    between atoms: O_2  and  C_3 
REMARK    2  A    between atoms: C_4  and  O_5 
REMARK    3  A    between atoms: C_8  and  C_9 
REMARK    4  A    between atoms: C_13  and  C_14 
REMARK       I    between atoms: C_14  and  N_15 
REMARK    5  A    between atoms: N_15  and  C_16 
REMARK    6  A    between atoms: C_19  and  O_20 
ROOT
HETATM    1  C   UNL     1     -42.296  58.026 -58.506  1.00  0.00     0.063 A 
HETATM    2  N   UNL     1     -42.858  56.903 -59.059  1.00  0.00    -0.277 N 
HETATM    3  H   UNL     1     -43.168  56.779 -60.016  1.00  0.00     0.189 HD
HETATM    4  N   UNL     1     -43.028  55.883 -58.197  1.00  0.00    -0.169 NA
HETATM    5  C   UNL     1     -42.565  56.371 -57.026  1.00  0.00     0.147 A 
HETATM    6  C   UNL     1     -42.104  57.702 -57.178  1.00  0.00     0.071 A 
ENDROOT
BRANCH   5   7
HETATM    7  C   UNL     1     -42.582  55.570 -55.789  1.00  0.00     0.276 C 
HETATM    8  N   UNL     1     -41.313  55.170 -55.419  1.00  0.00    -0.320 N 
HETATM    9  H   UNL     1     -40.586  55.490 -56.055  1.00  0.00     0.169 HD
HETATM   10  O   UNL     1     -43.625  55.310 -55.200  1.00  0.00    -0.266 OA
BRANCH   8  11
HETATM   11  C   UNL     1     -40.943  54.391 -54.311  1.00  0.00     0.052 A 
HETATM   12  C   UNL     1     -40.958  54.825 -52.987  1.00  0.00     0.149 A 
HETATM   13  N   UNL     1     -40.595  54.055 -51.929  1.00  0.00    -0.235 NA
HETATM   14  C   UNL     1     -40.200  52.795 -52.201  1.00  0.00     0.163 A 
HETATM   15  C   UNL     1     -40.153  52.268 -53.480  1.00  0.00     0.060 A 
HETATM   16  C   UNL     1     -40.528  53.080 -54.548  1.00  0.00     0.035 A 
BRANCH  14  17
HETATM   17  O   UNL     1     -39.816  51.953 -51.177  1.00  0.00    -0.339 OA
HETATM   18  C   UNL     1     -39.483  50.644 -51.631  1.00  0.00     0.211 C 
ENDBRANCH  14  17
ENDBRANCH   8  11
ENDBRANCH   5   7
BRANCH   1  19
HETATM   19  C   UNL     1     -42.054  59.259 -59.249  1.00  0.00    -0.005 A 
HETATM   20  C   UNL     1     -41.705  60.447 -58.590  1.00  0.00     0.053 A 
HETATM   21  C   UNL     1     -41.448  61.620 -59.312  1.00  0.00     0.102 A 
HETATM   22  C   UNL     1     -41.520  61.602 -60.719  1.00  0.00     0.101 A 
HETATM   23  C   UNL     1     -41.898  60.428 -61.374  1.00  0.00     0.040 A 
HETATM   24  C   UNL     1     -42.165  59.267 -60.643  1.00  0.00     0.017 A 
BRANCH  21  25
HETATM   25  O   UNL     1     -41.088  62.815 -58.741  1.00  0.00    -0.353 OA
HETATM   26  C   UNL     1     -42.063  63.487 -57.957  1.00  0.00     0.210 C 
ENDBRANCH  21  25
BRANCH  22  27
HETATM   27  O   UNL     1     -41.241  62.783 -61.360  1.00  0.00    -0.353 OA
HETATM   28  C   UNL     1     -40.048  62.824 -62.133  1.00  0.00     0.210 C 
ENDBRANCH  22  27
ENDBRANCH   1  19
TORSDOF 6
ENDMDL
MODEL 9
REMARK VINA RESULT:      -6.5      6.229     10.025
REMARK  6 active torsions:
REMARK  status: ('A' for Active; 'I' for Inactive)
REMARK    1  A    between atoms: O_2  and  C_3 
REMARK    2  A    between atoms: C_4  and  O_5 
REMARK    3  A    between atoms: C_8  and  C_9 
REMARK    4  A    between atoms: C_13  and  C_14 
REMARK       I    between atoms: C_14  and  N_15 
REMARK    5  A    between atoms: N_15  and  C_16 
REMARK    6  A    between atoms: C_19  and  O_20 
ROOT
HETATM    1  C   UNL     1     -44.337  58.847 -51.081  1.00  0.00     0.063 A 
HETATM    2  N   UNL     1     -42.980  58.960 -50.921  1.00  0.00    -0.277 N 
HETATM    3  H   UNL     1     -42.448  59.810 -50.768  1.00  0.00     0.189 HD
HETATM    4  N   UNL     1     -42.309  57.796 -51.014  1.00  0.00    -0.169 NA
HETATM    5  C   UNL     1     -43.276  56.886 -51.257  1.00  0.00     0.147 A 
HETATM    6  C   UNL     1     -44.551  57.502 -51.308  1.00  0.00     0.071 A 
ENDROOT
BRANCH   5   7
HETATM    7  C   UNL     1     -42.969  55.457 -51.447  1.00  0.00     0.276 C 
HETATM    8  N   UNL     1     -41.773  55.274 -52.114  1.00  0.00    -0.320 N 
HETATM    9  H   UNL     1     -41.309  56.145 -52.360  1.00  0.00     0.169 HD
HETATM   10  O   UNL     1     -43.722  54.575 -51.051  1.00  0.00    -0.266 OA
BRANCH   8  11
HETATM   11  C   UNL     1     -41.167  54.062 -52.479  1.00  0.00     0.052 A 
HETATM   12  C   UNL     1     -41.288  53.449 -53.725  1.00  0.00     0.149 A 
HETATM   13  N   UNL     1     -40.693  52.275 -54.057  1.00  0.00    -0.235 NA
HETATM   14  C   UNL     1     -39.942  51.683 -53.107  1.00  0.00     0.163 A 
HETATM   15  C   UNL     1     -39.757  52.210 -51.841  1.00  0.00     0.060 A 
HETATM   16  C   UNL     1     -40.380  53.415 -51.524  1.00  0.00     0.035 A 
BRANCH  14  17
HETATM   17  O   UNL     1     -39.307  50.486 -53.371  1.00  0.00    -0.339 OA
HETATM   18  C   UNL     1     -39.829  49.822 -54.518  1.00  0.00     0.211 C 
ENDBRANCH  14  17
ENDBRANCH   8  11
ENDBRANCH   5   7
BRANCH   1  19
HETATM   19  C   UNL     1     -45.253  59.983 -51.053  1.00  0.00    -0.005 A 
HETATM   20  C   UNL     1     -45.303  60.849 -49.951  1.00  0.00     0.053 A 
HETATM   21  C   UNL     1     -46.166  61.953 -49.944  1.00  0.00     0.102 A 
HETATM   22  C   UNL     1     -46.977  62.211 -51.066  1.00  0.00     0.101 A 
HETATM   23  C   UNL     1     -46.951  61.332 -52.152  1.00  0.00     0.040 A 
HETATM   24  C   UNL     1     -46.096  60.227 -52.143  1.00  0.00     0.017 A 
BRANCH  21  25
HETATM   25  O   UNL     1     -46.262  62.852 -48.911  1.00  0.00    -0.353 OA
HETATM   26  C   UNL     1     -47.000  62.456 -47.764  1.00  0.00     0.210 C 
ENDBRANCH  21  25
BRANCH  22  27
HETATM   27  O   UNL     1     -47.785  63.318 -50.995  1.00  0.00    -0.353 OA
HETATM   28  C   UNL     1     -48.683  63.523 -52.079  1.00  0.00     0.210 C 
ENDBRANCH  22  27
ENDBRANCH   1  19
TORSDOF 6
ENDMDL
MODEL 10
REMARK VINA RESULT:      -6.5      2.746     10.257
REMARK  6 active torsions:
REMARK  status: ('A' for Active; 'I' for Inactive)
REMARK    1  A    between atoms: O_2  and  C_3 
REMARK    2  A    between atoms: C_4  and  O_5 
REMARK    3  A    between atoms: C_8  and  C_9 
REMARK    4  A    between atoms: C_13  and  C_14 
REMARK       I    between atoms: C_14  and  N_15 
REMARK    5  A    between atoms: N_15  and  C_16 
REMARK    6  A    between atoms: C_19  and  O_20 
ROOT
HETATM    1  C   UNL     1     -43.368  56.825 -57.564  1.00  0.00     0.063 A 
HETATM    2  N   UNL     1     -43.448  55.456 -57.542  1.00  0.00    -0.277 N 
HETATM    3  H   UNL     1     -43.932  54.858 -58.202  1.00  0.00     0.189 HD
HETATM    4  N   UNL     1     -42.828  54.879 -56.495  1.00  0.00    -0.169 NA
HETATM    5  C   UNL     1     -42.331  55.924 -55.800  1.00  0.00     0.147 A 
HETATM    6  C   UNL     1     -42.649  57.151 -56.432  1.00  0.00     0.071 A 
ENDROOT
BRANCH   5   7
HETATM    7  C   UNL     1     -41.578  55.737 -54.546  1.00  0.00     0.276 C 
HETATM    8  N   UNL     1     -42.409  55.738 -53.444  1.00  0.00    -0.320 N 
HETATM    9  H   UNL     1     -43.391  55.867 -53.677  1.00  0.00     0.169 HD
HETATM   10  O   UNL     1     -40.359  55.609 -54.537  1.00  0.00    -0.266 OA
BRANCH   8  11
HETATM   11  C   UNL     1     -42.051  55.597 -52.094  1.00  0.00     0.052 A 
HETATM   12  C   UNL     1     -41.507  56.605 -51.300  1.00  0.00     0.149 A 
HETATM   13  N   UNL     1     -41.166  56.447 -49.995  1.00  0.00    -0.235 NA
HETATM   14  C   UNL     1     -41.377  55.230 -49.454  1.00  0.00     0.163 A 
HETATM   15  C   UNL     1     -41.914  54.165 -50.156  1.00  0.00     0.060 A 
HETATM   16  C   UNL     1     -42.253  54.353 -51.495  1.00  0.00     0.035 A 
BRANCH  14  17
HETATM   17  O   UNL     1     -41.055  54.994 -48.134  1.00  0.00    -0.339 OA
HETATM   18  C   UNL     1     -40.250  53.832 -47.959  1.00  0.00     0.211 C 
ENDBRANCH  14  17
ENDBRANCH   8  11
ENDBRANCH   5   7
BRANCH   1  19
HETATM   19  C   UNL     1     -43.998  57.656 -58.586  1.00  0.00    -0.005 A 
HETATM   20  C   UNL     1     -45.224  57.293 -59.163  1.00  0.00     0.053 A 
HETATM   21  C   UNL     1     -45.835  58.110 -60.124  1.00  0.00     0.102 A 
HETATM   22  C   UNL     1     -45.223  59.321 -60.501  1.00  0.00     0.101 A 
HETATM   23  C   UNL     1     -43.987  59.668 -59.950  1.00  0.00     0.040 A 
HETATM   24  C   UNL     1     -43.380  58.840 -59.002  1.00  0.00     0.017 A 
BRANCH  21  25
HETATM   25  O   UNL     1     -47.038  57.830 -60.723  1.00  0.00    -0.353 OA
HETATM   26  C   UNL     1     -47.357  56.465 -60.949  1.00  0.00     0.210 C 
ENDBRANCH  21  25
BRANCH  22  27
HETATM   27  O   UNL     1     -45.885  60.076 -61.435  1.00  0.00    -0.353 OA
HETATM   28  C   UNL     1     -45.922  61.480 -61.212  1.00  0.00     0.210 C 
ENDBRANCH  22  27
ENDBRANCH   1  19
TORSDOF 6
ENDMDL
