MODEL 1
REMARK VINA RESULT:      -7.9      0.000      0.000
REMARK  8 active torsions:
REMARK  status: ('A' for Active; 'I' for Inactive)
REMARK    1  A    between atoms: C_2  and  O_3 
REMARK    2  A    between atoms: O_3  and  C_4 
REMARK    3  A    between atoms: C_5  and  O_6 
REMARK    4  A    between atoms: O_6  and  C_7 
REMARK    5  A    between atoms: C_10  and  C_11 
REMARK    6  A    between atoms: C_11  and  N_12 
REMARK    7  A    between atoms: N_12  and  C_13 
REMARK    8  A    between atoms: C_20  and  C_21 
REMARK       I    between atoms: C_21  and  N_22 
ROOT
HETATM    1  C   UNL     1     -42.499  56.323 -56.689  1.00  0.00     0.009 A 
HETATM    2  C   UNL     1     -43.149  55.698 -57.770  1.00  0.00     0.039 A 
HETATM    3  C   UNL     1     -44.038  56.426 -58.589  1.00  0.00     0.030 A 
HETATM    4  C   UNL     1     -44.285  57.757 -58.285  1.00  0.00     0.063 A 
HETATM    5  N   UNL     1     -45.175  58.185 -59.229  1.00  0.00    -0.277 N 
HETATM    6  H   UNL     1     -45.583  59.109 -59.312  1.00  0.00     0.189 HD
HETATM    7  N   UNL     1     -45.529  57.250 -60.126  1.00  0.00    -0.168 NA
HETATM    8  C   UNL     1     -44.834  56.154 -59.741  1.00  0.00     0.156 A 
HETATM    9  C   UNL     1     -43.696  58.407 -57.200  1.00  0.00     0.034 A 
HETATM   10  C   UNL     1     -42.815  57.658 -56.407  1.00  0.00     0.026 A 
ENDROOT
BRANCH   1  11
HETATM   11  N   UNL     1     -41.682  55.536 -55.868  1.00  0.00    -0.289 NA
HETATM   12  H   UNL     1     -41.316  56.061 -55.075  1.00  0.00     0.128 HD
BRANCH  11  13
HETATM   13  C   UNL     1     -42.109  54.196 -55.497  1.00  0.00     0.131 C 
BRANCH  13  14
HETATM   14  C   UNL     1     -41.669  53.899 -54.082  1.00  0.00    -0.042 A 
HETATM   15  C   UNL     1     -40.670  52.947 -53.823  1.00  0.00     0.048 A 
HETATM   16  C   UNL     1     -40.255  52.684 -52.511  1.00  0.00     0.102 A 
HETATM   17  C   UNL     1     -40.843  53.383 -51.439  1.00  0.00     0.102 A 
HETATM   18  C   UNL     1     -41.855  54.314 -51.694  1.00  0.00     0.040 A 
HETATM   19  C   UNL     1     -42.264  54.568 -53.005  1.00  0.00     0.011 A 
BRANCH  16  20
HETATM   20  O   UNL     1     -39.276  51.780 -52.175  1.00  0.00    -0.349 OA
BRANCH  20  21
HETATM   21  C   UNL     1     -39.553  50.395 -52.357  1.00  0.00     0.171 C 
HETATM   22  C   UNL     1     -39.674  49.758 -50.985  1.00  0.00     0.034 C 
ENDBRANCH  20  21
ENDBRANCH  16  20
BRANCH  17  23
HETATM   23  O   UNL     1     -40.372  53.075 -50.186  1.00  0.00    -0.349 OA
BRANCH  23  24
HETATM   24  C   UNL     1     -39.758  54.119 -49.436  1.00  0.00     0.171 C 
HETATM   25  C   UNL     1     -40.451  54.195 -48.087  1.00  0.00     0.034 C 
ENDBRANCH  23  24
ENDBRANCH  17  23
ENDBRANCH  13  14
ENDBRANCH  11  13
ENDBRANCH   1  11
BRANCH   8  26
HETATM   26  C   UNL     1     -44.940  54.885 -60.473  1.00  0.00     0.270 C 
HETATM   27  N   UNL     1     -45.095  53.788 -59.669  1.00  0.00    -0.365 N 
HETATM   28  H   UNL     1     -45.123  53.924 -58.665  1.00  0.00     0.159 HD
HETATM   29  H   UNL     1     -45.176  52.872 -60.080  1.00  0.00     0.159 HD
HETATM   30  O   UNL     1     -44.901  54.779 -61.695  1.00  0.00    -0.266 OA
ENDBRANCH   8  26
TORSDOF 8
ENDMDL
MODEL 2
REMARK VINA RESULT:      -7.8      0.669      2.402
REMARK  8 active torsions:
REMARK  status: ('A' for Active; 'I' for Inactive)
REMARK    1  A    between atoms: C_2  and  O_3 
REMARK    2  A    between atoms: O_3  and  C_4 
REMARK    3  A    between atoms: C_5  and  O_6 
REMARK    4  A    between atoms: O_6  and  C_7 
REMARK    5  A    between atoms: C_10  and  C_11 
REMARK    6  A    between atoms: C_11  and  N_12 
REMARK    7  A    between atoms: N_12  and  C_13 
REMARK    8  A    between atoms: C_20  and  C_21 
REMARK       I    between atoms: C_21  and  N_22 
ROOT
HETATM    1  C   UNL     1     -42.579  56.191 -56.847  1.00  0.00     0.009 A 
HETATM    2  C   UNL     1     -43.217  55.592 -57.949  1.00  0.00     0.039 A 
HETATM    3  C   UNL     1     -44.082  56.343 -58.772  1.00  0.00     0.030 A 
HETATM    4  C   UNL     1     -44.318  57.673 -58.451  1.00  0.00     0.063 A 
HETATM    5  N   UNL     1     -45.186  58.126 -59.404  1.00  0.00    -0.277 N 
HETATM    6  H   UNL     1     -45.582  59.056 -59.480  1.00  0.00     0.189 HD
HETATM    7  N   UNL     1     -45.535  57.209 -60.322  1.00  0.00    -0.168 NA
HETATM    8  C   UNL     1     -44.861  56.099 -59.942  1.00  0.00     0.156 A 
HETATM    9  C   UNL     1     -43.741  58.298 -57.346  1.00  0.00     0.034 A 
HETATM   10  C   UNL     1     -42.883  57.526 -56.549  1.00  0.00     0.026 A 
ENDROOT
BRANCH   1  11
HETATM   11  N   UNL     1     -41.786  55.382 -56.024  1.00  0.00    -0.289 NA
HETATM   12  H   UNL     1     -40.844  55.265 -56.394  1.00  0.00     0.128 HD
BRANCH  11  13
HETATM   13  C   UNL     1     -41.794  55.590 -54.584  1.00  0.00     0.131 C 
BRANCH  13  14
HETATM   14  C   UNL     1     -41.079  54.446 -53.903  1.00  0.00    -0.042 A 
HETATM   15  C   UNL     1     -41.044  54.349 -52.504  1.00  0.00     0.048 A 
HETATM   16  C   UNL     1     -40.392  53.280 -51.876  1.00  0.00     0.102 A 
HETATM   17  C   UNL     1     -39.766  52.289 -52.657  1.00  0.00     0.102 A 
HETATM   18  C   UNL     1     -39.781  52.397 -54.051  1.00  0.00     0.040 A 
HETATM   19  C   UNL     1     -40.431  53.468 -54.668  1.00  0.00     0.011 A 
BRANCH  16  20
HETATM   20  O   UNL     1     -40.323  53.105 -50.515  1.00  0.00    -0.349 OA
BRANCH  20  21
HETATM   21  C   UNL     1     -41.054  54.003 -49.687  1.00  0.00     0.171 C 
HETATM   22  C   UNL     1     -40.305  54.145 -48.375  1.00  0.00     0.034 C 
ENDBRANCH  20  21
ENDBRANCH  16  20
BRANCH  17  23
HETATM   23  O   UNL     1     -39.160  51.268 -51.966  1.00  0.00    -0.349 OA
BRANCH  23  24
HETATM   24  C   UNL     1     -39.712  49.961 -52.096  1.00  0.00     0.171 C 
HETATM   25  C   UNL     1     -39.981  49.427 -50.701  1.00  0.00     0.034 C 
ENDBRANCH  23  24
ENDBRANCH  17  23
ENDBRANCH  13  14
ENDBRANCH  11  13
ENDBRANCH   1  11
BRANCH   8  26
HETATM   26  C   UNL     1     -44.969  54.843 -60.695  1.00  0.00     0.270 C 
HETATM   27  N   UNL     1     -45.158  53.737 -59.912  1.00  0.00    -0.365 N 
HETATM   28  H   UNL     1     -45.205  53.857 -58.906  1.00  0.00     0.159 HD
HETATM   29  H   UNL     1     -45.242  52.828 -60.338  1.00  0.00     0.159 HD
HETATM   30  O   UNL     1     -44.904  54.754 -61.917  1.00  0.00    -0.266 OA
ENDBRANCH   8  26
TORSDOF 8
ENDMDL
MODEL 3
REMARK VINA RESULT:      -7.6      2.978      9.201
REMARK  8 active torsions:
REMARK  status: ('A' for Active; 'I' for Inactive)
REMARK    1  A    between atoms: C_2  and  O_3 
REMARK    2  A    between atoms: O_3  and  C_4 
REMARK    3  A    between atoms: C_5  and  O_6 
REMARK    4  A    between atoms: O_6  and  C_7 
REMARK    5  A    between atoms: C_10  and  C_11 
REMARK    6  A    between atoms: C_11  and  N_12 
REMARK    7  A    between atoms: N_12  and  C_13 
REMARK    8  A    between atoms: C_20  and  C_21 
REMARK       I    between atoms: C_21  and  N_22 
ROOT
HETATM    1  C   UNL     1     -41.156  54.350 -54.540  1.00  0.00     0.009 A 
HETATM    2  C   UNL     1     -40.696  53.031 -54.366  1.00  0.00     0.039 A 
HETATM    3  C   UNL     1     -40.332  52.563 -53.086  1.00  0.00     0.030 A 
HETATM    4  C   UNL     1     -40.401  53.439 -52.011  1.00  0.00     0.063 A 
HETATM    5  N   UNL     1     -39.985  52.717 -50.929  1.00  0.00    -0.277 N 
HETATM    6  H   UNL     1     -39.903  53.041 -49.971  1.00  0.00     0.189 HD
HETATM    7  N   UNL     1     -39.654  51.444 -51.201  1.00  0.00    -0.168 NA
HETATM    8  C   UNL     1     -39.861  51.335 -52.533  1.00  0.00     0.156 A 
HETATM    9  C   UNL     1     -40.811  54.766 -52.142  1.00  0.00     0.034 A 
HETATM   10  C   UNL     1     -41.170  55.200 -53.427  1.00  0.00     0.026 A 
ENDROOT
BRANCH   1  11
HETATM   11  N   UNL     1     -41.437  54.783 -55.842  1.00  0.00    -0.289 NA
HETATM   12  H   UNL     1     -40.874  54.296 -56.538  1.00  0.00     0.128 HD
BRANCH  11  13
HETATM   13  C   UNL     1     -42.819  54.949 -56.263  1.00  0.00     0.131 C 
BRANCH  13  14
HETATM   14  C   UNL     1     -42.885  55.938 -57.404  1.00  0.00    -0.042 A 
HETATM   15  C   UNL     1     -43.408  55.564 -58.652  1.00  0.00     0.048 A 
HETATM   16  C   UNL     1     -43.479  56.486 -59.704  1.00  0.00     0.102 A 
HETATM   17  C   UNL     1     -43.024  57.805 -59.508  1.00  0.00     0.102 A 
HETATM   18  C   UNL     1     -42.481  58.172 -58.273  1.00  0.00     0.040 A 
HETATM   19  C   UNL     1     -42.411  57.244 -57.231  1.00  0.00     0.011 A 
BRANCH  16  20
HETATM   20  O   UNL     1     -43.989  56.205 -60.948  1.00  0.00    -0.349 OA
BRANCH  20  21
HETATM   21  C   UNL     1     -45.084  55.299 -61.034  1.00  0.00     0.171 C 
HETATM   22  C   UNL     1     -46.357  56.074 -60.746  1.00  0.00     0.034 C 
ENDBRANCH  20  21
ENDBRANCH  16  20
BRANCH  17  23
HETATM   23  O   UNL     1     -43.140  58.651 -60.585  1.00  0.00    -0.349 OA
BRANCH  23  24
HETATM   24  C   UNL     1     -42.007  59.443 -60.928  1.00  0.00     0.171 C 
HETATM   25  C   UNL     1     -42.484  60.585 -61.807  1.00  0.00     0.034 C 
ENDBRANCH  23  24
ENDBRANCH  17  23
ENDBRANCH  13  14
ENDBRANCH  11  13
ENDBRANCH   1  11
BRANCH   8  26
HETATM   26  C   UNL     1     -39.611  50.075 -53.245  1.00  0.00     0.270 C 
HETATM   27  N   UNL     1     -39.343  49.013 -52.425  1.00  0.00    -0.365 N 
HETATM   28  H   UNL     1     -39.335  49.166 -51.422  1.00  0.00     0.159 HD
HETATM   29  H   UNL     1     -39.157  48.106 -52.821  1.00  0.00     0.159 HD
HETATM   30  O   UNL     1     -39.634  49.947 -54.466  1.00  0.00    -0.266 OA
ENDBRANCH   8  26
TORSDOF 8
ENDMDL
MODEL 4
REMARK VINA RESULT:      -7.6      4.165      6.273
REMARK  8 active torsions:
REMARK  status: ('A' for Active; 'I' for Inactive)
REMARK    1  A    between atoms: C_2  and  O_3 
REMARK    2  A    between atoms: O_3  and  C_4 
REMARK    3  A    between atoms: C_5  and  O_6 
REMARK    4  A    between atoms: O_6  and  C_7 
REMARK    5  A    between atoms: C_10  and  C_11 
REMARK    6  A    between atoms: C_11  and  N_12 
REMARK    7  A    between atoms: N_12  and  C_13 
REMARK    8  A    between atoms: C_20  and  C_21 
REMARK       I    between atoms: C_21  and  N_22 
ROOT
HETATM    1  C   UNL     1     -42.403  57.416 -53.474  1.00  0.00     0.009 A 
HETATM    2  C   UNL     1     -43.475  57.927 -52.719  1.00  0.00     0.039 A 
HETATM    3  C   UNL     1     -43.269  58.976 -51.798  1.00  0.00     0.030 A 
HETATM    4  C   UNL     1     -41.982  59.467 -51.627  1.00  0.00     0.063 A 
HETATM    5  N   UNL     1     -42.092  60.449 -50.684  1.00  0.00    -0.277 N 
HETATM    6  H   UNL     1     -41.347  61.023 -50.306  1.00  0.00     0.189 HD
HETATM    7  N   UNL     1     -43.340  60.645 -50.227  1.00  0.00    -0.168 NA
HETATM    8  C   UNL     1     -44.079  59.738 -50.906  1.00  0.00     0.156 A 
HETATM    9  C   UNL     1     -40.882  58.965 -52.322  1.00  0.00     0.034 A 
HETATM   10  C   UNL     1     -41.120  57.925 -53.232  1.00  0.00     0.026 A 
ENDROOT
BRANCH   1  11
HETATM   11  N   UNL     1     -42.651  56.329 -54.321  1.00  0.00    -0.289 NA
HETATM   12  H   UNL     1     -41.866  56.139 -54.941  1.00  0.00     0.128 HD
BRANCH  11  13
HETATM   13  C   UNL     1     -43.239  55.113 -53.780  1.00  0.00     0.131 C 
BRANCH  13  14
HETATM   14  C   UNL     1     -42.142  54.144 -53.406  1.00  0.00    -0.042 A 
HETATM   15  C   UNL     1     -41.588  54.145 -52.116  1.00  0.00     0.048 A 
HETATM   16  C   UNL     1     -40.580  53.237 -51.769  1.00  0.00     0.102 A 
HETATM   17  C   UNL     1     -40.118  52.309 -52.722  1.00  0.00     0.102 A 
HETATM   18  C   UNL     1     -40.652  52.323 -54.014  1.00  0.00     0.040 A 
HETATM   19  C   UNL     1     -41.655  53.234 -54.353  1.00  0.00     0.011 A 
BRANCH  16  20
HETATM   20  O   UNL     1     -39.997  53.163 -50.527  1.00  0.00    -0.349 OA
BRANCH  20  21
HETATM   21  C   UNL     1     -39.892  54.362 -49.765  1.00  0.00     0.171 C 
HETATM   22  C   UNL     1     -40.604  54.140 -48.443  1.00  0.00     0.034 C 
ENDBRANCH  20  21
ENDBRANCH  16  20
BRANCH  17  23
HETATM   23  O   UNL     1     -39.137  51.445 -52.299  1.00  0.00    -0.349 OA
BRANCH  23  24
HETATM   24  C   UNL     1     -39.459  50.059 -52.238  1.00  0.00     0.171 C 
HETATM   25  C   UNL     1     -39.713  49.703 -50.784  1.00  0.00     0.034 C 
ENDBRANCH  23  24
ENDBRANCH  17  23
ENDBRANCH  13  14
ENDBRANCH  11  13
ENDBRANCH   1  11
BRANCH   8  26
HETATM   26  C   UNL     1     -45.527  59.619 -50.694  1.00  0.00     0.270 C 
HETATM   27  N   UNL     1     -46.285  60.211 -51.669  1.00  0.00    -0.365 N 
HETATM   28  H   UNL     1     -45.811  60.673 -52.437  1.00  0.00     0.159 HD
HETATM   29  H   UNL     1     -47.290  60.183 -51.610  1.00  0.00     0.159 HD
HETATM   30  O   UNL     1     -46.049  59.045 -49.743  1.00  0.00    -0.266 OA
ENDBRANCH   8  26
TORSDOF 8
ENDMDL
MODEL 5
REMARK VINA RESULT:      -7.5      2.741      9.366
REMARK  8 active torsions:
REMARK  status: ('A' for Active; 'I' for Inactive)
REMARK    1  A    between atoms: C_2  and  O_3 
REMARK    2  A    between atoms: O_3  and  C_4 
REMARK    3  A    between atoms: C_5  and  O_6 
REMARK    4  A    between atoms: O_6  and  C_7 
REMARK    5  A    between atoms: C_10  and  C_11 
REMARK    6  A    between atoms: C_11  and  N_12 
REMARK    7  A    between atoms: N_12  and  C_13 
REMARK    8  A    between atoms: C_20  and  C_21 
REMARK       I    between atoms: C_21  and  N_22 
ROOT
HETATM    1  C   UNL     1     -40.872  54.375 -54.555  1.00  0.00     0.009 A 
HETATM    2  C   UNL     1     -41.253  54.609 -53.220  1.00  0.00     0.039 A 
HETATM    3  C   UNL     1     -40.882  53.708 -52.200  1.00  0.00     0.030 A 
HETATM    4  C   UNL     1     -40.166  52.570 -52.546  1.00  0.00     0.063 A 
HETATM    5  N   UNL     1     -39.966  51.899 -51.373  1.00  0.00    -0.277 N 
HETATM    6  H   UNL     1     -39.481  51.017 -51.246  1.00  0.00     0.189 HD
HETATM    7  N   UNL     1     -40.484  52.501 -50.290  1.00  0.00    -0.168 NA
HETATM    8  C   UNL     1     -41.057  53.621 -50.787  1.00  0.00     0.156 A 
HETATM    9  C   UNL     1     -39.802  52.275 -53.859  1.00  0.00     0.034 A 
HETATM   10  C   UNL     1     -40.183  53.192 -54.850  1.00  0.00     0.026 A 
ENDROOT
BRANCH   1  11
HETATM   11  N   UNL     1     -41.326  55.266 -55.535  1.00  0.00    -0.289 NA
HETATM   12  H   UNL     1     -40.613  55.459 -56.237  1.00  0.00     0.128 HD
BRANCH  11  13
HETATM   13  C   UNL     1     -42.646  55.082 -56.120  1.00  0.00     0.131 C 
BRANCH  13  14
HETATM   14  C   UNL     1     -42.797  55.988 -57.321  1.00  0.00    -0.042 A 
HETATM   15  C   UNL     1     -43.285  55.492 -58.539  1.00  0.00     0.048 A 
HETATM   16  C   UNL     1     -43.437  56.337 -59.647  1.00  0.00     0.102 A 
HETATM   17  C   UNL     1     -43.098  57.700 -59.536  1.00  0.00     0.102 A 
HETATM   18  C   UNL     1     -42.589  58.189 -58.329  1.00  0.00     0.040 A 
HETATM   19  C   UNL     1     -42.439  57.339 -57.232  1.00  0.00     0.011 A 
BRANCH  16  20
HETATM   20  O   UNL     1     -43.920  55.936 -60.868  1.00  0.00    -0.349 OA
BRANCH  20  21
HETATM   21  C   UNL     1     -45.095  55.131 -60.891  1.00  0.00     0.171 C 
HETATM   22  C   UNL     1     -46.291  56.041 -60.681  1.00  0.00     0.034 C 
ENDBRANCH  20  21
ENDBRANCH  16  20
BRANCH  17  23
HETATM   23  O   UNL     1     -43.288  58.464 -60.662  1.00  0.00    -0.349 OA
BRANCH  23  24
HETATM   24  C   UNL     1     -43.174  59.878 -60.530  1.00  0.00     0.171 C 
HETATM   25  C   UNL     1     -41.975  60.328 -61.344  1.00  0.00     0.034 C 
ENDBRANCH  23  24
ENDBRANCH  17  23
ENDBRANCH  13  14
ENDBRANCH  11  13
ENDBRANCH   1  11
BRANCH   8  26
HETATM   26  C   UNL     1     -41.751  54.578 -49.915  1.00  0.00     0.270 C 
HETATM   27  N   UNL     1     -43.085  54.716 -50.186  1.00  0.00    -0.365 N 
HETATM   28  H   UNL     1     -43.485  54.171 -50.941  1.00  0.00     0.159 HD
HETATM   29  H   UNL     1     -43.645  55.352 -49.641  1.00  0.00     0.159 HD
HETATM   30  O   UNL     1     -41.215  55.213 -49.012  1.00  0.00    -0.266 OA
ENDBRANCH   8  26
TORSDOF 8
ENDMDL
MODEL 6
REMARK VINA RESULT:      -7.3      3.239      4.703
REMARK  8 active torsions:
REMARK  status: ('A' for Active; 'I' for Inactive)
REMARK    1  A    between atoms: C_2  and  O_3 
REMARK    2  A    between atoms: O_3  and  C_4 
REMARK    3  A    between atoms: C_5  and  O_6 
REMARK    4  A    between atoms: O_6  and  C_7 
REMARK    5  A    between atoms: C_10  and  C_11 
REMARK    6  A    between atoms: C_11  and  N_12 
REMARK    7  A    between atoms: N_12  and  C_13 
REMARK    8  A    between atoms: C_20  and  C_21 
REMARK       I    between atoms: C_21  and  N_22 
ROOT
HETATM    1  C   UNL     1     -42.150  56.690 -55.963  1.00  0.00     0.009 A 
HETATM    2  C   UNL     1     -41.791  57.284 -54.738  1.00  0.00     0.039 A 
HETATM    3  C   UNL     1     -41.913  58.677 -54.554  1.00  0.00     0.030 A 
HETATM    4  C   UNL     1     -42.359  59.452 -55.616  1.00  0.00     0.063 A 
HETATM    5  N   UNL     1     -42.363  60.736 -55.150  1.00  0.00    -0.277 N 
HETATM    6  H   UNL     1     -42.628  61.572 -55.659  1.00  0.00     0.189 HD
HETATM    7  N   UNL     1     -41.963  60.867 -53.874  1.00  0.00    -0.168 NA
HETATM    8  C   UNL     1     -41.678  59.601 -53.493  1.00  0.00     0.156 A 
HETATM    9  C   UNL     1     -42.687  58.914 -56.860  1.00  0.00     0.034 A 
HETATM   10  C   UNL     1     -42.558  57.525 -57.010  1.00  0.00     0.026 A 
ENDROOT
BRANCH   1  11
HETATM   11  N   UNL     1     -41.943  55.313 -56.113  1.00  0.00    -0.289 NA
HETATM   12  H   UNL     1     -40.963  55.058 -56.000  1.00  0.00     0.128 HD
BRANCH  11  13
HETATM   13  C   UNL     1     -42.840  54.373 -55.459  1.00  0.00     0.131 C 
BRANCH  13  14
HETATM   14  C   UNL     1     -42.277  53.993 -54.109  1.00  0.00    -0.042 A 
HETATM   15  C   UNL     1     -41.181  53.122 -54.006  1.00  0.00     0.048 A 
HETATM   16  C   UNL     1     -40.653  52.782 -52.753  1.00  0.00     0.102 A 
HETATM   17  C   UNL     1     -41.225  53.321 -51.584  1.00  0.00     0.102 A 
HETATM   18  C   UNL     1     -42.332  54.170 -51.686  1.00  0.00     0.040 A 
HETATM   19  C   UNL     1     -42.853  54.501 -52.938  1.00  0.00     0.011 A 
BRANCH  16  20
HETATM   20  O   UNL     1     -39.576  51.950 -52.567  1.00  0.00    -0.349 OA
BRANCH  20  21
HETATM   21  C   UNL     1     -39.175  51.120 -53.652  1.00  0.00     0.171 C 
HETATM   22  C   UNL     1     -39.727  49.728 -53.404  1.00  0.00     0.034 C 
ENDBRANCH  20  21
ENDBRANCH  16  20
BRANCH  17  23
HETATM   23  O   UNL     1     -40.642  52.948 -50.398  1.00  0.00    -0.349 OA
BRANCH  23  24
HETATM   24  C   UNL     1     -39.911  53.938 -49.680  1.00  0.00     0.171 C 
HETATM   25  C   UNL     1     -40.517  54.052 -48.293  1.00  0.00     0.034 C 
ENDBRANCH  23  24
ENDBRANCH  17  23
ENDBRANCH  13  14
ENDBRANCH  11  13
ENDBRANCH   1  11
BRANCH   8  26
HETATM   26  C   UNL     1     -41.196  59.299 -52.139  1.00  0.00     0.270 C 
HETATM   27  N   UNL     1     -42.172  58.871 -51.281  1.00  0.00    -0.365 N 
HETATM   28  H   UNL     1     -43.122  58.797 -51.626  1.00  0.00     0.159 HD
HETATM   29  H   UNL     1     -41.938  58.641 -50.329  1.00  0.00     0.159 HD
HETATM   30  O   UNL     1     -40.029  59.407 -51.774  1.00  0.00    -0.266 OA
ENDBRANCH   8  26
TORSDOF 8
ENDMDL
MODEL 7
REMARK VINA RESULT:      -7.2      3.000      9.055
REMARK  8 active torsions:
REMARK  status: ('A' for Active; 'I' for Inactive)
REMARK    1  A    between atoms: C_2  and  O_3 
REMARK    2  A    between atoms: O_3  and  C_4 
REMARK    3  A    between atoms: C_5  and  O_6 
REMARK    4  A    between atoms: O_6  and  C_7 
REMARK    5  A    between atoms: C_10  and  C_11 
REMARK    6  A    between atoms: C_11  and  N_12 
REMARK    7  A    between atoms: N_12  and  C_13 
REMARK    8  A    between atoms: C_20  and  C_21 
REMARK       I    between atoms: C_21  and  N_22 
ROOT
HETATM    1  C   UNL     1     -40.710  54.410 -54.167  1.00  0.00     0.009 A 
HETATM    2  C   UNL     1     -40.971  54.496 -52.787  1.00  0.00     0.039 A 
HETATM    3  C   UNL     1     -40.647  53.425 -51.928  1.00  0.00     0.030 A 
HETATM    4  C   UNL     1     -40.100  52.273 -52.477  1.00  0.00     0.063 A 
HETATM    5  N   UNL     1     -39.906  51.427 -51.423  1.00  0.00    -0.277 N 
HETATM    6  H   UNL     1     -39.525  50.487 -51.453  1.00  0.00     0.189 HD
HETATM    7  N   UNL     1     -40.274  51.926 -50.231  1.00  0.00    -0.168 NA
HETATM    8  C   UNL     1     -40.738  53.161 -50.529  1.00  0.00     0.156 A 
HETATM    9  C   UNL     1     -39.861  52.126 -53.843  1.00  0.00     0.034 A 
HETATM   10  C   UNL     1     -40.191  53.210 -54.670  1.00  0.00     0.026 A 
ENDROOT
BRANCH   1  11
HETATM   11  N   UNL     1     -41.116  55.474 -54.982  1.00  0.00    -0.289 NA
HETATM   12  H   UNL     1     -41.471  55.154 -55.882  1.00  0.00     0.128 HD
BRANCH  11  13
HETATM   13  C   UNL     1     -41.919  56.548 -54.419  1.00  0.00     0.131 C 
BRANCH  13  14
HETATM   14  C   UNL     1     -42.905  57.039 -55.454  1.00  0.00    -0.042 A 
HETATM   15  C   UNL     1     -42.618  56.941 -56.824  1.00  0.00     0.048 A 
HETATM   16  C   UNL     1     -43.539  57.385 -57.782  1.00  0.00     0.102 A 
HETATM   17  C   UNL     1     -44.769  57.933 -57.366  1.00  0.00     0.102 A 
HETATM   18  C   UNL     1     -45.045  58.052 -56.001  1.00  0.00     0.040 A 
HETATM   19  C   UNL     1     -44.119  57.610 -55.053  1.00  0.00     0.011 A 
BRANCH  16  20
HETATM   20  O   UNL     1     -43.342  57.312 -59.139  1.00  0.00    -0.349 OA
BRANCH  20  21
HETATM   21  C   UNL     1     -42.794  56.111 -59.673  1.00  0.00     0.171 C 
HETATM   22  C   UNL     1     -43.896  55.068 -59.708  1.00  0.00     0.034 C 
ENDBRANCH  20  21
ENDBRANCH  16  20
BRANCH  17  23
HETATM   23  O   UNL     1     -45.622  58.333 -58.367  1.00  0.00    -0.349 OA
BRANCH  23  24
HETATM   24  C   UNL     1     -46.901  57.709 -58.434  1.00  0.00     0.171 C 
HETATM   25  C   UNL     1     -46.984  56.955 -59.749  1.00  0.00     0.034 C 
ENDBRANCH  23  24
ENDBRANCH  17  23
ENDBRANCH  13  14
ENDBRANCH  11  13
ENDBRANCH   1  11
BRANCH   8  26
HETATM   26  C   UNL     1     -41.250  54.058 -49.485  1.00  0.00     0.270 C 
HETATM   27  N   UNL     1     -40.375  54.275 -48.455  1.00  0.00    -0.365 N 
HETATM   28  H   UNL     1     -39.470  53.817 -48.484  1.00  0.00     0.159 HD
HETATM   29  H   UNL     1     -40.638  54.875 -47.691  1.00  0.00     0.159 HD
HETATM   30  O   UNL     1     -42.358  54.587 -49.500  1.00  0.00    -0.266 OA
ENDBRANCH   8  26
TORSDOF 8
ENDMDL
MODEL 8
REMARK VINA RESULT:      -7.1      1.897      3.105
REMARK  8 active torsions:
REMARK  status: ('A' for Active; 'I' for Inactive)
REMARK    1  A    between atoms: C_2  and  O_3 
REMARK    2  A    between atoms: O_3  and  C_4 
REMARK    3  A    between atoms: C_5  and  O_6 
REMARK    4  A    between atoms: O_6  and  C_7 
REMARK    5  A    between atoms: C_10  and  C_11 
REMARK    6  A    between atoms: C_11  and  N_12 
REMARK    7  A    between atoms: N_12  and  C_13 
REMARK    8  A    between atoms: C_20  and  C_21 
REMARK       I    between atoms: C_21  and  N_22 
ROOT
HETATM    1  C   UNL     1     -42.680  56.801 -56.868  1.00  0.00     0.009 A 
HETATM    2  C   UNL     1     -43.261  56.051 -57.908  1.00  0.00     0.039 A 
HETATM    3  C   UNL     1     -44.329  56.579 -58.662  1.00  0.00     0.030 A 
HETATM    4  C   UNL     1     -44.818  57.836 -58.335  1.00  0.00     0.063 A 
HETATM    5  N   UNL     1     -45.836  58.069 -59.215  1.00  0.00    -0.277 N 
HETATM    6  H   UNL     1     -46.426  58.892 -59.266  1.00  0.00     0.189 HD
HETATM    7  N   UNL     1     -46.052  57.076 -60.093  1.00  0.00    -0.168 NA
HETATM    8  C   UNL     1     -45.128  56.145 -59.761  1.00  0.00     0.156 A 
HETATM    9  C   UNL     1     -44.303  58.598 -57.286  1.00  0.00     0.034 A 
HETATM   10  C   UNL     1     -43.239  58.047 -56.557  1.00  0.00     0.026 A 
ENDROOT
BRANCH   1  11
HETATM   11  N   UNL     1     -41.670  56.200 -56.107  1.00  0.00    -0.289 NA
HETATM   12  H   UNL     1     -41.256  56.849 -55.439  1.00  0.00     0.128 HD
BRANCH  11  13
HETATM   13  C   UNL     1     -41.885  54.879 -55.537  1.00  0.00     0.131 C 
BRANCH  13  14
HETATM   14  C   UNL     1     -41.855  54.969 -54.028  1.00  0.00    -0.042 A 
HETATM   15  C   UNL     1     -41.426  56.140 -53.385  1.00  0.00     0.048 A 
HETATM   16  C   UNL     1     -41.412  56.225 -51.986  1.00  0.00     0.102 A 
HETATM   17  C   UNL     1     -41.834  55.123 -51.216  1.00  0.00     0.102 A 
HETATM   18  C   UNL     1     -42.238  53.948 -51.856  1.00  0.00     0.040 A 
HETATM   19  C   UNL     1     -42.247  53.872 -53.251  1.00  0.00     0.011 A 
BRANCH  16  20
HETATM   20  O   UNL     1     -41.021  57.337 -51.281  1.00  0.00    -0.349 OA
BRANCH  20  21
HETATM   21  C   UNL     1     -40.838  58.554 -51.997  1.00  0.00     0.171 C 
HETATM   22  C   UNL     1     -41.781  59.588 -51.412  1.00  0.00     0.034 C 
ENDBRANCH  20  21
ENDBRANCH  16  20
BRANCH  17  23
HETATM   23  O   UNL     1     -41.801  55.291 -49.853  1.00  0.00    -0.349 OA
BRANCH  23  24
HETATM   24  C   UNL     1     -41.110  54.311 -49.083  1.00  0.00     0.171 C 
HETATM   25  C   UNL     1     -39.646  54.351 -49.483  1.00  0.00     0.034 C 
ENDBRANCH  23  24
ENDBRANCH  17  23
ENDBRANCH  13  14
ENDBRANCH  11  13
ENDBRANCH   1  11
BRANCH   8  26
HETATM   26  C   UNL     1     -45.025  54.876 -60.492  1.00  0.00     0.270 C 
HETATM   27  N   UNL     1     -45.233  53.766 -59.718  1.00  0.00    -0.365 N 
HETATM   28  H   UNL     1     -45.435  53.895 -58.732  1.00  0.00     0.159 HD
HETATM   29  H   UNL     1     -45.182  52.849 -60.131  1.00  0.00     0.159 HD
HETATM   30  O   UNL     1     -44.778  54.778 -61.690  1.00  0.00    -0.266 OA
ENDBRANCH   8  26
TORSDOF 8
ENDMDL
MODEL 9
REMARK VINA RESULT:      -7.0      3.834      5.846
REMARK  8 active torsions:
REMARK  status: ('A' for Active; 'I' for Inactive)
REMARK    1  A    between atoms: C_2  and  O_3 
REMARK    2  A    between atoms: O_3  and  C_4 
REMARK    3  A    between atoms: C_5  and  O_6 
REMARK    4  A    between atoms: O_6  and  C_7 
REMARK    5  A    between atoms: C_10  and  C_11 
REMARK    6  A    between atoms: C_11  and  N_12 
REMARK    7  A    between atoms: N_12  and  C_13 
REMARK    8  A    between atoms: C_20  and  C_21 
REMARK       I    between atoms: C_21  and  N_22 
ROOT
HETATM    1  C   UNL     1     -43.625  58.243 -54.907  1.00  0.00     0.009 A 
HETATM    2  C   UNL     1     -44.014  58.485 -53.576  1.00  0.00     0.039 A 
HETATM    3  C   UNL     1     -45.005  59.445 -53.282  1.00  0.00     0.030 A 
HETATM    4  C   UNL     1     -45.561  60.169 -54.328  1.00  0.00     0.063 A 
HETATM    5  N   UNL     1     -46.465  61.011 -53.745  1.00  0.00    -0.277 N 
HETATM    6  H   UNL     1     -47.055  61.694 -54.208  1.00  0.00     0.189 HD
HETATM    7  N   UNL     1     -46.552  60.898 -52.409  1.00  0.00    -0.168 NA
HETATM    8  C   UNL     1     -45.652  59.933 -52.109  1.00  0.00     0.156 A 
HETATM    9  C   UNL     1     -45.178  59.994 -55.658  1.00  0.00     0.034 A 
HETATM   10  C   UNL     1     -44.192  59.030 -55.917  1.00  0.00     0.026 A 
ENDROOT
BRANCH   1  11
HETATM   11  N   UNL     1     -42.588  57.330 -55.134  1.00  0.00    -0.289 NA
HETATM   12  H   UNL     1     -42.314  57.297 -56.115  1.00  0.00     0.128 HD
BRANCH  11  13
HETATM   13  C   UNL     1     -41.443  57.301 -54.237  1.00  0.00     0.131 C 
BRANCH  13  14
HETATM   14  C   UNL     1     -41.111  55.869 -53.887  1.00  0.00    -0.042 A 
HETATM   15  C   UNL     1     -41.411  55.350 -52.618  1.00  0.00     0.048 A 
HETATM   16  C   UNL     1     -41.115  54.018 -52.301  1.00  0.00     0.102 A 
HETATM   17  C   UNL     1     -40.510  53.189 -53.266  1.00  0.00     0.102 A 
HETATM   18  C   UNL     1     -40.189  53.712 -54.522  1.00  0.00     0.040 A 
HETATM   19  C   UNL     1     -40.486  55.042 -54.828  1.00  0.00     0.011 A 
BRANCH  16  20
HETATM   20  O   UNL     1     -41.388  53.430 -51.090  1.00  0.00    -0.349 OA
BRANCH  20  21
HETATM   21  C   UNL     1     -41.130  54.180 -49.908  1.00  0.00     0.171 C 
HETATM   22  C   UNL     1     -39.630  54.193 -49.680  1.00  0.00     0.034 C 
ENDBRANCH  20  21
ENDBRANCH  16  20
BRANCH  17  23
HETATM   23  O   UNL     1     -40.263  51.893 -52.881  1.00  0.00    -0.349 OA
BRANCH  23  24
HETATM   24  C   UNL     1     -39.399  51.113 -53.702  1.00  0.00     0.171 C 
HETATM   25  C   UNL     1     -40.225  50.001 -54.323  1.00  0.00     0.034 C 
ENDBRANCH  23  24
ENDBRANCH  17  23
ENDBRANCH  13  14
ENDBRANCH  11  13
ENDBRANCH   1  11
BRANCH   8  26
HETATM   26  C   UNL     1     -45.430  59.499 -50.723  1.00  0.00     0.270 C 
HETATM   27  N   UNL     1     -44.209  59.853 -50.215  1.00  0.00    -0.365 N 
HETATM   28  H   UNL     1     -43.569  60.368 -50.809  1.00  0.00     0.159 HD
HETATM   29  H   UNL     1     -43.965  59.598 -49.272  1.00  0.00     0.159 HD
HETATM   30  O   UNL     1     -46.244  58.876 -50.048  1.00  0.00    -0.266 OA
ENDBRANCH   8  26
TORSDOF 8
ENDMDL
MODEL 10
REMARK VINA RESULT:      -7.0      4.198      8.066
REMARK  8 active torsions:
REMARK  status: ('A' for Active; 'I' for Inactive)
REMARK    1  A    between atoms: C_2  and  O_3 
REMARK    2  A    between atoms: O_3  and  C_4 
REMARK    3  A    between atoms: C_5  and  O_6 
REMARK    4  A    between atoms: O_6  and  C_7 
REMARK    5  A    between atoms: C_10  and  C_11 
REMARK    6  A    between atoms: C_11  and  N_12 
REMARK    7  A    between atoms: N_12  and  C_13 
REMARK    8  A    between atoms: C_20  and  C_21 
REMARK       I    between atoms: C_21  and  N_22 
ROOT
HETATM    1  C   UNL     1     -43.039  54.611 -53.787  1.00  0.00     0.009 A 
HETATM    2  C   UNL     1     -42.672  54.716 -52.432  1.00  0.00     0.039 A 
HETATM    3  C   UNL     1     -41.552  54.016 -51.937  1.00  0.00     0.030 A 
HETATM    4  C   UNL     1     -40.843  53.195 -52.803  1.00  0.00     0.063 A 
HETATM    5  N   UNL     1     -39.840  52.654 -52.050  1.00  0.00    -0.277 N 
HETATM    6  H   UNL     1     -39.129  51.999 -52.355  1.00  0.00     0.189 HD
HETATM    7  N   UNL     1     -39.829  53.053 -50.767  1.00  0.00    -0.168 NA
HETATM    8  C   UNL     1     -40.885  53.895 -50.682  1.00  0.00     0.156 A 
HETATM    9  C   UNL     1     -41.194  53.027 -54.142  1.00  0.00     0.034 A 
HETATM   10  C   UNL     1     -42.310  53.739 -54.606  1.00  0.00     0.026 A 
ENDROOT
BRANCH   1  11
HETATM   11  N   UNL     1     -44.199  55.271 -54.208  1.00  0.00    -0.289 NA
HETATM   12  H   UNL     1     -44.940  55.229 -53.510  1.00  0.00     0.128 HD
BRANCH  11  13
HETATM   13  C   UNL     1     -44.097  56.583 -54.830  1.00  0.00     0.131 C 
BRANCH  13  14
HETATM   14  C   UNL     1     -43.221  57.477 -53.983  1.00  0.00    -0.042 A 
HETATM   15  C   UNL     1     -43.742  58.145 -52.865  1.00  0.00     0.048 A 
HETATM   16  C   UNL     1     -42.924  58.963 -52.074  1.00  0.00     0.102 A 
HETATM   17  C   UNL     1     -41.562  59.114 -52.402  1.00  0.00     0.102 A 
HETATM   18  C   UNL     1     -41.048  58.467 -53.530  1.00  0.00     0.040 A 
HETATM   19  C   UNL     1     -41.872  57.657 -54.314  1.00  0.00     0.011 A 
BRANCH  16  20
HETATM   20  O   UNL     1     -43.352  59.640 -50.958  1.00  0.00    -0.349 OA
BRANCH  20  21
HETATM   21  C   UNL     1     -44.704  60.084 -50.921  1.00  0.00     0.171 C 
HETATM   22  C   UNL     1     -44.697  61.590 -50.731  1.00  0.00     0.034 C 
ENDBRANCH  20  21
ENDBRANCH  16  20
BRANCH  17  23
HETATM   23  O   UNL     1     -40.826  59.923 -51.570  1.00  0.00    -0.349 OA
BRANCH  23  24
HETATM   24  C   UNL     1     -40.160  59.309 -50.471  1.00  0.00     0.171 C 
HETATM   25  C   UNL     1     -38.667  59.514 -50.656  1.00  0.00     0.034 C 
ENDBRANCH  23  24
ENDBRANCH  17  23
ENDBRANCH  13  14
ENDBRANCH  11  13
ENDBRANCH   1  11
BRANCH   8  26
HETATM   26  C   UNL     1     -41.231  54.562 -49.420  1.00  0.00     0.270 C 
HETATM   27  N   UNL     1     -41.481  55.901 -49.546  1.00  0.00    -0.365 N 
HETATM   28  H   UNL     1     -41.411  56.323 -50.466  1.00  0.00     0.159 HD
HETATM   29  H   UNL     1     -41.726  56.445 -48.735  1.00  0.00     0.159 HD
HETATM   30  O   UNL     1     -41.302  54.001 -48.331  1.00  0.00    -0.266 OA
ENDBRANCH   8  26
TORSDOF 8
ENDMDL
