MODEL 1
REMARK VINA RESULT:      -8.6      0.000      0.000
REMARK  3 active torsions:
REMARK  status: ('A' for Active; 'I' for Inactive)
REMARK    1  A    between atoms: C_3  and  O_4 
REMARK    2  A    between atoms: C_6  and  C_7 
REMARK    3  A    between atoms: N_8  and  N_9 
ROOT
HETATM    1  N   UNL     1     -41.263  55.482 -51.933  1.00  0.00    -0.189 N 
HETATM    2  C   UNL     1     -41.385  56.288 -50.787  1.00  0.00     0.298 A 
HETATM    3  O   UNL     1     -41.194  55.948 -49.623  1.00  0.00    -0.264 OA
HETATM    4  C   UNL     1     -41.750  57.626 -51.129  1.00  0.00     0.133 A 
HETATM    5  C   UNL     1     -41.874  58.076 -52.411  1.00  0.00     0.103 A 
HETATM    6  N   UNL     1     -41.638  57.270 -53.525  1.00  0.00    -0.239 NA
HETATM    7  C   UNL     1     -41.346  56.041 -53.208  1.00  0.00     0.239 A 
HETATM    8  N   UNL     1     -42.029  58.672 -50.294  1.00  0.00    -0.349 N 
HETATM    9  H   UNL     1     -42.004  58.627 -49.283  1.00  0.00     0.166 HD
HETATM   10  C   UNL     1     -42.363  59.787 -51.041  1.00  0.00     0.045 A 
HETATM   11  C   UNL     1     -42.265  59.431 -52.392  1.00  0.00     0.024 A 
HETATM   12  C   UNL     1     -42.738  61.070 -50.624  1.00  0.00     0.032 A 
HETATM   13  C   UNL     1     -43.022  62.012 -51.619  1.00  0.00     0.026 A 
HETATM   14  C   UNL     1     -42.928  61.678 -52.970  1.00  0.00     0.035 A 
HETATM   15 CL   UNL     1     -43.288  62.870 -54.161  1.00  0.00    -0.084 Cl
HETATM   16  C   UNL     1     -42.550  60.397 -53.376  1.00  0.00     0.040 A 
ENDROOT
BRANCH   1  17
HETATM   17  N   UNL     1     -40.914  54.137 -51.901  1.00  0.00    -0.175 NA
HETATM   18  C   UNL     1     -40.529  53.576 -53.003  1.00  0.00     0.150 C 
BRANCH  18  19
HETATM   19  C   UNL     1     -40.186  52.139 -53.065  1.00  0.00    -0.014 A 
HETATM   20  C   UNL     1     -39.784  51.501 -51.890  1.00  0.00     0.049 A 
HETATM   21  C   UNL     1     -39.464  50.149 -51.927  1.00  0.00     0.066 A 
HETATM   22  C   UNL     1     -39.537  49.425 -53.113  1.00  0.00     0.036 A 
HETATM   23  C   UNL     1     -39.939  50.067 -54.287  1.00  0.00     0.004 A 
HETATM   24  C   UNL     1     -40.263  51.427 -54.265  1.00  0.00     0.013 A 
BRANCH  21  25
HETATM   25  O   UNL     1     -39.076  49.560 -50.759  1.00  0.00    -0.361 OA
HETATM   26  H   UNL     1     -39.088  48.595 -50.874  1.00  0.00     0.217 HD
ENDBRANCH  21  25
ENDBRANCH  18  19
ENDBRANCH   1  17
TORSDOF 3
ENDMDL
MODEL 2
REMARK VINA RESULT:      -8.3      1.611      2.064
REMARK  3 active torsions:
REMARK  status: ('A' for Active; 'I' for Inactive)
REMARK    1  A    between atoms: C_3  and  O_4 
REMARK    2  A    between atoms: C_6  and  C_7 
REMARK    3  A    between atoms: N_8  and  N_9 
ROOT
HETATM    1  N   UNL     1     -41.956  55.239 -52.026  1.00  0.00    -0.189 N 
HETATM    2  C   UNL     1     -42.932  55.814 -52.860  1.00  0.00     0.298 A 
HETATM    3  O   UNL     1     -43.604  55.241 -53.712  1.00  0.00    -0.264 OA
HETATM    4  C   UNL     1     -43.093  57.208 -52.587  1.00  0.00     0.133 A 
HETATM    5  C   UNL     1     -42.444  57.866 -51.584  1.00  0.00     0.103 A 
HETATM    6  N   UNL     1     -41.563  57.233 -50.706  1.00  0.00    -0.239 NA
HETATM    7  C   UNL     1     -41.387  55.974 -50.984  1.00  0.00     0.239 A 
HETATM    8  N   UNL     1     -43.887  58.115 -53.232  1.00  0.00    -0.349 N 
HETATM    9  H   UNL     1     -44.492  57.900 -54.014  1.00  0.00     0.166 HD
HETATM   10  C   UNL     1     -43.724  59.364 -52.661  1.00  0.00     0.045 A 
HETATM   11  C   UNL     1     -42.813  59.227 -51.606  1.00  0.00     0.024 A 
HETATM   12  C   UNL     1     -44.311  60.590 -52.997  1.00  0.00     0.032 A 
HETATM   13  C   UNL     1     -43.953  61.705 -52.231  1.00  0.00     0.026 A 
HETATM   14  C   UNL     1     -43.049  61.590 -51.175  1.00  0.00     0.035 A 
HETATM   15 CL   UNL     1     -42.636  62.991 -50.260  1.00  0.00    -0.084 Cl
HETATM   16  C   UNL     1     -42.472  60.362 -50.845  1.00  0.00     0.040 A 
ENDROOT
BRANCH   1  17
HETATM   17  N   UNL     1     -41.594  53.898 -52.066  1.00  0.00    -0.175 NA
HETATM   18  C   UNL     1     -40.631  53.545 -52.855  1.00  0.00     0.150 C 
BRANCH  18  19
HETATM   19  C   UNL     1     -40.216  52.133 -52.992  1.00  0.00    -0.014 A 
HETATM   20  C   UNL     1     -39.790  51.452 -51.850  1.00  0.00     0.049 A 
HETATM   21  C   UNL     1     -39.403  50.121 -51.957  1.00  0.00     0.066 A 
HETATM   22  C   UNL     1     -39.433  49.461 -53.182  1.00  0.00     0.036 A 
HETATM   23  C   UNL     1     -39.859  50.145 -54.323  1.00  0.00     0.004 A 
HETATM   24  C   UNL     1     -40.250  51.484 -54.230  1.00  0.00     0.013 A 
BRANCH  21  25
HETATM   25  O   UNL     1     -38.995  49.489 -50.820  1.00  0.00    -0.361 OA
HETATM   26  H   UNL     1     -39.593  49.731 -50.093  1.00  0.00     0.217 HD
ENDBRANCH  21  25
ENDBRANCH  18  19
ENDBRANCH   1  17
TORSDOF 3
ENDMDL
MODEL 3
REMARK VINA RESULT:      -8.1      3.454      8.842
REMARK  3 active torsions:
REMARK  status: ('A' for Active; 'I' for Inactive)
REMARK    1  A    between atoms: C_3  and  O_4 
REMARK    2  A    between atoms: C_6  and  C_7 
REMARK    3  A    between atoms: N_8  and  N_9 
ROOT
HETATM    1  N   UNL     1     -41.335  56.703 -51.314  1.00  0.00    -0.189 N 
HETATM    2  C   UNL     1     -41.116  55.740 -50.313  1.00  0.00     0.298 A 
HETATM    3  O   UNL     1     -41.209  55.903 -49.101  1.00  0.00    -0.264 OA
HETATM    4  C   UNL     1     -40.780  54.471 -50.878  1.00  0.00     0.133 A 
HETATM    5  C   UNL     1     -40.763  54.216 -52.218  1.00  0.00     0.103 A 
HETATM    6  N   UNL     1     -41.094  55.173 -53.177  1.00  0.00    -0.239 NA
HETATM    7  C   UNL     1     -41.358  56.338 -52.661  1.00  0.00     0.239 A 
HETATM    8  N   UNL     1     -40.431  53.318 -50.232  1.00  0.00    -0.349 N 
HETATM    9  H   UNL     1     -40.371  53.214 -49.227  1.00  0.00     0.166 HD
HETATM   10  C   UNL     1     -40.161  52.329 -51.159  1.00  0.00     0.045 A 
HETATM   11  C   UNL     1     -40.372  52.878 -52.431  1.00  0.00     0.024 A 
HETATM   12  C   UNL     1     -39.751  51.003 -50.969  1.00  0.00     0.032 A 
HETATM   13  C   UNL     1     -39.551  50.221 -52.111  1.00  0.00     0.026 A 
HETATM   14  C   UNL     1     -39.758  50.748 -53.386  1.00  0.00     0.035 A 
HETATM   15 CL   UNL     1     -39.498  49.748 -54.765  1.00  0.00    -0.084 Cl
HETATM   16  C   UNL     1     -40.170  52.070 -53.567  1.00  0.00     0.040 A 
ENDROOT
BRANCH   1  17
HETATM   17  N   UNL     1     -41.681  58.024 -51.057  1.00  0.00    -0.175 NA
HETATM   18  C   UNL     1     -42.902  58.394 -51.273  1.00  0.00     0.150 C 
BRANCH  18  19
HETATM   19  C   UNL     1     -43.340  59.790 -51.069  1.00  0.00    -0.014 A 
HETATM   20  C   UNL     1     -44.680  60.108 -51.302  1.00  0.00     0.049 A 
HETATM   21  C   UNL     1     -45.112  61.414 -51.109  1.00  0.00     0.066 A 
HETATM   22  C   UNL     1     -44.232  62.408 -50.690  1.00  0.00     0.036 A 
HETATM   23  C   UNL     1     -42.892  62.087 -50.458  1.00  0.00     0.004 A 
HETATM   24  C   UNL     1     -42.443  60.777 -50.649  1.00  0.00     0.013 A 
BRANCH  21  25
HETATM   25  O   UNL     1     -46.428  61.686 -51.346  1.00  0.00    -0.361 OA
HETATM   26  H   UNL     1     -46.835  62.009 -50.525  1.00  0.00     0.217 HD
ENDBRANCH  21  25
ENDBRANCH  18  19
ENDBRANCH   1  17
TORSDOF 3
ENDMDL
MODEL 4
REMARK VINA RESULT:      -7.8      3.751      9.120
REMARK  3 active torsions:
REMARK  status: ('A' for Active; 'I' for Inactive)
REMARK    1  A    between atoms: C_3  and  O_4 
REMARK    2  A    between atoms: C_6  and  C_7 
REMARK    3  A    between atoms: N_8  and  N_9 
ROOT
HETATM    1  N   UNL     1     -41.727  56.664 -53.131  1.00  0.00    -0.189 N 
HETATM    2  C   UNL     1     -41.517  55.852 -54.260  1.00  0.00     0.298 A 
HETATM    3  O   UNL     1     -41.672  56.169 -55.435  1.00  0.00    -0.264 OA
HETATM    4  C   UNL     1     -41.053  54.553 -53.886  1.00  0.00     0.133 A 
HETATM    5  C   UNL     1     -40.770  54.187 -52.603  1.00  0.00     0.103 A 
HETATM    6  N   UNL     1     -40.888  55.060 -51.521  1.00  0.00    -0.239 NA
HETATM    7  C   UNL     1     -41.350  56.228 -51.860  1.00  0.00     0.239 A 
HETATM    8  N   UNL     1     -40.809  53.474 -54.688  1.00  0.00    -0.349 N 
HETATM    9  H   UNL     1     -40.924  53.462 -55.693  1.00  0.00     0.166 HD
HETATM   10  C   UNL     1     -40.396  52.404 -53.915  1.00  0.00     0.045 A 
HETATM   11  C   UNL     1     -40.359  52.839 -52.584  1.00  0.00     0.024 A 
HETATM   12  C   UNL     1     -40.055  51.099 -54.292  1.00  0.00     0.032 A 
HETATM   13  C   UNL     1     -39.667  50.217 -53.278  1.00  0.00     0.026 A 
HETATM   14  C   UNL     1     -39.622  50.630 -51.947  1.00  0.00     0.035 A 
HETATM   15 CL   UNL     1     -39.140  49.508 -50.730  1.00  0.00    -0.084 Cl
HETATM   16  C   UNL     1     -39.960  51.934 -51.580  1.00  0.00     0.040 A 
ENDROOT
BRANCH   1  17
HETATM   17  N   UNL     1     -42.173  57.979 -53.194  1.00  0.00    -0.175 NA
HETATM   18  C   UNL     1     -42.004  58.736 -52.158  1.00  0.00     0.150 C 
BRANCH  18  19
HETATM   19  C   UNL     1     -42.491  60.131 -52.126  1.00  0.00    -0.014 A 
HETATM   20  C   UNL     1     -42.507  60.856 -53.319  1.00  0.00     0.049 A 
HETATM   21  C   UNL     1     -42.968  62.167 -53.311  1.00  0.00     0.066 A 
HETATM   22  C   UNL     1     -43.412  62.766 -52.136  1.00  0.00     0.036 A 
HETATM   23  C   UNL     1     -43.394  62.037 -50.944  1.00  0.00     0.004 A 
HETATM   24  C   UNL     1     -42.933  60.718 -50.936  1.00  0.00     0.013 A 
BRANCH  21  25
HETATM   25  O   UNL     1     -42.970  62.843 -54.496  1.00  0.00    -0.361 OA
HETATM   26  H   UNL     1     -43.004  62.201 -55.224  1.00  0.00     0.217 HD
ENDBRANCH  21  25
ENDBRANCH  18  19
ENDBRANCH   1  17
TORSDOF 3
ENDMDL
MODEL 5
REMARK VINA RESULT:      -7.8      1.857      2.586
REMARK  3 active torsions:
REMARK  status: ('A' for Active; 'I' for Inactive)
REMARK    1  A    between atoms: C_3  and  O_4 
REMARK    2  A    between atoms: C_6  and  C_7 
REMARK    3  A    between atoms: N_8  and  N_9 
ROOT
HETATM    1  N   UNL     1     -41.763  55.284 -52.815  1.00  0.00    -0.189 N 
HETATM    2  C   UNL     1     -41.915  56.136 -53.924  1.00  0.00     0.298 A 
HETATM    3  O   UNL     1     -41.860  55.820 -55.109  1.00  0.00    -0.264 OA
HETATM    4  C   UNL     1     -42.178  57.480 -53.515  1.00  0.00     0.133 A 
HETATM    5  C   UNL     1     -42.348  57.859 -52.215  1.00  0.00     0.103 A 
HETATM    6  N   UNL     1     -42.298  56.961 -51.149  1.00  0.00    -0.239 NA
HETATM    7  C   UNL     1     -42.016  55.746 -51.523  1.00  0.00     0.239 A 
HETATM    8  N   UNL     1     -42.312  58.595 -54.293  1.00  0.00    -0.349 N 
HETATM    9  H   UNL     1     -42.244  58.607 -55.303  1.00  0.00     0.166 HD
HETATM   10  C   UNL     1     -42.538  59.698 -53.490  1.00  0.00     0.045 A 
HETATM   11  C   UNL     1     -42.570  59.250 -52.163  1.00  0.00     0.024 A 
HETATM   12  C   UNL     1     -42.715  61.043 -53.837  1.00  0.00     0.032 A 
HETATM   13  C   UNL     1     -42.930  61.953 -52.796  1.00  0.00     0.026 A 
HETATM   14  C   UNL     1     -42.968  61.528 -51.468  1.00  0.00     0.035 A 
HETATM   15 CL   UNL     1     -43.234  62.684 -50.218  1.00  0.00    -0.084 Cl
HETATM   16  C   UNL     1     -42.793  60.184 -51.132  1.00  0.00     0.040 A 
ENDROOT
BRANCH   1  17
HETATM   17  N   UNL     1     -41.504  53.922 -52.913  1.00  0.00    -0.175 NA
HETATM   18  C   UNL     1     -40.471  53.447 -52.295  1.00  0.00     0.150 C 
BRANCH  18  19
HETATM   19  C   UNL     1     -40.099  52.019 -52.387  1.00  0.00    -0.014 A 
HETATM   20  C   UNL     1     -40.155  51.397 -53.636  1.00  0.00     0.049 A 
HETATM   21  C   UNL     1     -39.802  50.057 -53.743  1.00  0.00     0.066 A 
HETATM   22  C   UNL     1     -39.396  49.329 -52.629  1.00  0.00     0.036 A 
HETATM   23  C   UNL     1     -39.342  49.954 -51.381  1.00  0.00     0.004 A 
HETATM   24  C   UNL     1     -39.695  51.301 -51.257  1.00  0.00     0.013 A 
BRANCH  21  25
HETATM   25  O   UNL     1     -39.868  49.484 -54.980  1.00  0.00    -0.361 OA
HETATM   26  H   UNL     1     -40.800  49.323 -55.202  1.00  0.00     0.217 HD
ENDBRANCH  21  25
ENDBRANCH  18  19
ENDBRANCH   1  17
TORSDOF 3
ENDMDL
MODEL 6
REMARK VINA RESULT:      -7.7      4.003      9.089
REMARK  3 active torsions:
REMARK  status: ('A' for Active; 'I' for Inactive)
REMARK    1  A    between atoms: C_3  and  O_4 
REMARK    2  A    between atoms: C_6  and  C_7 
REMARK    3  A    between atoms: N_8  and  N_9 
ROOT
HETATM    1  N   UNL     1     -42.317  57.066 -51.678  1.00  0.00    -0.189 N 
HETATM    2  C   UNL     1     -41.944  56.595 -52.949  1.00  0.00     0.298 A 
HETATM    3  O   UNL     1     -42.052  57.191 -54.017  1.00  0.00    -0.264 OA
HETATM    4  C   UNL     1     -41.368  55.290 -52.872  1.00  0.00     0.133 A 
HETATM    5  C   UNL     1     -41.134  54.631 -51.700  1.00  0.00     0.103 A 
HETATM    6  N   UNL     1     -41.420  55.180 -50.450  1.00  0.00    -0.239 NA
HETATM    7  C   UNL     1     -41.982  56.351 -50.527  1.00  0.00     0.239 A 
HETATM    8  N   UNL     1     -40.954  54.481 -53.893  1.00  0.00    -0.349 N 
HETATM    9  H   UNL     1     -40.998  54.720 -54.875  1.00  0.00     0.166 HD
HETATM   10  C   UNL     1     -40.480  53.288 -53.378  1.00  0.00     0.045 A 
HETATM   11  C   UNL     1     -40.581  53.365 -51.982  1.00  0.00     0.024 A 
HETATM   12  C   UNL     1     -39.974  52.160 -54.036  1.00  0.00     0.032 A 
HETATM   13  C   UNL     1     -39.563  51.083 -53.244  1.00  0.00     0.026 A 
HETATM   14  C   UNL     1     -39.653  51.140 -51.854  1.00  0.00     0.035 A 
HETATM   15 CL   UNL     1     -39.135  49.789 -50.918  1.00  0.00    -0.084 Cl
HETATM   16  C   UNL     1     -40.155  52.270 -51.205  1.00  0.00     0.040 A 
ENDROOT
BRANCH   1  17
HETATM   17  N   UNL     1     -42.898  58.308 -51.451  1.00  0.00    -0.175 NA
HETATM   18  C   UNL     1     -44.190  58.389 -51.433  1.00  0.00     0.150 C 
BRANCH  18  19
HETATM   19  C   UNL     1     -44.886  59.679 -51.244  1.00  0.00    -0.014 A 
HETATM   20  C   UNL     1     -46.000  59.955 -52.039  1.00  0.00     0.049 A 
HETATM   21  C   UNL     1     -46.672  61.160 -51.871  1.00  0.00     0.066 A 
HETATM   22  C   UNL     1     -46.251  62.092 -50.927  1.00  0.00     0.036 A 
HETATM   23  C   UNL     1     -45.136  61.813 -50.134  1.00  0.00     0.004 A 
HETATM   24  C   UNL     1     -44.449  60.606 -50.292  1.00  0.00     0.013 A 
BRANCH  21  25
HETATM   25  O   UNL     1     -47.757  61.394 -52.664  1.00  0.00    -0.361 OA
HETATM   26  H   UNL     1     -48.564  61.254 -52.142  1.00  0.00     0.217 HD
ENDBRANCH  21  25
ENDBRANCH  18  19
ENDBRANCH   1  17
TORSDOF 3
ENDMDL
MODEL 7
REMARK VINA RESULT:      -7.6      4.071      4.812
REMARK  3 active torsions:
REMARK  status: ('A' for Active; 'I' for Inactive)
REMARK    1  A    between atoms: C_3  and  O_4 
REMARK    2  A    between atoms: C_6  and  C_7 
REMARK    3  A    between atoms: N_8  and  N_9 
ROOT
HETATM    1  N   UNL     1     -42.952  55.485 -54.852  1.00  0.00    -0.189 N 
HETATM    2  C   UNL     1     -43.810  56.496 -54.383  1.00  0.00     0.298 A 
HETATM    3  O   UNL     1     -44.137  56.703 -53.219  1.00  0.00    -0.264 OA
HETATM    4  C   UNL     1     -44.273  57.322 -55.453  1.00  0.00     0.133 A 
HETATM    5  C   UNL     1     -43.859  57.193 -56.747  1.00  0.00     0.103 A 
HETATM    6  N   UNL     1     -42.920  56.245 -57.152  1.00  0.00    -0.239 NA
HETATM    7  C   UNL     1     -42.532  55.467 -56.183  1.00  0.00     0.239 A 
HETATM    8  N   UNL     1     -45.169  58.353 -55.405  1.00  0.00    -0.349 N 
HETATM    9  H   UNL     1     -45.632  58.678 -54.567  1.00  0.00     0.166 HD
HETATM   10  C   UNL     1     -45.353  58.868 -56.676  1.00  0.00     0.045 A 
HETATM   11  C   UNL     1     -44.523  58.147 -57.544  1.00  0.00     0.024 A 
HETATM   12  C   UNL     1     -46.182  59.908 -57.114  1.00  0.00     0.032 A 
HETATM   13  C   UNL     1     -46.161  60.216 -58.479  1.00  0.00     0.026 A 
HETATM   14  C   UNL     1     -45.341  59.512 -59.360  1.00  0.00     0.035 A 
HETATM   15 CL   UNL     1     -45.348  59.924 -61.033  1.00  0.00    -0.084 Cl
HETATM   16  C   UNL     1     -44.515  58.478 -58.913  1.00  0.00     0.040 A 
ENDROOT
BRANCH   1  17
HETATM   17  N   UNL     1     -42.348  54.538 -54.032  1.00  0.00    -0.175 NA
HETATM   18  C   UNL     1     -41.387  53.823 -54.523  1.00  0.00     0.150 C 
BRANCH  18  19
HETATM   19  C   UNL     1     -40.725  52.764 -53.733  1.00  0.00    -0.014 A 
HETATM   20  C   UNL     1     -40.431  51.552 -54.362  1.00  0.00     0.049 A 
HETATM   21  C   UNL     1     -39.803  50.546 -53.637  1.00  0.00     0.066 A 
HETATM   22  C   UNL     1     -39.464  50.728 -52.300  1.00  0.00     0.036 A 
HETATM   23  C   UNL     1     -39.760  51.941 -51.674  1.00  0.00     0.004 A 
HETATM   24  C   UNL     1     -40.393  52.962 -52.389  1.00  0.00     0.013 A 
BRANCH  21  25
HETATM   25  O   UNL     1     -39.530  49.377 -54.286  1.00  0.00    -0.361 OA
HETATM   26  H   UNL     1     -39.591  49.528 -55.244  1.00  0.00     0.217 HD
ENDBRANCH  21  25
ENDBRANCH  18  19
ENDBRANCH   1  17
TORSDOF 3
ENDMDL
MODEL 8
REMARK VINA RESULT:      -7.6      3.891      9.096
REMARK  3 active torsions:
REMARK  status: ('A' for Active; 'I' for Inactive)
REMARK    1  A    between atoms: C_3  and  O_4 
REMARK    2  A    between atoms: C_6  and  C_7 
REMARK    3  A    between atoms: N_8  and  N_9 
ROOT
HETATM    1  N   UNL     1     -41.798  56.706 -53.232  1.00  0.00    -0.189 N 
HETATM    2  C   UNL     1     -41.565  55.893 -54.356  1.00  0.00     0.298 A 
HETATM    3  O   UNL     1     -41.712  56.205 -55.534  1.00  0.00    -0.264 OA
HETATM    4  C   UNL     1     -41.087  54.602 -53.974  1.00  0.00     0.133 A 
HETATM    5  C   UNL     1     -40.812  54.243 -52.687  1.00  0.00     0.103 A 
HETATM    6  N   UNL     1     -40.953  55.117 -51.609  1.00  0.00    -0.239 NA
HETATM    7  C   UNL     1     -41.428  56.278 -51.956  1.00  0.00     0.239 A 
HETATM    8  N   UNL     1     -40.819  53.524 -54.771  1.00  0.00    -0.349 N 
HETATM    9  H   UNL     1     -40.924  53.508 -55.777  1.00  0.00     0.166 HD
HETATM   10  C   UNL     1     -40.400  52.462 -53.991  1.00  0.00     0.045 A 
HETATM   11  C   UNL     1     -40.382  52.901 -52.660  1.00  0.00     0.024 A 
HETATM   12  C   UNL     1     -40.037  51.161 -54.361  1.00  0.00     0.032 A 
HETATM   13  C   UNL     1     -39.648  50.287 -53.340  1.00  0.00     0.026 A 
HETATM   14  C   UNL     1     -39.622  50.704 -52.010  1.00  0.00     0.035 A 
HETATM   15 CL   UNL     1     -39.136  49.593 -50.785  1.00  0.00    -0.084 Cl
HETATM   16  C   UNL     1     -39.982  52.005 -51.650  1.00  0.00     0.040 A 
ENDROOT
BRANCH   1  17
HETATM   17  N   UNL     1     -42.261  58.014 -53.303  1.00  0.00    -0.175 NA
HETATM   18  C   UNL     1     -43.354  58.314 -52.678  1.00  0.00     0.150 C 
BRANCH  18  19
HETATM   19  C   UNL     1     -43.939  59.670 -52.742  1.00  0.00    -0.014 A 
HETATM   20  C   UNL     1     -45.329  59.793 -52.780  1.00  0.00     0.049 A 
HETATM   21  C   UNL     1     -45.898  61.060 -52.833  1.00  0.00     0.066 A 
HETATM   22  C   UNL     1     -45.104  62.204 -52.849  1.00  0.00     0.036 A 
HETATM   23  C   UNL     1     -43.714  62.077 -52.812  1.00  0.00     0.004 A 
HETATM   24  C   UNL     1     -43.128  60.809 -52.759  1.00  0.00     0.013 A 
BRANCH  21  25
HETATM   25  O   UNL     1     -47.259  61.140 -52.867  1.00  0.00    -0.361 OA
HETATM   26  H   UNL     1     -47.544  61.890 -52.319  1.00  0.00     0.217 HD
ENDBRANCH  21  25
ENDBRANCH  18  19
ENDBRANCH   1  17
TORSDOF 3
ENDMDL
MODEL 9
REMARK VINA RESULT:      -7.5      1.955      2.031
REMARK  3 active torsions:
REMARK  status: ('A' for Active; 'I' for Inactive)
REMARK    1  A    between atoms: C_3  and  O_4 
REMARK    2  A    between atoms: C_6  and  C_7 
REMARK    3  A    between atoms: N_8  and  N_9 
ROOT
HETATM    1  N   UNL     1     -41.976  56.330 -52.163  1.00  0.00    -0.189 N 
HETATM    2  C   UNL     1     -41.675  57.377 -51.275  1.00  0.00     0.298 A 
HETATM    3  O   UNL     1     -40.681  57.476 -50.562  1.00  0.00    -0.264 OA
HETATM    4  C   UNL     1     -42.684  58.389 -51.303  1.00  0.00     0.133 A 
HETATM    5  C   UNL     1     -43.752  58.373 -52.151  1.00  0.00     0.103 A 
HETATM    6  N   UNL     1     -43.957  57.367 -53.096  1.00  0.00    -0.239 NA
HETATM    7  C   UNL     1     -43.059  56.427 -53.038  1.00  0.00     0.239 A 
HETATM    8  N   UNL     1     -42.780  59.516 -50.536  1.00  0.00    -0.349 N 
HETATM    9  H   UNL     1     -42.114  59.790 -49.826  1.00  0.00     0.166 HD
HETATM   10  C   UNL     1     -43.928  60.210 -50.871  1.00  0.00     0.045 A 
HETATM   11  C   UNL     1     -44.560  59.502 -51.902  1.00  0.00     0.024 A 
HETATM   12  C   UNL     1     -44.447  61.399 -50.345  1.00  0.00     0.032 A 
HETATM   13  C   UNL     1     -45.646  61.874 -50.889  1.00  0.00     0.026 A 
HETATM   14  C   UNL     1     -46.289  61.186 -51.917  1.00  0.00     0.035 A 
HETATM   15 CL   UNL     1     -47.765  61.807 -52.555  1.00  0.00    -0.084 Cl
HETATM   16  C   UNL     1     -45.763  60.002 -52.438  1.00  0.00     0.040 A 
ENDROOT
BRANCH   1  17
HETATM   17  N   UNL     1     -41.169  55.213 -52.348  1.00  0.00    -0.175 NA
HETATM   18  C   UNL     1     -41.689  54.162 -52.897  1.00  0.00     0.150 C 
BRANCH  18  19
HETATM   19  C   UNL     1     -40.913  52.919 -53.086  1.00  0.00    -0.014 A 
HETATM   20  C   UNL     1     -40.366  52.300 -51.961  1.00  0.00     0.049 A 
HETATM   21  C   UNL     1     -39.639  51.126 -52.118  1.00  0.00     0.066 A 
HETATM   22  C   UNL     1     -39.448  50.561 -53.375  1.00  0.00     0.036 A 
HETATM   23  C   UNL     1     -39.997  51.183 -54.499  1.00  0.00     0.004 A 
HETATM   24  C   UNL     1     -40.729  52.365 -54.357  1.00  0.00     0.013 A 
BRANCH  21  25
HETATM   25  O   UNL     1     -39.121  50.549 -50.995  1.00  0.00    -0.361 OA
HETATM   26  H   UNL     1     -38.180  50.781 -50.928  1.00  0.00     0.217 HD
ENDBRANCH  21  25
ENDBRANCH  18  19
ENDBRANCH   1  17
TORSDOF 3
ENDMDL
MODEL 10
REMARK VINA RESULT:      -7.5     16.263     17.946
REMARK  3 active torsions:
REMARK  status: ('A' for Active; 'I' for Inactive)
REMARK    1  A    between atoms: C_3  and  O_4 
REMARK    2  A    between atoms: C_6  and  C_7 
REMARK    3  A    between atoms: N_8  and  N_9 
ROOT
HETATM    1  N   UNL     1     -35.626  40.304 -53.489  1.00  0.00    -0.189 N 
HETATM    2  C   UNL     1     -36.178  39.287 -54.288  1.00  0.00     0.298 A 
HETATM    3  O   UNL     1     -36.400  38.127 -53.954  1.00  0.00    -0.264 OA
HETATM    4  C   UNL     1     -36.499  39.769 -55.594  1.00  0.00     0.133 A 
HETATM    5  C   UNL     1     -36.365  41.071 -55.978  1.00  0.00     0.103 A 
HETATM    6  N   UNL     1     -35.915  42.074 -55.119  1.00  0.00    -0.239 NA
HETATM    7  C   UNL     1     -35.585  41.623 -53.943  1.00  0.00     0.239 A 
HETATM    8  N   UNL     1     -36.981  39.069 -56.665  1.00  0.00    -0.349 N 
HETATM    9  H   UNL     1     -37.186  38.078 -56.662  1.00  0.00     0.166 HD
HETATM   10  C   UNL     1     -37.128  39.917 -57.747  1.00  0.00     0.045 A 
HETATM   11  C   UNL     1     -36.747  41.199 -57.329  1.00  0.00     0.024 A 
HETATM   12  C   UNL     1     -37.568  39.647 -59.049  1.00  0.00     0.032 A 
HETATM   13  C   UNL     1     -37.616  40.719 -59.946  1.00  0.00     0.026 A 
HETATM   14  C   UNL     1     -37.243  42.003 -59.551  1.00  0.00     0.035 A 
HETATM   15 CL   UNL     1     -37.318  43.293 -60.691  1.00  0.00    -0.084 Cl
HETATM   16  C   UNL     1     -36.809  42.264 -58.249  1.00  0.00     0.040 A 
ENDROOT
BRANCH   1  17
HETATM   17  N   UNL     1     -35.225  40.124 -52.170  1.00  0.00    -0.175 NA
HETATM   18  C   UNL     1     -34.092  39.540 -51.947  1.00  0.00     0.150 C 
BRANCH  18  19
HETATM   19  C   UNL     1     -33.614  39.267 -50.575  1.00  0.00    -0.014 A 
HETATM   20  C   UNL     1     -32.324  39.673 -50.227  1.00  0.00     0.049 A 
HETATM   21  C   UNL     1     -31.860  39.432 -48.940  1.00  0.00     0.066 A 
HETATM   22  C   UNL     1     -32.660  38.794 -47.995  1.00  0.00     0.036 A 
HETATM   23  C   UNL     1     -33.949  38.389 -48.347  1.00  0.00     0.004 A 
HETATM   24  C   UNL     1     -34.429  38.624 -49.638  1.00  0.00     0.013 A 
BRANCH  21  25
HETATM   25  O   UNL     1     -30.596  39.844 -48.637  1.00  0.00    -0.361 OA
HETATM   26  H   UNL     1     -30.472  40.749 -48.968  1.00  0.00     0.217 HD
ENDBRANCH  21  25
ENDBRANCH  18  19
ENDBRANCH   1  17
TORSDOF 3
ENDMDL
