MODEL 1
REMARK VINA RESULT:      -7.6      0.000      0.000
REMARK  7 active torsions:
REMARK  status: ('A' for Active; 'I' for Inactive)
REMARK    1  A    between atoms: O_2  and  C_3 
REMARK    2  A    between atoms: C_4  and  O_5 
REMARK    3  A    between atoms: C_9  and  C_10 
REMARK    4  A    between atoms: C_10  and  N_11 
REMARK    5  A    between atoms: C_14  and  C_15 
REMARK    6  A    between atoms: C_15  and  N_16 
REMARK    7  A    between atoms: N_16  and  C_17 
ROOT
HETATM    1  N   UNL     1     -42.119  55.002 -53.944  1.00  0.00    -0.067 N 
HETATM    2  H   UNL     1     -42.272  53.986 -54.047  1.00  0.00     0.280 HD
HETATM    3  C   UNL     1     -41.654  55.535 -55.283  1.00  0.00     0.241 C 
HETATM    4  C   UNL     1     -42.527  56.763 -55.523  1.00  0.00     0.031 C 
HETATM    5  C   UNL     1     -43.863  56.315 -54.941  1.00  0.00     0.035 C 
HETATM    6  C   UNL     1     -43.464  55.631 -53.640  1.00  0.00     0.235 C 
ENDROOT
BRANCH   1   7
HETATM    7  C   UNL     1     -41.127  55.131 -52.807  1.00  0.00     0.274 C 
BRANCH   7   8
HETATM    8  C   UNL     1     -40.654  53.804 -52.270  1.00  0.00    -0.012 A 
HETATM    9  C   UNL     1     -40.693  53.492 -50.896  1.00  0.00     0.021 A 
HETATM   10  C   UNL     1     -40.278  52.243 -50.440  1.00  0.00     0.059 A 
HETATM   11 BR   UNL     1     -41.334  54.729 -49.606  1.00  0.00    -0.050 Br
HETATM   12  C   UNL     1     -39.829  51.299 -51.355  1.00  0.00     0.100 A 
HETATM   13  C   UNL     1     -39.773  51.570 -52.723  1.00  0.00     0.101 A 
HETATM   14  C   UNL     1     -40.176  52.828 -53.174  1.00  0.00     0.049 A 
BRANCH  12  15
HETATM   15  O   UNL     1     -39.446  50.081 -50.872  1.00  0.00    -0.358 OA
HETATM   16  H   UNL     1     -38.552  49.906 -51.229  1.00  0.00     0.218 HD
ENDBRANCH  12  15
BRANCH  13  17
HETATM   17  O   UNL     1     -39.325  50.537 -53.499  1.00  0.00    -0.353 OA
HETATM   18  C   UNL     1     -40.201  50.030 -54.498  1.00  0.00     0.210 C 
ENDBRANCH  13  17
ENDBRANCH   7   8
ENDBRANCH   1   7
BRANCH   4  19
HETATM   19  C   UNL     1     -42.564  57.159 -57.002  1.00  0.00     0.127 C 
BRANCH  19  20
HETATM   20  N   UNL     1     -42.735  55.984 -57.860  1.00  0.00    -0.376 N 
HETATM   21  H   UNL     1     -42.350  55.113 -57.510  1.00  0.00     0.161 HD
BRANCH  20  22
HETATM   22  C   UNL     1     -43.799  55.909 -58.745  1.00  0.00     0.100 A 
HETATM   23  N   UNL     1     -44.797  56.802 -58.617  1.00  0.00    -0.353 N 
HETATM   24  H   UNL     1     -44.736  57.486 -57.871  1.00  0.00     0.166 HD
HETATM   25  C   UNL     1     -45.882  56.830 -59.408  1.00  0.00     0.089 A 
HETATM   26  C   UNL     1     -46.028  55.899 -60.422  1.00  0.00     0.017 A 
HETATM   27  C   UNL     1     -45.043  54.938 -60.589  1.00  0.00     0.005 A 
HETATM   28  C   UNL     1     -43.931  54.936 -59.747  1.00  0.00     0.048 A 
ENDBRANCH  20  22
ENDBRANCH  19  20
ENDBRANCH   4  19
TORSDOF 7
ENDMDL
MODEL 2
REMARK VINA RESULT:      -7.2      1.415      1.838
REMARK  7 active torsions:
REMARK  status: ('A' for Active; 'I' for Inactive)
REMARK    1  A    between atoms: O_2  and  C_3 
REMARK    2  A    between atoms: C_4  and  O_5 
REMARK    3  A    between atoms: C_9  and  C_10 
REMARK    4  A    between atoms: C_10  and  N_11 
REMARK    5  A    between atoms: C_14  and  C_15 
REMARK    6  A    between atoms: C_15  and  N_16 
REMARK    7  A    between atoms: N_16  and  C_17 
ROOT
HETATM    1  N   UNL     1     -42.431  55.279 -52.709  1.00  0.00    -0.067 N 
HETATM    2  H   UNL     1     -42.840  54.366 -52.450  1.00  0.00     0.280 HD
HETATM    3  C   UNL     1     -42.732  55.519 -54.173  1.00  0.00     0.241 C 
HETATM    4  C   UNL     1     -43.276  56.944 -54.216  1.00  0.00     0.031 C 
HETATM    5  C   UNL     1     -44.077  57.011 -52.921  1.00  0.00     0.035 C 
HETATM    6  C   UNL     1     -43.160  56.340 -51.909  1.00  0.00     0.235 C 
ENDROOT
BRANCH   1   7
HETATM    7  C   UNL     1     -40.964  55.162 -52.352  1.00  0.00     0.274 C 
BRANCH   7   8
HETATM    8  C   UNL     1     -40.554  53.769 -51.945  1.00  0.00    -0.012 A 
HETATM    9  C   UNL     1     -40.615  53.327 -50.609  1.00  0.00     0.021 A 
HETATM   10  C   UNL     1     -40.259  52.022 -50.277  1.00  0.00     0.059 A 
HETATM   11 BR   UNL     1     -41.209  54.459 -49.205  1.00  0.00    -0.050 Br
HETATM   12  C   UNL     1     -39.847  51.152 -51.278  1.00  0.00     0.100 A 
HETATM   13  C   UNL     1     -39.770  51.553 -52.613  1.00  0.00     0.101 A 
HETATM   14  C   UNL     1     -40.114  52.865 -52.940  1.00  0.00     0.049 A 
BRANCH  12  15
HETATM   15  O   UNL     1     -39.521  49.877 -50.916  1.00  0.00    -0.358 OA
HETATM   16  H   UNL     1     -40.250  49.303 -51.225  1.00  0.00     0.218 HD
ENDBRANCH  12  15
BRANCH  13  17
HETATM   17  O   UNL     1     -39.364  50.581 -53.485  1.00  0.00    -0.353 OA
HETATM   18  C   UNL     1     -40.320  50.079 -54.410  1.00  0.00     0.210 C 
ENDBRANCH  13  17
ENDBRANCH   7   8
ENDBRANCH   1   7
BRANCH   4  19
HETATM   19  C   UNL     1     -44.082  57.210 -55.492  1.00  0.00     0.127 C 
BRANCH  19  20
HETATM   20  N   UNL     1     -43.779  56.218 -56.526  1.00  0.00    -0.376 N 
HETATM   21  H   UNL     1     -44.377  55.398 -56.551  1.00  0.00     0.161 HD
BRANCH  20  22
HETATM   22  C   UNL     1     -43.159  56.600 -57.705  1.00  0.00     0.100 A 
HETATM   23  N   UNL     1     -42.531  57.790 -57.739  1.00  0.00    -0.353 N 
HETATM   24  H   UNL     1     -42.548  58.364 -56.902  1.00  0.00     0.166 HD
HETATM   25  C   UNL     1     -41.899  58.272 -58.820  1.00  0.00     0.089 A 
HETATM   26  C   UNL     1     -41.874  57.541 -59.996  1.00  0.00     0.017 A 
HETATM   27  C   UNL     1     -42.524  56.317 -60.030  1.00  0.00     0.005 A 
HETATM   28  C   UNL     1     -43.174  55.848 -58.889  1.00  0.00     0.048 A 
ENDBRANCH  20  22
ENDBRANCH  19  20
ENDBRANCH   4  19
TORSDOF 7
ENDMDL
MODEL 3
REMARK VINA RESULT:      -7.1      4.294      7.377
REMARK  7 active torsions:
REMARK  status: ('A' for Active; 'I' for Inactive)
REMARK    1  A    between atoms: O_2  and  C_3 
REMARK    2  A    between atoms: C_4  and  O_5 
REMARK    3  A    between atoms: C_9  and  C_10 
REMARK    4  A    between atoms: C_10  and  N_11 
REMARK    5  A    between atoms: C_14  and  C_15 
REMARK    6  A    between atoms: C_15  and  N_16 
REMARK    7  A    between atoms: N_16  and  C_17 
ROOT
HETATM    1  N   UNL     1     -42.550  56.919 -50.554  1.00  0.00    -0.067 N 
HETATM    2  H   UNL     1     -42.747  57.402 -49.662  1.00  0.00     0.280 HD
HETATM    3  C   UNL     1     -41.373  55.995 -50.326  1.00  0.00     0.241 C 
HETATM    4  C   UNL     1     -41.819  54.664 -50.926  1.00  0.00     0.031 C 
HETATM    5  C   UNL     1     -43.300  54.640 -50.567  1.00  0.00     0.035 C 
HETATM    6  C   UNL     1     -43.756  56.059 -50.875  1.00  0.00     0.235 C 
ENDROOT
BRANCH   1   7
HETATM    7  C   UNL     1     -42.325  58.033 -51.555  1.00  0.00     0.274 C 
BRANCH   7   8
HETATM    8  C   UNL     1     -43.039  57.814 -52.866  1.00  0.00    -0.012 A 
HETATM    9  C   UNL     1     -44.252  58.460 -53.177  1.00  0.00     0.021 A 
HETATM   10  C   UNL     1     -44.866  58.259 -54.411  1.00  0.00     0.059 A 
HETATM   11 BR   UNL     1     -45.095  59.650 -51.961  1.00  0.00    -0.050 Br
HETATM   12  C   UNL     1     -44.267  57.418 -55.341  1.00  0.00     0.100 A 
HETATM   13  C   UNL     1     -43.067  56.758 -55.069  1.00  0.00     0.101 A 
HETATM   14  C   UNL     1     -42.463  56.951 -53.826  1.00  0.00     0.049 A 
BRANCH  12  15
HETATM   15  O   UNL     1     -44.889  57.258 -56.545  1.00  0.00    -0.358 OA
HETATM   16  H   UNL     1     -44.198  57.340 -57.231  1.00  0.00     0.218 HD
ENDBRANCH  12  15
BRANCH  13  17
HETATM   17  O   UNL     1     -42.593  55.978 -56.087  1.00  0.00    -0.353 OA
HETATM   18  C   UNL     1     -41.927  54.770 -55.742  1.00  0.00     0.210 C 
ENDBRANCH  13  17
ENDBRANCH   7   8
ENDBRANCH   1   7
BRANCH   4  19
HETATM   19  C   UNL     1     -41.001  53.488 -50.383  1.00  0.00     0.127 C 
BRANCH  19  20
HETATM   20  N   UNL     1     -39.845  53.208 -51.238  1.00  0.00    -0.376 N 
HETATM   21  H   UNL     1     -38.939  53.482 -50.873  1.00  0.00     0.161 HD
BRANCH  20  22
HETATM   22  C   UNL     1     -39.884  52.166 -52.151  1.00  0.00     0.100 A 
HETATM   23  N   UNL     1     -39.569  50.930 -51.721  1.00  0.00    -0.353 N 
HETATM   24  H   UNL     1     -39.303  50.814 -50.748  1.00  0.00     0.166 HD
HETATM   25  C   UNL     1     -39.565  49.842 -52.508  1.00  0.00     0.089 A 
HETATM   26  C   UNL     1     -39.890  49.951 -53.849  1.00  0.00     0.017 A 
HETATM   27  C   UNL     1     -40.203  51.203 -54.356  1.00  0.00     0.005 A 
HETATM   28  C   UNL     1     -40.193  52.313 -53.511  1.00  0.00     0.048 A 
ENDBRANCH  20  22
ENDBRANCH  19  20
ENDBRANCH   4  19
TORSDOF 7
ENDMDL
MODEL 4
REMARK VINA RESULT:      -6.9      2.923      5.343
REMARK  7 active torsions:
REMARK  status: ('A' for Active; 'I' for Inactive)
REMARK    1  A    between atoms: O_2  and  C_3 
REMARK    2  A    between atoms: C_4  and  O_5 
REMARK    3  A    between atoms: C_9  and  C_10 
REMARK    4  A    between atoms: C_10  and  N_11 
REMARK    5  A    between atoms: C_14  and  C_15 
REMARK    6  A    between atoms: C_15  and  N_16 
REMARK    7  A    between atoms: N_16  and  C_17 
ROOT
HETATM    1  N   UNL     1     -42.066  55.413 -55.866  1.00  0.00    -0.067 N 
HETATM    2  H   UNL     1     -41.231  54.973 -56.287  1.00  0.00     0.280 HD
HETATM    3  C   UNL     1     -41.599  56.603 -55.054  1.00  0.00     0.241 C 
HETATM    4  C   UNL     1     -42.524  57.738 -55.485  1.00  0.00     0.031 C 
HETATM    5  C   UNL     1     -42.707  57.445 -56.969  1.00  0.00     0.035 C 
HETATM    6  C   UNL     1     -42.920  55.938 -57.003  1.00  0.00     0.235 C 
ENDROOT
BRANCH   1   7
HETATM    7  C   UNL     1     -42.733  54.304 -55.079  1.00  0.00     0.274 C 
BRANCH   7   8
HETATM    8  C   UNL     1     -41.829  53.670 -54.052  1.00  0.00    -0.012 A 
HETATM    9  C   UNL     1     -41.925  53.970 -52.679  1.00  0.00     0.021 A 
HETATM   10  C   UNL     1     -41.095  53.340 -51.755  1.00  0.00     0.059 A 
HETATM   11 BR   UNL     1     -43.197  55.213 -52.011  1.00  0.00    -0.050 Br
HETATM   12  C   UNL     1     -40.171  52.403 -52.199  1.00  0.00     0.100 A 
HETATM   13  C   UNL     1     -40.043  52.080 -53.551  1.00  0.00     0.101 A 
HETATM   14  C   UNL     1     -40.867  52.725 -54.475  1.00  0.00     0.049 A 
BRANCH  12  15
HETATM   15  O   UNL     1     -39.386  51.794 -51.263  1.00  0.00    -0.358 OA
HETATM   16  H   UNL     1     -38.473  51.804 -51.612  1.00  0.00     0.218 HD
ENDBRANCH  12  15
BRANCH  13  17
HETATM   17  O   UNL     1     -39.102  51.128 -53.831  1.00  0.00    -0.353 OA
HETATM   18  C   UNL     1     -39.558  49.849 -54.254  1.00  0.00     0.210 C 
ENDBRANCH  13  17
ENDBRANCH   7   8
ENDBRANCH   1   7
BRANCH   4  19
HETATM   19  C   UNL     1     -41.929  59.113 -55.164  1.00  0.00     0.127 C 
BRANCH  19  20
HETATM   20  N   UNL     1     -42.512  59.669 -53.941  1.00  0.00    -0.376 N 
HETATM   21  H   UNL     1     -43.526  59.687 -53.894  1.00  0.00     0.161 HD
BRANCH  20  22
HETATM   22  C   UNL     1     -41.813  59.622 -52.745  1.00  0.00     0.100 A 
HETATM   23  N   UNL     1     -42.359  60.209 -51.664  1.00  0.00    -0.353 N 
HETATM   24  H   UNL     1     -43.255  60.674 -51.772  1.00  0.00     0.166 HD
HETATM   25  C   UNL     1     -41.779  60.235 -50.454  1.00  0.00     0.089 A 
HETATM   26  C   UNL     1     -40.542  59.643 -50.261  1.00  0.00     0.017 A 
HETATM   27  C   UNL     1     -39.919  59.041 -51.343  1.00  0.00     0.005 A 
HETATM   28  C   UNL     1     -40.548  59.036 -52.588  1.00  0.00     0.048 A 
ENDBRANCH  20  22
ENDBRANCH  19  20
ENDBRANCH   4  19
TORSDOF 7
ENDMDL
MODEL 5
REMARK VINA RESULT:      -6.8      1.592      2.293
REMARK  7 active torsions:
REMARK  status: ('A' for Active; 'I' for Inactive)
REMARK    1  A    between atoms: O_2  and  C_3 
REMARK    2  A    between atoms: C_4  and  O_5 
REMARK    3  A    between atoms: C_9  and  C_10 
REMARK    4  A    between atoms: C_10  and  N_11 
REMARK    5  A    between atoms: C_14  and  C_15 
REMARK    6  A    between atoms: C_15  and  N_16 
REMARK    7  A    between atoms: N_16  and  C_17 
ROOT
HETATM    1  N   UNL     1     -42.156  54.673 -53.886  1.00  0.00    -0.067 N 
HETATM    2  H   UNL     1     -42.634  53.862 -53.462  1.00  0.00     0.280 HD
HETATM    3  C   UNL     1     -42.123  54.456 -55.384  1.00  0.00     0.241 C 
HETATM    4  C   UNL     1     -42.608  55.780 -55.967  1.00  0.00     0.031 C 
HETATM    5  C   UNL     1     -43.671  56.195 -54.957  1.00  0.00     0.035 C 
HETATM    6  C   UNL     1     -43.015  55.893 -53.617  1.00  0.00     0.235 C 
ENDROOT
BRANCH   1   7
HETATM    7  C   UNL     1     -40.806  54.729 -53.202  1.00  0.00     0.274 C 
BRANCH   7   8
HETATM    8  C   UNL     1     -40.443  53.452 -52.487  1.00  0.00    -0.012 A 
HETATM    9  C   UNL     1     -40.489  53.337 -51.083  1.00  0.00     0.021 A 
HETATM   10  C   UNL     1     -40.177  52.131 -50.460  1.00  0.00     0.059 A 
HETATM   11 BR   UNL     1     -41.003  54.791 -49.975  1.00  0.00    -0.050 Br
HETATM   12  C   UNL     1     -39.825  51.035 -51.235  1.00  0.00     0.100 A 
HETATM   13  C   UNL     1     -39.764  51.109 -52.628  1.00  0.00     0.101 A 
HETATM   14  C   UNL     1     -40.063  52.323 -53.248  1.00  0.00     0.049 A 
BRANCH  12  15
HETATM   15  O   UNL     1     -39.542  49.866 -50.590  1.00  0.00    -0.358 OA
HETATM   16  H   UNL     1     -39.731  49.144 -51.221  1.00  0.00     0.218 HD
ENDBRANCH  12  15
BRANCH  13  17
HETATM   17  O   UNL     1     -39.418  49.944 -53.254  1.00  0.00    -0.353 OA
HETATM   18  C   UNL     1     -39.755  49.805 -54.629  1.00  0.00     0.210 C 
ENDBRANCH  13  17
ENDBRANCH   7   8
ENDBRANCH   1   7
BRANCH   4  19
HETATM   19  C   UNL     1     -43.108  55.622 -57.407  1.00  0.00     0.127 C 
BRANCH  19  20
HETATM   20  N   UNL     1     -43.889  56.788 -57.826  1.00  0.00    -0.376 N 
HETATM   21  H   UNL     1     -44.727  56.983 -57.290  1.00  0.00     0.161 HD
BRANCH  20  22
HETATM   22  C   UNL     1     -43.274  57.849 -58.472  1.00  0.00     0.100 A 
HETATM   23  N   UNL     1     -43.227  57.836 -59.817  1.00  0.00    -0.353 N 
HETATM   24  H   UNL     1     -43.632  57.042 -60.303  1.00  0.00     0.166 HD
HETATM   25  C   UNL     1     -42.657  58.801 -60.555  1.00  0.00     0.089 A 
HETATM   26  C   UNL     1     -42.063  59.890 -59.939  1.00  0.00     0.017 A 
HETATM   27  C   UNL     1     -42.060  59.949 -58.554  1.00  0.00     0.005 A 
HETATM   28  C   UNL     1     -42.657  58.926 -57.818  1.00  0.00     0.048 A 
ENDBRANCH  20  22
ENDBRANCH  19  20
ENDBRANCH   4  19
TORSDOF 7
ENDMDL
MODEL 6
REMARK VINA RESULT:      -6.7      3.817      7.764
REMARK  7 active torsions:
REMARK  status: ('A' for Active; 'I' for Inactive)
REMARK    1  A    between atoms: O_2  and  C_3 
REMARK    2  A    between atoms: C_4  and  O_5 
REMARK    3  A    between atoms: C_9  and  C_10 
REMARK    4  A    between atoms: C_10  and  N_11 
REMARK    5  A    between atoms: C_14  and  C_15 
REMARK    6  A    between atoms: C_15  and  N_16 
REMARK    7  A    between atoms: N_16  and  C_17 
ROOT
HETATM    1  N   UNL     1     -43.775  58.248 -54.716  1.00  0.00    -0.067 N 
HETATM    2  H   UNL     1     -43.097  59.027 -54.704  1.00  0.00     0.280 HD
HETATM    3  C   UNL     1     -42.999  56.960 -54.544  1.00  0.00     0.241 C 
HETATM    4  C   UNL     1     -43.757  56.205 -53.456  1.00  0.00     0.031 C 
HETATM    5  C   UNL     1     -44.190  57.340 -52.534  1.00  0.00     0.035 C 
HETATM    6  C   UNL     1     -44.669  58.412 -53.502  1.00  0.00     0.235 C 
ENDROOT
BRANCH   1   7
HETATM    7  C   UNL     1     -44.515  58.397 -56.028  1.00  0.00     0.274 C 
BRANCH   7   8
HETATM    8  C   UNL     1     -43.692  58.004 -57.230  1.00  0.00    -0.012 A 
HETATM    9  C   UNL     1     -42.640  58.806 -57.714  1.00  0.00     0.021 A 
HETATM   10  C   UNL     1     -41.880  58.395 -58.807  1.00  0.00     0.059 A 
HETATM   11 BR   UNL     1     -42.181  60.458 -56.898  1.00  0.00    -0.050 Br
HETATM   12  C   UNL     1     -42.165  57.179 -59.415  1.00  0.00     0.100 A 
HETATM   13  C   UNL     1     -43.201  56.358 -58.966  1.00  0.00     0.101 A 
HETATM   14  C   UNL     1     -43.969  56.780 -57.881  1.00  0.00     0.049 A 
BRANCH  12  15
HETATM   15  O   UNL     1     -41.388  56.802 -60.472  1.00  0.00    -0.358 OA
HETATM   16  H   UNL     1     -41.888  57.029 -61.282  1.00  0.00     0.218 HD
ENDBRANCH  12  15
BRANCH  13  17
HETATM   17  O   UNL     1     -43.348  55.185 -59.655  1.00  0.00    -0.353 OA
HETATM   18  C   UNL     1     -44.649  54.851 -60.123  1.00  0.00     0.210 C 
ENDBRANCH  13  17
ENDBRANCH   7   8
ENDBRANCH   1   7
BRANCH   4  19
HETATM   19  C   UNL     1     -42.890  55.128 -52.796  1.00  0.00     0.127 C 
BRANCH  19  20
HETATM   20  N   UNL     1     -41.835  54.670 -53.702  1.00  0.00    -0.376 N 
HETATM   21  H   UNL     1     -41.423  55.374 -54.304  1.00  0.00     0.161 HD
BRANCH  20  22
HETATM   22  C   UNL     1     -41.061  53.567 -53.378  1.00  0.00     0.100 A 
HETATM   23  N   UNL     1     -40.595  53.463 -52.119  1.00  0.00    -0.353 N 
HETATM   24  H   UNL     1     -40.820  54.203 -51.463  1.00  0.00     0.166 HD
HETATM   25  C   UNL     1     -39.833  52.447 -51.685  1.00  0.00     0.089 A 
HETATM   26  C   UNL     1     -39.474  51.427 -52.549  1.00  0.00     0.017 A 
HETATM   27  C   UNL     1     -39.905  51.489 -53.866  1.00  0.00     0.005 A 
HETATM   28  C   UNL     1     -40.691  52.562 -54.284  1.00  0.00     0.048 A 
ENDBRANCH  20  22
ENDBRANCH  19  20
ENDBRANCH   4  19
TORSDOF 7
ENDMDL
MODEL 7
REMARK VINA RESULT:      -6.7      4.544      6.659
REMARK  7 active torsions:
REMARK  status: ('A' for Active; 'I' for Inactive)
REMARK    1  A    between atoms: O_2  and  C_3 
REMARK    2  A    between atoms: C_4  and  O_5 
REMARK    3  A    between atoms: C_9  and  C_10 
REMARK    4  A    between atoms: C_10  and  N_11 
REMARK    5  A    between atoms: C_14  and  C_15 
REMARK    6  A    between atoms: C_15  and  N_16 
REMARK    7  A    between atoms: N_16  and  C_17 
ROOT
HETATM    1  N   UNL     1     -41.013  56.346 -52.620  1.00  0.00    -0.067 N 
HETATM    2  H   UNL     1     -40.051  56.015 -52.439  1.00  0.00     0.280 HD
HETATM    3  C   UNL     1     -41.356  57.367 -51.556  1.00  0.00     0.241 C 
HETATM    4  C   UNL     1     -41.938  58.542 -52.336  1.00  0.00     0.031 C 
HETATM    5  C   UNL     1     -41.078  58.537 -53.595  1.00  0.00     0.035 C 
HETATM    6  C   UNL     1     -40.999  57.060 -53.957  1.00  0.00     0.235 C 
ENDROOT
BRANCH   1   7
HETATM    7  C   UNL     1     -41.861  55.091 -52.622  1.00  0.00     0.274 C 
BRANCH   7   8
HETATM    8  C   UNL     1     -41.094  53.848 -52.247  1.00  0.00    -0.012 A 
HETATM    9  C   UNL     1     -40.917  53.450 -50.907  1.00  0.00     0.021 A 
HETATM   10  C   UNL     1     -40.230  52.277 -50.601  1.00  0.00     0.059 A 
HETATM   11 BR   UNL     1     -41.621  54.458 -49.460  1.00  0.00    -0.050 Br
HETATM   12  C   UNL     1     -39.724  51.495 -51.631  1.00  0.00     0.100 A 
HETATM   13  C   UNL     1     -39.876  51.857 -52.971  1.00  0.00     0.101 A 
HETATM   14  C   UNL     1     -40.552  53.040 -53.273  1.00  0.00     0.049 A 
BRANCH  12  15
HETATM   15  O   UNL     1     -39.071  50.345 -51.293  1.00  0.00    -0.358 OA
HETATM   16  H   UNL     1     -38.126  50.577 -51.195  1.00  0.00     0.218 HD
ENDBRANCH  12  15
BRANCH  13  17
HETATM   17  O   UNL     1     -39.339  50.979 -53.871  1.00  0.00    -0.353 OA
HETATM   18  C   UNL     1     -40.202  50.002 -54.441  1.00  0.00     0.210 C 
ENDBRANCH  13  17
ENDBRANCH   7   8
ENDBRANCH   1   7
BRANCH   4  19
HETATM   19  C   UNL     1     -41.896  59.843 -51.528  1.00  0.00     0.127 C 
BRANCH  19  20
HETATM   20  N   UNL     1     -42.910  59.842 -50.471  1.00  0.00    -0.376 N 
HETATM   21  H   UNL     1     -42.946  59.015 -49.884  1.00  0.00     0.161 HD
BRANCH  20  22
HETATM   22  C   UNL     1     -43.364  61.035 -49.933  1.00  0.00     0.100 A 
HETATM   23  N   UNL     1     -44.218  60.982 -48.894  1.00  0.00    -0.353 N 
HETATM   24  H   UNL     1     -44.504  60.069 -48.555  1.00  0.00     0.166 HD
HETATM   25  C   UNL     1     -44.730  62.066 -48.290  1.00  0.00     0.089 A 
HETATM   26  C   UNL     1     -44.395  63.334 -48.733  1.00  0.00     0.017 A 
HETATM   27  C   UNL     1     -43.537  63.454 -49.815  1.00  0.00     0.005 A 
HETATM   28  C   UNL     1     -43.027  62.306 -50.422  1.00  0.00     0.048 A 
ENDBRANCH  20  22
ENDBRANCH  19  20
ENDBRANCH   4  19
TORSDOF 7
ENDMDL
MODEL 8
REMARK VINA RESULT:      -6.6      1.650      2.331
REMARK  7 active torsions:
REMARK  status: ('A' for Active; 'I' for Inactive)
REMARK    1  A    between atoms: O_2  and  C_3 
REMARK    2  A    between atoms: C_4  and  O_5 
REMARK    3  A    between atoms: C_9  and  C_10 
REMARK    4  A    between atoms: C_10  and  N_11 
REMARK    5  A    between atoms: C_14  and  C_15 
REMARK    6  A    between atoms: C_15  and  N_16 
REMARK    7  A    between atoms: N_16  and  C_17 
ROOT
HETATM    1  N   UNL     1     -41.988  54.834 -54.087  1.00  0.00    -0.067 N 
HETATM    2  H   UNL     1     -42.147  53.836 -53.875  1.00  0.00     0.280 HD
HETATM    3  C   UNL     1     -41.879  54.972 -55.591  1.00  0.00     0.241 C 
HETATM    4  C   UNL     1     -42.801  56.139 -55.930  1.00  0.00     0.031 C 
HETATM    5  C   UNL     1     -43.943  55.931 -54.941  1.00  0.00     0.035 C 
HETATM    6  C   UNL     1     -43.223  55.592 -53.644  1.00  0.00     0.235 C 
ENDROOT
BRANCH   1   7
HETATM    7  C   UNL     1     -40.745  55.203 -53.304  1.00  0.00     0.274 C 
BRANCH   7   8
HETATM    8  C   UNL     1     -40.753  54.685 -51.888  1.00  0.00    -0.012 A 
HETATM    9  C   UNL     1     -41.018  55.519 -50.784  1.00  0.00     0.021 A 
HETATM   10  C   UNL     1     -41.049  54.999 -49.492  1.00  0.00     0.059 A 
HETATM   11 BR   UNL     1     -41.377  57.373 -50.992  1.00  0.00    -0.050 Br
HETATM   12  C   UNL     1     -40.821  53.643 -49.299  1.00  0.00     0.100 A 
HETATM   13  C   UNL     1     -40.552  52.784 -50.366  1.00  0.00     0.101 A 
HETATM   14  C   UNL     1     -40.508  53.312 -51.657  1.00  0.00     0.049 A 
BRANCH  12  15
HETATM   15  O   UNL     1     -40.876  53.166 -48.021  1.00  0.00    -0.358 OA
HETATM   16  H   UNL     1     -39.991  52.801 -47.820  1.00  0.00     0.218 HD
ENDBRANCH  12  15
BRANCH  13  17
HETATM   17  O   UNL     1     -40.366  51.474 -50.021  1.00  0.00    -0.353 OA
HETATM   18  C   UNL     1     -39.723  50.624 -50.963  1.00  0.00     0.210 C 
ENDBRANCH  13  17
ENDBRANCH   7   8
ENDBRANCH   1   7
BRANCH   4  19
HETATM   19  C   UNL     1     -43.212  56.135 -57.405  1.00  0.00     0.127 C 
BRANCH  19  20
HETATM   20  N   UNL     1     -44.347  57.030 -57.641  1.00  0.00    -0.376 N 
HETATM   21  H   UNL     1     -44.254  57.977 -57.288  1.00  0.00     0.161 HD
BRANCH  20  22
HETATM   22  C   UNL     1     -45.189  56.827 -58.723  1.00  0.00     0.100 A 
HETATM   23  N   UNL     1     -45.049  55.693 -59.435  1.00  0.00    -0.353 N 
HETATM   24  H   UNL     1     -44.325  55.039 -59.156  1.00  0.00     0.166 HD
HETATM   25  C   UNL     1     -45.799  55.383 -60.504  1.00  0.00     0.089 A 
HETATM   26  C   UNL     1     -46.781  56.256 -60.943  1.00  0.00     0.017 A 
HETATM   27  C   UNL     1     -46.957  57.452 -60.264  1.00  0.00     0.005 A 
HETATM   28  C   UNL     1     -46.157  57.743 -59.160  1.00  0.00     0.048 A 
ENDBRANCH  20  22
ENDBRANCH  19  20
ENDBRANCH   4  19
TORSDOF 7
ENDMDL
MODEL 9
REMARK VINA RESULT:      -6.6      5.026      8.050
REMARK  7 active torsions:
REMARK  status: ('A' for Active; 'I' for Inactive)
REMARK    1  A    between atoms: O_2  and  C_3 
REMARK    2  A    between atoms: C_4  and  O_5 
REMARK    3  A    between atoms: C_9  and  C_10 
REMARK    4  A    between atoms: C_10  and  N_11 
REMARK    5  A    between atoms: C_14  and  C_15 
REMARK    6  A    between atoms: C_15  and  N_16 
REMARK    7  A    between atoms: N_16  and  C_17 
ROOT
HETATM    1  N   UNL     1     -43.360  56.283 -50.695  1.00  0.00    -0.067 N 
HETATM    2  H   UNL     1     -43.420  56.758 -49.780  1.00  0.00     0.280 HD
HETATM    3  C   UNL     1     -41.901  56.243 -51.097  1.00  0.00     0.241 C 
HETATM    4  C   UNL     1     -41.667  54.795 -51.520  1.00  0.00     0.031 C 
HETATM    5  C   UNL     1     -42.538  54.035 -50.526  1.00  0.00     0.035 C 
HETATM    6  C   UNL     1     -43.821  54.854 -50.490  1.00  0.00     0.235 C 
ENDROOT
BRANCH   1   7
HETATM    7  C   UNL     1     -44.269  57.080 -51.607  1.00  0.00     0.274 C 
BRANCH   7   8
HETATM    8  C   UNL     1     -43.526  57.868 -52.656  1.00  0.00    -0.012 A 
HETATM    9  C   UNL     1     -43.214  57.328 -53.919  1.00  0.00     0.021 A 
HETATM   10  C   UNL     1     -42.555  58.097 -54.876  1.00  0.00     0.059 A 
HETATM   11 BR   UNL     1     -43.696  55.555 -54.399  1.00  0.00    -0.050 Br
HETATM   12  C   UNL     1     -42.210  59.409 -54.576  1.00  0.00     0.100 A 
HETATM   13  C   UNL     1     -42.499  59.978 -53.335  1.00  0.00     0.101 A 
HETATM   14  C   UNL     1     -43.146  59.200 -52.374  1.00  0.00     0.049 A 
BRANCH  12  15
HETATM   15  O   UNL     1     -41.580  60.136 -55.544  1.00  0.00    -0.358 OA
HETATM   16  H   UNL     1     -42.231  60.785 -55.877  1.00  0.00     0.218 HD
ENDBRANCH  12  15
BRANCH  13  17
HETATM   17  O   UNL     1     -42.113  61.283 -53.194  1.00  0.00    -0.353 OA
HETATM   18  C   UNL     1     -43.125  62.282 -53.239  1.00  0.00     0.210 C 
ENDBRANCH  13  17
ENDBRANCH   7   8
ENDBRANCH   1   7
BRANCH   4  19
HETATM   19  C   UNL     1     -40.181  54.424 -51.496  1.00  0.00     0.127 C 
BRANCH  19  20
HETATM   20  N   UNL     1     -39.990  53.026 -51.105  1.00  0.00    -0.376 N 
HETATM   21  H   UNL     1     -40.304  52.773 -50.174  1.00  0.00     0.161 HD
BRANCH  20  22
HETATM   22  C   UNL     1     -39.952  52.027 -52.066  1.00  0.00     0.100 A 
HETATM   23  N   UNL     1     -39.624  50.781 -51.676  1.00  0.00    -0.353 N 
HETATM   24  H   UNL     1     -39.407  50.627 -50.697  1.00  0.00     0.166 HD
HETATM   25  C   UNL     1     -39.548  49.732 -52.511  1.00  0.00     0.089 A 
HETATM   26  C   UNL     1     -39.805  49.897 -53.861  1.00  0.00     0.017 A 
HETATM   27  C   UNL     1     -40.126  51.163 -54.327  1.00  0.00     0.005 A 
HETATM   28  C   UNL     1     -40.192  52.231 -53.432  1.00  0.00     0.048 A 
ENDBRANCH  20  22
ENDBRANCH  19  20
ENDBRANCH   4  19
TORSDOF 7
ENDMDL
MODEL 10
REMARK VINA RESULT:      -6.5      2.961      3.869
REMARK  7 active torsions:
REMARK  status: ('A' for Active; 'I' for Inactive)
REMARK    1  A    between atoms: O_2  and  C_3 
REMARK    2  A    between atoms: C_4  and  O_5 
REMARK    3  A    between atoms: C_9  and  C_10 
REMARK    4  A    between atoms: C_10  and  N_11 
REMARK    5  A    between atoms: C_14  and  C_15 
REMARK    6  A    between atoms: C_15  and  N_16 
REMARK    7  A    between atoms: N_16  and  C_17 
ROOT
HETATM    1  N   UNL     1     -42.476  55.495 -55.917  1.00  0.00    -0.067 N 
HETATM    2  H   UNL     1     -41.478  55.233 -55.966  1.00  0.00     0.280 HD
HETATM    3  C   UNL     1     -42.551  56.942 -55.477  1.00  0.00     0.241 C 
HETATM    4  C   UNL     1     -43.524  57.584 -56.463  1.00  0.00     0.031 C 
HETATM    5  C   UNL     1     -43.176  56.862 -57.760  1.00  0.00     0.035 C 
HETATM    6  C   UNL     1     -43.033  55.411 -57.323  1.00  0.00     0.235 C 
ENDROOT
BRANCH   1   7
HETATM    7  C   UNL     1     -43.093  54.489 -54.967  1.00  0.00     0.274 C 
BRANCH   7   8
HETATM    8  C   UNL     1     -42.103  53.892 -53.999  1.00  0.00    -0.012 A 
HETATM    9  C   UNL     1     -42.044  54.284 -52.647  1.00  0.00     0.021 A 
HETATM   10  C   UNL     1     -41.138  53.687 -51.774  1.00  0.00     0.059 A 
HETATM   11 BR   UNL     1     -43.204  55.610 -51.936  1.00  0.00    -0.050 Br
HETATM   12  C   UNL     1     -40.292  52.692 -52.246  1.00  0.00     0.100 A 
HETATM   13  C   UNL     1     -40.318  52.278 -53.579  1.00  0.00     0.101 A 
HETATM   14  C   UNL     1     -41.217  52.889 -54.454  1.00  0.00     0.049 A 
BRANCH  12  15
HETATM   15  O   UNL     1     -39.429  52.118 -51.358  1.00  0.00    -0.358 OA
HETATM   16  H   UNL     1     -38.711  52.765 -51.207  1.00  0.00     0.218 HD
ENDBRANCH  12  15
BRANCH  13  17
HETATM   17  O   UNL     1     -39.437  51.278 -53.890  1.00  0.00    -0.353 OA
HETATM   18  C   UNL     1     -39.972  50.050 -54.368  1.00  0.00     0.210 C 
ENDBRANCH  13  17
ENDBRANCH   7   8
ENDBRANCH   1   7
BRANCH   4  19
HETATM   19  C   UNL     1     -43.371  59.108 -56.507  1.00  0.00     0.127 C 
BRANCH  19  20
HETATM   20  N   UNL     1     -41.992  59.492 -56.815  1.00  0.00    -0.376 N 
HETATM   21  H   UNL     1     -41.271  58.828 -56.555  1.00  0.00     0.161 HD
BRANCH  20  22
HETATM   22  C   UNL     1     -41.723  60.357 -57.865  1.00  0.00     0.100 A 
HETATM   23  N   UNL     1     -41.210  61.568 -57.578  1.00  0.00    -0.353 N 
HETATM   24  H   UNL     1     -41.054  61.802 -56.603  1.00  0.00     0.166 HD
HETATM   25  C   UNL     1     -40.911  62.493 -58.503  1.00  0.00     0.089 A 
HETATM   26  C   UNL     1     -41.135  62.233 -59.845  1.00  0.00     0.017 A 
HETATM   27  C   UNL     1     -41.683  61.010 -60.202  1.00  0.00     0.005 A 
HETATM   28  C   UNL     1     -41.985  60.074 -59.213  1.00  0.00     0.048 A 
ENDBRANCH  20  22
ENDBRANCH  19  20
ENDBRANCH   4  19
TORSDOF 7
ENDMDL
