MODEL 1
REMARK VINA RESULT:      -7.2      0.000      0.000
REMARK  6 active torsions:
REMARK  status: ('A' for Active; 'I' for Inactive)
REMARK    1  A    between atoms: C_2  and  C_3 
REMARK    2  A    between atoms: C_5  and  C_6 
REMARK       I    between atoms: C_6  and  N_7 
REMARK    3  A    between atoms: N_7  and  C_8 
REMARK    4  A    between atoms: C_8  and  C_9 
REMARK    5  A    between atoms: C_9  and  C_10 
REMARK    6  A    between atoms: C_19  and  O_20 
ROOT
HETATM    1  C   UNL     1     -41.957  54.966 -50.560  1.00  0.00     0.254 C 
HETATM    2  N   UNL     1     -42.993  55.437 -51.334  1.00  0.00    -0.356 N 
HETATM    3  O   UNL     1     -41.680  55.451 -49.467  1.00  0.00    -0.268 OA
HETATM    4  H   UNL     1     -43.189  54.933 -52.195  1.00  0.00     0.162 HD
ENDROOT
BRANCH   1   5
HETATM    5  C   UNL     1     -41.167  53.813 -51.104  1.00  0.00     0.065 A 
HETATM    6  C   UNL     1     -41.053  53.728 -52.503  1.00  0.00     0.027 A 
HETATM    7  C   UNL     1     -40.335  52.690 -53.115  1.00  0.00    -0.057 A 
HETATM    8  C   UNL     1     -39.715  51.730 -52.310  1.00  0.00     0.010 A 
HETATM    9  C   UNL     1     -39.818  51.798 -50.920  1.00  0.00     0.038 A 
HETATM   10  C   UNL     1     -40.540  52.834 -50.319  1.00  0.00     0.081 A 
BRANCH   7  11
HETATM   11  C   UNL     1     -40.207  52.635 -54.616  1.00  0.00     0.034 C 
HETATM   12  C   UNL     1     -40.219  54.025 -55.236  1.00  0.00     0.010 C 
ENDBRANCH   7  11
BRANCH  10  13
HETATM   13  O   UNL     1     -40.611  52.870 -48.948  1.00  0.00    -0.360 OA
HETATM   14  H   UNL     1     -39.710  52.790 -48.589  1.00  0.00     0.217 HD
ENDBRANCH  10  13
ENDBRANCH   1   5
BRANCH   2  15
HETATM   15  C   UNL     1     -43.877  56.486 -50.865  1.00  0.00     0.136 C 
BRANCH  15  16
HETATM   16  C   UNL     1     -43.917  57.761 -51.758  1.00  0.00    -0.004 C 
HETATM   17  C   UNL     1     -44.499  57.426 -53.151  1.00  0.00     0.021 C 
HETATM   18  C   UNL     1     -44.863  58.803 -51.112  1.00  0.00     0.021 C 
BRANCH  16  19
HETATM   19  C   UNL     1     -42.474  58.285 -51.916  1.00  0.00    -0.046 A 
HETATM   20  C   UNL     1     -41.841  58.260 -53.170  1.00  0.00     0.027 A 
HETATM   21  C   UNL     1     -40.538  58.724 -53.295  1.00  0.00     0.116 A 
HETATM   22  N   UNL     1     -39.815  59.212 -52.269  1.00  0.00    -0.273 NA
HETATM   23  C   UNL     1     -40.422  59.226 -51.066  1.00  0.00     0.116 A 
HETATM   24  C   UNL     1     -41.720  58.781 -50.843  1.00  0.00     0.027 A 
ENDBRANCH  16  19
ENDBRANCH  15  16
ENDBRANCH   2  15
TORSDOF 6
ENDMDL
MODEL 2
REMARK VINA RESULT:      -7.2      4.707      7.264
REMARK  6 active torsions:
REMARK  status: ('A' for Active; 'I' for Inactive)
REMARK    1  A    between atoms: C_2  and  C_3 
REMARK    2  A    between atoms: C_5  and  C_6 
REMARK       I    between atoms: C_6  and  N_7 
REMARK    3  A    between atoms: N_7  and  C_8 
REMARK    4  A    between atoms: C_8  and  C_9 
REMARK    5  A    between atoms: C_9  and  C_10 
REMARK    6  A    between atoms: C_19  and  O_20 
ROOT
HETATM    1  C   UNL     1     -42.074  56.854 -56.016  1.00  0.00     0.254 C 
HETATM    2  N   UNL     1     -41.401  55.712 -55.646  1.00  0.00    -0.356 N 
HETATM    3  O   UNL     1     -42.293  57.771 -55.230  1.00  0.00    -0.268 OA
HETATM    4  H   UNL     1     -41.210  55.033 -56.378  1.00  0.00     0.162 HD
ENDROOT
BRANCH   1   5
HETATM    5  C   UNL     1     -42.533  56.945 -57.439  1.00  0.00     0.065 A 
HETATM    6  C   UNL     1     -43.193  55.820 -57.966  1.00  0.00     0.027 A 
HETATM    7  C   UNL     1     -43.665  55.801 -59.286  1.00  0.00    -0.057 A 
HETATM    8  C   UNL     1     -43.481  56.932 -60.087  1.00  0.00     0.010 A 
HETATM    9  C   UNL     1     -42.828  58.058 -59.582  1.00  0.00     0.038 A 
HETATM   10  C   UNL     1     -42.357  58.065 -58.265  1.00  0.00     0.081 A 
BRANCH   7  11
HETATM   11  C   UNL     1     -44.389  54.591 -59.819  1.00  0.00     0.034 C 
HETATM   12  C   UNL     1     -45.034  54.867 -61.169  1.00  0.00     0.010 C 
ENDBRANCH   7  11
BRANCH  10  13
HETATM   13  O   UNL     1     -41.727  59.195 -57.804  1.00  0.00    -0.360 OA
HETATM   14  H   UNL     1     -42.386  59.908 -57.729  1.00  0.00     0.217 HD
ENDBRANCH  10  13
ENDBRANCH   1   5
BRANCH   2  15
HETATM   15  C   UNL     1     -40.834  55.559 -54.320  1.00  0.00     0.136 C 
BRANCH  15  16
HETATM   16  C   UNL     1     -41.643  54.638 -53.360  1.00  0.00    -0.004 C 
HETATM   17  C   UNL     1     -41.810  55.311 -51.978  1.00  0.00     0.021 C 
HETATM   18  C   UNL     1     -43.066  54.430 -53.935  1.00  0.00     0.021 C 
BRANCH  16  19
HETATM   19  C   UNL     1     -40.868  53.312 -53.196  1.00  0.00    -0.046 A 
HETATM   20  C   UNL     1     -40.772  52.407 -54.267  1.00  0.00     0.027 A 
HETATM   21  C   UNL     1     -40.082  51.213 -54.100  1.00  0.00     0.116 A 
HETATM   22  N   UNL     1     -39.480  50.850 -52.951  1.00  0.00    -0.273 NA
HETATM   23  C   UNL     1     -39.583  51.717 -51.925  1.00  0.00     0.116 A 
HETATM   24  C   UNL     1     -40.253  52.932 -51.996  1.00  0.00     0.027 A 
ENDBRANCH  16  19
ENDBRANCH  15  16
ENDBRANCH   2  15
TORSDOF 6
ENDMDL
MODEL 3
REMARK VINA RESULT:      -7.1      4.770      7.621
REMARK  6 active torsions:
REMARK  status: ('A' for Active; 'I' for Inactive)
REMARK    1  A    between atoms: C_2  and  C_3 
REMARK    2  A    between atoms: C_5  and  C_6 
REMARK       I    between atoms: C_6  and  N_7 
REMARK    3  A    between atoms: N_7  and  C_8 
REMARK    4  A    between atoms: C_8  and  C_9 
REMARK    5  A    between atoms: C_9  and  C_10 
REMARK    6  A    between atoms: C_19  and  O_20 
ROOT
HETATM    1  C   UNL     1     -43.093  55.867 -56.163  1.00  0.00     0.254 C 
HETATM    2  N   UNL     1     -42.554  54.626 -55.911  1.00  0.00    -0.356 N 
HETATM    3  O   UNL     1     -43.568  56.569 -55.275  1.00  0.00    -0.268 OA
HETATM    4  H   UNL     1     -42.127  54.143 -56.697  1.00  0.00     0.162 HD
ENDROOT
BRANCH   1   5
HETATM    5  C   UNL     1     -43.073  56.346 -57.583  1.00  0.00     0.065 A 
HETATM    6  C   UNL     1     -42.543  57.629 -57.811  1.00  0.00     0.027 A 
HETATM    7  C   UNL     1     -42.476  58.172 -59.102  1.00  0.00    -0.057 A 
HETATM    8  C   UNL     1     -42.940  57.414 -60.181  1.00  0.00     0.010 A 
HETATM    9  C   UNL     1     -43.470  56.139 -59.974  1.00  0.00     0.038 A 
HETATM   10  C   UNL     1     -43.537  55.607 -58.682  1.00  0.00     0.081 A 
BRANCH   7  11
HETATM   11  C   UNL     1     -41.881  59.540 -59.323  1.00  0.00     0.034 C 
HETATM   12  C   UNL     1     -42.073  60.016 -60.755  1.00  0.00     0.010 C 
ENDBRANCH   7  11
BRANCH  10  13
HETATM   13  O   UNL     1     -44.058  54.347 -58.521  1.00  0.00    -0.360 OA
HETATM   14  H   UNL     1     -44.923  54.424 -58.080  1.00  0.00     0.217 HD
ENDBRANCH  10  13
ENDBRANCH   1   5
BRANCH   2  15
HETATM   15  C   UNL     1     -42.440  54.105 -54.563  1.00  0.00     0.136 C 
BRANCH  15  16
HETATM   16  C   UNL     1     -41.031  54.251 -53.918  1.00  0.00    -0.004 C 
HETATM   17  C   UNL     1     -40.035  54.867 -54.928  1.00  0.00     0.021 C 
HETATM   18  C   UNL     1     -41.119  55.226 -52.719  1.00  0.00     0.021 C 
BRANCH  16  19
HETATM   19  C   UNL     1     -40.541  52.845 -53.506  1.00  0.00    -0.046 A 
HETATM   20  C   UNL     1     -40.106  52.600 -52.192  1.00  0.00     0.027 A 
HETATM   21  C   UNL     1     -39.658  51.334 -51.840  1.00  0.00     0.116 A 
HETATM   22  N   UNL     1     -39.607  50.293 -52.692  1.00  0.00    -0.273 NA
HETATM   23  C   UNL     1     -40.015  50.535 -53.953  1.00  0.00     0.116 A 
HETATM   24  C   UNL     1     -40.478  51.767 -54.399  1.00  0.00     0.027 A 
ENDBRANCH  16  19
ENDBRANCH  15  16
ENDBRANCH   2  15
TORSDOF 6
ENDMDL
MODEL 4
REMARK VINA RESULT:      -7.0      3.918      5.038
REMARK  6 active torsions:
REMARK  status: ('A' for Active; 'I' for Inactive)
REMARK    1  A    between atoms: C_2  and  C_3 
REMARK    2  A    between atoms: C_5  and  C_6 
REMARK       I    between atoms: C_6  and  N_7 
REMARK    3  A    between atoms: N_7  and  C_8 
REMARK    4  A    between atoms: C_8  and  C_9 
REMARK    5  A    between atoms: C_9  and  C_10 
REMARK    6  A    between atoms: C_19  and  O_20 
ROOT
HETATM    1  C   UNL     1     -42.838  54.595 -54.690  1.00  0.00     0.254 C 
HETATM    2  N   UNL     1     -43.074  55.947 -54.599  1.00  0.00    -0.356 N 
HETATM    3  O   UNL     1     -43.365  53.892 -55.547  1.00  0.00    -0.268 OA
HETATM    4  H   UNL     1     -42.544  56.459 -53.898  1.00  0.00     0.162 HD
ENDROOT
BRANCH   1   5
HETATM    5  C   UNL     1     -41.891  53.997 -53.694  1.00  0.00     0.065 A 
HETATM    6  C   UNL     1     -41.128  52.897 -54.126  1.00  0.00     0.027 A 
HETATM    7  C   UNL     1     -40.211  52.264 -53.274  1.00  0.00    -0.057 A 
HETATM    8  C   UNL     1     -40.051  52.748 -51.973  1.00  0.00     0.010 A 
HETATM    9  C   UNL     1     -40.800  53.838 -51.526  1.00  0.00     0.038 A 
HETATM   10  C   UNL     1     -41.715  54.460 -52.382  1.00  0.00     0.081 A 
BRANCH   7  11
HETATM   11  C   UNL     1     -39.388  51.102 -53.770  1.00  0.00     0.034 C 
HETATM   12  C   UNL     1     -40.255  50.025 -54.405  1.00  0.00     0.010 C 
ENDBRANCH   7  11
BRANCH  10  13
HETATM   13  O   UNL     1     -42.427  55.533 -51.906  1.00  0.00    -0.360 OA
HETATM   14  H   UNL     1     -42.874  55.268 -51.082  1.00  0.00     0.217 HD
ENDBRANCH  10  13
ENDBRANCH   1   5
BRANCH   2  15
HETATM   15  C   UNL     1     -43.900  56.642 -55.566  1.00  0.00     0.136 C 
BRANCH  15  16
HETATM   16  C   UNL     1     -43.213  57.846 -56.275  1.00  0.00    -0.004 C 
HETATM   17  C   UNL     1     -44.169  59.061 -56.327  1.00  0.00     0.021 C 
HETATM   18  C   UNL     1     -41.975  58.281 -55.452  1.00  0.00     0.021 C 
BRANCH  16  19
HETATM   19  C   UNL     1     -42.849  57.416 -57.713  1.00  0.00    -0.046 A 
HETATM   20  C   UNL     1     -43.267  56.169 -58.210  1.00  0.00     0.027 A 
HETATM   21  C   UNL     1     -42.922  55.791 -59.501  1.00  0.00     0.116 A 
HETATM   22  N   UNL     1     -42.195  56.556 -60.337  1.00  0.00    -0.273 NA
HETATM   23  C   UNL     1     -41.789  57.747 -59.853  1.00  0.00     0.116 A 
HETATM   24  C   UNL     1     -42.082  58.210 -58.576  1.00  0.00     0.027 A 
ENDBRANCH  16  19
ENDBRANCH  15  16
ENDBRANCH   2  15
TORSDOF 6
ENDMDL
MODEL 5
REMARK VINA RESULT:      -7.0      1.710      2.451
REMARK  6 active torsions:
REMARK  status: ('A' for Active; 'I' for Inactive)
REMARK    1  A    between atoms: C_2  and  C_3 
REMARK    2  A    between atoms: C_5  and  C_6 
REMARK       I    between atoms: C_6  and  N_7 
REMARK    3  A    between atoms: N_7  and  C_8 
REMARK    4  A    between atoms: C_8  and  C_9 
REMARK    5  A    between atoms: C_9  and  C_10 
REMARK    6  A    between atoms: C_19  and  O_20 
ROOT
HETATM    1  C   UNL     1     -42.170  55.034 -53.843  1.00  0.00     0.254 C 
HETATM    2  N   UNL     1     -43.201  55.529 -53.079  1.00  0.00    -0.356 N 
HETATM    3  O   UNL     1     -41.954  55.422 -54.987  1.00  0.00    -0.268 OA
HETATM    4  H   UNL     1     -43.265  55.195 -52.121  1.00  0.00     0.162 HD
ENDROOT
BRANCH   1   5
HETATM    5  C   UNL     1     -41.297  53.988 -53.217  1.00  0.00     0.065 A 
HETATM    6  C   UNL     1     -41.004  52.856 -53.999  1.00  0.00     0.027 A 
HETATM    7  C   UNL     1     -40.195  51.820 -53.510  1.00  0.00    -0.057 A 
HETATM    8  C   UNL     1     -39.665  51.926 -52.221  1.00  0.00     0.010 A 
HETATM    9  C   UNL     1     -39.946  53.041 -51.430  1.00  0.00     0.038 A 
HETATM   10  C   UNL     1     -40.757  54.068 -51.924  1.00  0.00     0.081 A 
BRANCH   7  11
HETATM   11  C   UNL     1     -39.877  50.629 -54.378  1.00  0.00     0.034 C 
HETATM   12  C   UNL     1     -39.484  49.415 -53.549  1.00  0.00     0.010 C 
ENDBRANCH   7  11
BRANCH  10  13
HETATM   13  O   UNL     1     -41.003  55.151 -51.117  1.00  0.00    -0.360 OA
HETATM   14  H   UNL     1     -40.279  55.792 -51.231  1.00  0.00     0.217 HD
ENDBRANCH  10  13
ENDBRANCH   1   5
BRANCH   2  15
HETATM   15  C   UNL     1     -44.049  56.606 -53.552  1.00  0.00     0.136 C 
BRANCH  15  16
HETATM   16  C   UNL     1     -44.075  57.871 -52.646  1.00  0.00    -0.004 C 
HETATM   17  C   UNL     1     -44.884  59.004 -53.321  1.00  0.00     0.021 C 
HETATM   18  C   UNL     1     -44.795  57.531 -51.319  1.00  0.00     0.021 C 
BRANCH  16  19
HETATM   19  C   UNL     1     -42.619  58.339 -52.430  1.00  0.00    -0.046 A 
HETATM   20  C   UNL     1     -42.109  58.499 -51.130  1.00  0.00     0.027 A 
HETATM   21  C   UNL     1     -40.801  58.932 -50.951  1.00  0.00     0.116 A 
HETATM   22  N   UNL     1     -39.961  59.218 -51.964  1.00  0.00    -0.273 NA
HETATM   23  C   UNL     1     -40.457  59.072 -53.208  1.00  0.00     0.116 A 
HETATM   24  C   UNL     1     -41.751  58.647 -53.486  1.00  0.00     0.027 A 
ENDBRANCH  16  19
ENDBRANCH  15  16
ENDBRANCH   2  15
TORSDOF 6
ENDMDL
MODEL 6
REMARK VINA RESULT:      -6.8      4.772      6.285
REMARK  6 active torsions:
REMARK  status: ('A' for Active; 'I' for Inactive)
REMARK    1  A    between atoms: C_2  and  C_3 
REMARK    2  A    between atoms: C_5  and  C_6 
REMARK       I    between atoms: C_6  and  N_7 
REMARK    3  A    between atoms: N_7  and  C_8 
REMARK    4  A    between atoms: C_8  and  C_9 
REMARK    5  A    between atoms: C_9  and  C_10 
REMARK    6  A    between atoms: C_19  and  O_20 
ROOT
HETATM    1  C   UNL     1     -42.657  54.329 -55.612  1.00  0.00     0.254 C 
HETATM    2  N   UNL     1     -42.234  55.357 -56.422  1.00  0.00    -0.356 N 
HETATM    3  O   UNL     1     -43.637  53.640 -55.883  1.00  0.00    -0.268 OA
HETATM    4  H   UNL     1     -41.377  55.832 -56.151  1.00  0.00     0.162 HD
ENDROOT
BRANCH   1   5
HETATM    5  C   UNL     1     -41.864  54.066 -54.369  1.00  0.00     0.065 A 
HETATM    6  C   UNL     1     -41.165  52.847 -54.308  1.00  0.00     0.027 A 
HETATM    7  C   UNL     1     -40.391  52.502 -53.191  1.00  0.00    -0.057 A 
HETATM    8  C   UNL     1     -40.309  53.400 -52.122  1.00  0.00     0.010 A 
HETATM    9  C   UNL     1     -40.996  54.615 -52.164  1.00  0.00     0.038 A 
HETATM   10  C   UNL     1     -41.769  54.947 -53.281  1.00  0.00     0.081 A 
BRANCH   7  11
HETATM   11  C   UNL     1     -39.633  51.200 -53.162  1.00  0.00     0.034 C 
HETATM   12  C   UNL     1     -39.974  50.320 -54.356  1.00  0.00     0.010 C 
ENDBRANCH   7  11
BRANCH  10  13
HETATM   13  O   UNL     1     -42.423  56.154 -53.286  1.00  0.00    -0.360 OA
HETATM   14  H   UNL     1     -42.193  56.634 -52.470  1.00  0.00     0.217 HD
ENDBRANCH  10  13
ENDBRANCH   1   5
BRANCH   2  15
HETATM   15  C   UNL     1     -42.874  55.639 -57.693  1.00  0.00     0.136 C 
BRANCH  15  16
HETATM   16  C   UNL     1     -43.473  57.069 -57.826  1.00  0.00    -0.004 C 
HETATM   17  C   UNL     1     -43.854  57.627 -56.434  1.00  0.00     0.021 C 
HETATM   18  C   UNL     1     -42.399  58.017 -58.414  1.00  0.00     0.021 C 
BRANCH  16  19
HETATM   19  C   UNL     1     -44.737  56.982 -58.708  1.00  0.00    -0.046 A 
HETATM   20  C   UNL     1     -44.852  55.983 -59.689  1.00  0.00     0.027 A 
HETATM   21  C   UNL     1     -45.990  55.925 -60.484  1.00  0.00     0.116 A 
HETATM   22  N   UNL     1     -47.022  56.783 -60.379  1.00  0.00    -0.273 NA
HETATM   23  C   UNL     1     -46.903  57.746 -59.443  1.00  0.00     0.116 A 
HETATM   24  C   UNL     1     -45.804  57.885 -58.604  1.00  0.00     0.027 A 
ENDBRANCH  16  19
ENDBRANCH  15  16
ENDBRANCH   2  15
TORSDOF 6
ENDMDL
MODEL 7
REMARK VINA RESULT:      -6.7      4.458      7.027
REMARK  6 active torsions:
REMARK  status: ('A' for Active; 'I' for Inactive)
REMARK    1  A    between atoms: C_2  and  C_3 
REMARK    2  A    between atoms: C_5  and  C_6 
REMARK       I    between atoms: C_6  and  N_7 
REMARK    3  A    between atoms: N_7  and  C_8 
REMARK    4  A    between atoms: C_8  and  C_9 
REMARK    5  A    between atoms: C_9  and  C_10 
REMARK    6  A    between atoms: C_19  and  O_20 
ROOT
HETATM    1  C   UNL     1     -43.033  55.883 -55.997  1.00  0.00     0.254 C 
HETATM    2  N   UNL     1     -42.547  54.602 -55.865  1.00  0.00    -0.356 N 
HETATM    3  O   UNL     1     -43.475  56.520 -55.045  1.00  0.00    -0.268 OA
HETATM    4  H   UNL     1     -42.144  54.176 -56.695  1.00  0.00     0.162 HD
ENDROOT
BRANCH   1   5
HETATM    5  C   UNL     1     -42.999  56.489 -57.368  1.00  0.00     0.065 A 
HETATM    6  C   UNL     1     -42.448  57.778 -57.477  1.00  0.00     0.027 A 
HETATM    7  C   UNL     1     -42.367  58.436 -58.712  1.00  0.00    -0.057 A 
HETATM    8  C   UNL     1     -42.837  57.787 -59.857  1.00  0.00     0.010 A 
HETATM    9  C   UNL     1     -43.388  56.507 -59.769  1.00  0.00     0.038 A 
HETATM   10  C   UNL     1     -43.469  55.861 -58.531  1.00  0.00     0.081 A 
BRANCH   7  11
HETATM   11  C   UNL     1     -41.749  59.809 -58.805  1.00  0.00     0.034 C 
HETATM   12  C   UNL     1     -41.978  60.440 -60.171  1.00  0.00     0.010 C 
ENDBRANCH   7  11
BRANCH  10  13
HETATM   13  O   UNL     1     -44.011  54.600 -58.487  1.00  0.00    -0.360 OA
HETATM   14  H   UNL     1     -44.877  54.650 -58.044  1.00  0.00     0.217 HD
ENDBRANCH  10  13
ENDBRANCH   1   5
BRANCH   2  15
HETATM   15  C   UNL     1     -42.449  53.956 -54.571  1.00  0.00     0.136 C 
BRANCH  15  16
HETATM   16  C   UNL     1     -41.001  53.612 -54.115  1.00  0.00    -0.004 C 
HETATM   17  C   UNL     1     -40.753  52.088 -54.205  1.00  0.00     0.021 C 
HETATM   18  C   UNL     1     -39.992  54.291 -55.072  1.00  0.00     0.021 C 
BRANCH  16  19
HETATM   19  C   UNL     1     -40.835  54.073 -52.650  1.00  0.00    -0.046 A 
HETATM   20  C   UNL     1     -41.341  55.317 -52.234  1.00  0.00     0.027 A 
HETATM   21  C   UNL     1     -41.173  55.723 -50.917  1.00  0.00     0.116 A 
HETATM   22  N   UNL     1     -40.541  54.990 -49.981  1.00  0.00    -0.273 NA
HETATM   23  C   UNL     1     -40.049  53.803 -50.386  1.00  0.00     0.116 A 
HETATM   24  C   UNL     1     -40.166  53.312 -51.682  1.00  0.00     0.027 A 
ENDBRANCH  16  19
ENDBRANCH  15  16
ENDBRANCH   2  15
TORSDOF 6
ENDMDL
MODEL 8
REMARK VINA RESULT:      -6.6     15.551     17.712
REMARK  6 active torsions:
REMARK  status: ('A' for Active; 'I' for Inactive)
REMARK    1  A    between atoms: C_2  and  C_3 
REMARK    2  A    between atoms: C_5  and  C_6 
REMARK       I    between atoms: C_6  and  N_7 
REMARK    3  A    between atoms: N_7  and  C_8 
REMARK    4  A    between atoms: C_8  and  C_9 
REMARK    5  A    between atoms: C_9  and  C_10 
REMARK    6  A    between atoms: C_19  and  O_20 
ROOT
HETATM    1  C   UNL     1     -34.515  40.720 -55.348  1.00  0.00     0.254 C 
HETATM    2  N   UNL     1     -35.712  40.228 -55.816  1.00  0.00    -0.356 N 
HETATM    3  O   UNL     1     -33.554  40.921 -56.084  1.00  0.00    -0.268 OA
HETATM    4  H   UNL     1     -36.472  40.153 -55.145  1.00  0.00     0.162 HD
ENDROOT
BRANCH   1   5
HETATM    5  C   UNL     1     -34.424  41.014 -53.881  1.00  0.00     0.065 A 
HETATM    6  C   UNL     1     -33.364  40.413 -53.178  1.00  0.00     0.027 A 
HETATM    7  C   UNL     1     -33.187  40.623 -51.803  1.00  0.00    -0.057 A 
HETATM    8  C   UNL     1     -34.080  41.457 -51.125  1.00  0.00     0.010 A 
HETATM    9  C   UNL     1     -35.139  42.062 -51.805  1.00  0.00     0.038 A 
HETATM   10  C   UNL     1     -35.311  41.842 -53.176  1.00  0.00     0.081 A 
BRANCH   7  11
HETATM   11  C   UNL     1     -32.028  39.986 -51.079  1.00  0.00     0.034 C 
HETATM   12  C   UNL     1     -32.249  39.958 -49.574  1.00  0.00     0.010 C 
ENDBRANCH   7  11
BRANCH  10  13
HETATM   13  O   UNL     1     -36.360  42.462 -53.809  1.00  0.00    -0.360 OA
HETATM   14  H   UNL     1     -36.729  41.848 -54.469  1.00  0.00     0.217 HD
ENDBRANCH  10  13
ENDBRANCH   1   5
BRANCH   2  15
HETATM   15  C   UNL     1     -35.938  39.995 -57.229  1.00  0.00     0.136 C 
BRANCH  15  16
HETATM   16  C   UNL     1     -37.201  40.688 -57.817  1.00  0.00    -0.004 C 
HETATM   17  C   UNL     1     -38.328  40.748 -56.759  1.00  0.00     0.021 C 
HETATM   18  C   UNL     1     -36.853  42.151 -58.188  1.00  0.00     0.021 C 
BRANCH  16  19
HETATM   19  C   UNL     1     -37.681  39.866 -59.033  1.00  0.00    -0.046 A 
HETATM   20  C   UNL     1     -37.181  40.137 -60.318  1.00  0.00     0.027 A 
HETATM   21  C   UNL     1     -37.631  39.396 -61.403  1.00  0.00     0.116 A 
HETATM   22  N   UNL     1     -38.540  38.407 -61.311  1.00  0.00    -0.273 NA
HETATM   23  C   UNL     1     -39.024  38.157 -60.078  1.00  0.00     0.116 A 
HETATM   24  C   UNL     1     -38.636  38.845 -58.934  1.00  0.00     0.027 A 
ENDBRANCH  16  19
ENDBRANCH  15  16
ENDBRANCH   2  15
TORSDOF 6
ENDMDL
MODEL 9
REMARK VINA RESULT:      -6.6      2.443      6.892
REMARK  6 active torsions:
REMARK  status: ('A' for Active; 'I' for Inactive)
REMARK    1  A    between atoms: C_2  and  C_3 
REMARK    2  A    between atoms: C_5  and  C_6 
REMARK       I    between atoms: C_6  and  N_7 
REMARK    3  A    between atoms: N_7  and  C_8 
REMARK    4  A    between atoms: C_8  and  C_9 
REMARK    5  A    between atoms: C_9  and  C_10 
REMARK    6  A    between atoms: C_19  and  O_20 
ROOT
HETATM    1  C   UNL     1     -41.755  56.894 -52.798  1.00  0.00     0.254 C 
HETATM    2  N   UNL     1     -41.865  55.551 -52.519  1.00  0.00    -0.356 N 
HETATM    3  O   UNL     1     -40.696  57.408 -53.147  1.00  0.00    -0.268 OA
HETATM    4  H   UNL     1     -42.795  55.203 -52.299  1.00  0.00     0.162 HD
ENDROOT
BRANCH   1   5
HETATM    5  C   UNL     1     -42.996  57.724 -52.666  1.00  0.00     0.065 A 
HETATM    6  C   UNL     1     -43.263  58.635 -53.704  1.00  0.00     0.027 A 
HETATM    7  C   UNL     1     -44.397  59.458 -53.680  1.00  0.00    -0.057 A 
HETATM    8  C   UNL     1     -45.283  59.359 -52.604  1.00  0.00     0.010 A 
HETATM    9  C   UNL     1     -45.035  58.461 -51.563  1.00  0.00     0.038 A 
HETATM   10  C   UNL     1     -43.898  57.648 -51.594  1.00  0.00     0.081 A 
BRANCH   7  11
HETATM   11  C   UNL     1     -44.672  60.409 -54.818  1.00  0.00     0.034 C 
HETATM   12  C   UNL     1     -45.407  59.724 -55.962  1.00  0.00     0.010 C 
ENDBRANCH   7  11
BRANCH  10  13
HETATM   13  O   UNL     1     -43.694  56.773 -50.555  1.00  0.00    -0.360 OA
HETATM   14  H   UNL     1     -44.463  56.178 -50.496  1.00  0.00     0.217 HD
ENDBRANCH  10  13
ENDBRANCH   1   5
BRANCH   2  15
HETATM   15  C   UNL     1     -40.751  54.642 -52.701  1.00  0.00     0.136 C 
BRANCH  15  16
HETATM   16  C   UNL     1     -40.861  53.705 -53.939  1.00  0.00    -0.004 C 
HETATM   17  C   UNL     1     -42.324  53.637 -54.437  1.00  0.00     0.021 C 
HETATM   18  C   UNL     1     -40.017  54.291 -55.097  1.00  0.00     0.021 C 
BRANCH  16  19
HETATM   19  C   UNL     1     -40.396  52.294 -53.520  1.00  0.00    -0.046 A 
HETATM   20  C   UNL     1     -39.944  52.054 -52.210  1.00  0.00     0.027 A 
HETATM   21  C   UNL     1     -39.518  50.782 -51.851  1.00  0.00     0.116 A 
HETATM   22  N   UNL     1     -39.504  49.730 -52.692  1.00  0.00    -0.273 NA
HETATM   23  C   UNL     1     -39.929  49.967 -53.948  1.00  0.00     0.116 A 
HETATM   24  C   UNL     1     -40.372  51.205 -54.401  1.00  0.00     0.027 A 
ENDBRANCH  16  19
ENDBRANCH  15  16
ENDBRANCH   2  15
TORSDOF 6
ENDMDL
MODEL 10
REMARK VINA RESULT:      -6.5      4.903      7.767
REMARK  6 active torsions:
REMARK  status: ('A' for Active; 'I' for Inactive)
REMARK    1  A    between atoms: C_2  and  C_3 
REMARK    2  A    between atoms: C_5  and  C_6 
REMARK       I    between atoms: C_6  and  N_7 
REMARK    3  A    between atoms: N_7  and  C_8 
REMARK    4  A    between atoms: C_8  and  C_9 
REMARK    5  A    between atoms: C_9  and  C_10 
REMARK    6  A    between atoms: C_19  and  O_20 
ROOT
HETATM    1  C   UNL     1     -42.652  55.936 -57.465  1.00  0.00     0.254 C 
HETATM    2  N   UNL     1     -41.812  55.685 -56.404  1.00  0.00    -0.356 N 
HETATM    3  O   UNL     1     -43.546  55.161 -57.793  1.00  0.00    -0.268 OA
HETATM    4  H   UNL     1     -41.143  56.413 -56.166  1.00  0.00     0.162 HD
ENDROOT
BRANCH   1   5
HETATM    5  C   UNL     1     -42.440  57.215 -58.217  1.00  0.00     0.065 A 
HETATM    6  C   UNL     1     -42.321  58.389 -57.451  1.00  0.00     0.027 A 
HETATM    7  C   UNL     1     -42.119  59.638 -58.055  1.00  0.00    -0.057 A 
HETATM    8  C   UNL     1     -42.026  59.709 -59.448  1.00  0.00     0.010 A 
HETATM    9  C   UNL     1     -42.143  58.555 -60.225  1.00  0.00     0.038 A 
HETATM   10  C   UNL     1     -42.349  57.314 -59.613  1.00  0.00     0.081 A 
BRANCH   7  11
HETATM   11  C   UNL     1     -41.970  60.877 -57.209  1.00  0.00     0.034 C 
HETATM   12  C   UNL     1     -43.316  61.392 -56.719  1.00  0.00     0.010 C 
ENDBRANCH   7  11
BRANCH  10  13
HETATM   13  O   UNL     1     -42.451  56.202 -60.413  1.00  0.00    -0.360 OA
HETATM   14  H   UNL     1     -42.754  55.455 -59.867  1.00  0.00     0.217 HD
ENDBRANCH  10  13
ENDBRANCH   1   5
BRANCH   2  15
HETATM   15  C   UNL     1     -41.987  54.524 -55.553  1.00  0.00     0.136 C 
BRANCH  15  16
HETATM   16  C   UNL     1     -41.800  54.789 -54.031  1.00  0.00    -0.004 C 
HETATM   17  C   UNL     1     -41.080  56.139 -53.801  1.00  0.00     0.021 C 
HETATM   18  C   UNL     1     -43.191  54.900 -53.360  1.00  0.00     0.021 C 
BRANCH  16  19
HETATM   19  C   UNL     1     -40.945  53.645 -53.443  1.00  0.00    -0.046 A 
HETATM   20  C   UNL     1     -40.460  52.620 -54.274  1.00  0.00     0.027 A 
HETATM   21  C   UNL     1     -39.703  51.591 -53.729  1.00  0.00     0.116 A 
HETATM   22  N   UNL     1     -39.391  51.501 -52.422  1.00  0.00    -0.273 NA
HETATM   23  C   UNL     1     -39.867  52.480 -51.628  1.00  0.00     0.116 A 
HETATM   24  C   UNL     1     -40.633  53.548 -52.080  1.00  0.00     0.027 A 
ENDBRANCH  16  19
ENDBRANCH  15  16
ENDBRANCH   2  15
TORSDOF 6
ENDMDL
