MODEL 1
REMARK VINA RESULT:      -7.8      0.000      0.000
REMARK  4 active torsions:
REMARK  status: ('A' for Active; 'I' for Inactive)
REMARK    1  A    between atoms: C_3  and  N_4 
REMARK       I    between atoms: N_4  and  C_5 
REMARK    2  A    between atoms: C_5  and  C_6 
REMARK    3  A    between atoms: C_7  and  C_8 
REMARK    4  A    between atoms: C_15  and  C_16 
ROOT
HETATM    1  C   UNL     1     -39.536  51.577 -53.157  1.00  0.00     0.003 A 
HETATM    2  C   UNL     1     -40.343  52.039 -54.200  1.00  0.00     0.029 A 
HETATM    3  C   UNL     1     -41.277  53.049 -53.974  1.00  0.00     0.035 A 
HETATM    4  C   UNL     1     -41.393  53.591 -52.683  1.00  0.00     0.042 A 
HETATM    5  C   UNL     1     -40.586  53.138 -51.627  1.00  0.00    -0.021 A 
HETATM    6  C   UNL     1     -39.656  52.123 -51.879  1.00  0.00     0.012 A 
ENDROOT
BRANCH   3   7
HETATM    7  N   UNL     1     -42.126  53.577 -54.973  1.00  0.00    -0.324 N 
HETATM    8  C   UNL     1     -42.056  54.826 -55.556  1.00  0.00     0.245 C 
HETATM    9  O   UNL     1     -41.243  55.710 -55.323  1.00  0.00    -0.268 OA
HETATM   10  H   UNL     1     -42.871  52.965 -55.277  1.00  0.00     0.169 HD
BRANCH   8  11
HETATM   11  C   UNL     1     -43.134  55.026 -56.563  1.00  0.00     0.077 C 
HETATM   12  C   UNL     1     -42.836  55.563 -57.754  1.00  0.00     0.042 C 
BRANCH  12  13
HETATM   13  C   UNL     1     -43.847  55.774 -58.732  1.00  0.00     0.075 A 
HETATM   14  O   UNL     1     -44.604  56.921 -58.828  1.00  0.00    -0.323 OA
HETATM   15  C   UNL     1     -45.463  56.781 -59.867  1.00  0.00     0.142 A 
HETATM   16  C   UNL     1     -45.294  55.561 -60.467  1.00  0.00     0.027 A 
HETATM   17  C   UNL     1     -44.263  54.916 -59.743  1.00  0.00     0.039 A 
ENDBRANCH  12  13
ENDBRANCH   8  11
ENDBRANCH   3   7
BRANCH   5  18
HETATM   18  C   UNL     1     -40.727  53.716 -50.301  1.00  0.00     0.010 A 
HETATM   19  C   UNL     1     -40.532  53.150 -49.019  1.00  0.00     0.152 A 
HETATM   20  N   UNL     1     -40.785  54.011 -48.028  1.00  0.00    -0.187 NA
HETATM   21  N   UNL     1     -41.143  55.132 -48.672  1.00  0.00    -0.289 N 
HETATM   22  H   UNL     1     -41.390  55.947 -48.119  1.00  0.00     0.188 HD
HETATM   23  C   UNL     1     -41.126  55.008 -50.031  1.00  0.00     0.123 A 
ENDBRANCH   5  18
TORSDOF 4
ENDMDL
MODEL 2
REMARK VINA RESULT:      -7.6      2.356      3.457
REMARK  4 active torsions:
REMARK  status: ('A' for Active; 'I' for Inactive)
REMARK    1  A    between atoms: C_3  and  N_4 
REMARK       I    between atoms: N_4  and  C_5 
REMARK    2  A    between atoms: C_5  and  C_6 
REMARK    3  A    between atoms: C_7  and  C_8 
REMARK    4  A    between atoms: C_15  and  C_16 
ROOT
HETATM    1  C   UNL     1     -40.539  54.388 -50.583  1.00  0.00     0.003 A 
HETATM    2  C   UNL     1     -41.011  55.156 -51.651  1.00  0.00     0.029 A 
HETATM    3  C   UNL     1     -41.103  54.605 -52.928  1.00  0.00     0.035 A 
HETATM    4  C   UNL     1     -40.712  53.269 -53.121  1.00  0.00     0.042 A 
HETATM    5  C   UNL     1     -40.240  52.486 -52.056  1.00  0.00    -0.021 A 
HETATM    6  C   UNL     1     -40.156  53.062 -50.784  1.00  0.00     0.012 A 
ENDROOT
BRANCH   3   7
HETATM    7  N   UNL     1     -41.574  55.308 -54.059  1.00  0.00    -0.324 N 
HETATM    8  C   UNL     1     -42.841  55.262 -54.606  1.00  0.00     0.245 C 
HETATM    9  O   UNL     1     -43.796  54.607 -54.210  1.00  0.00    -0.268 OA
HETATM   10  H   UNL     1     -40.894  55.900 -54.517  1.00  0.00     0.169 HD
BRANCH   8  11
HETATM   11  C   UNL     1     -42.957  56.133 -55.807  1.00  0.00     0.077 C 
HETATM   12  C   UNL     1     -42.927  55.583 -57.029  1.00  0.00     0.042 C 
BRANCH  12  13
HETATM   13  C   UNL     1     -43.028  56.392 -58.194  1.00  0.00     0.075 A 
HETATM   14  O   UNL     1     -43.291  57.745 -58.177  1.00  0.00    -0.323 OA
HETATM   15  C   UNL     1     -43.315  58.193 -59.455  1.00  0.00     0.142 A 
HETATM   16  C   UNL     1     -43.072  57.164 -60.327  1.00  0.00     0.027 A 
HETATM   17  C   UNL     1     -42.890  56.013 -59.524  1.00  0.00     0.039 A 
ENDBRANCH  12  13
ENDBRANCH   8  11
ENDBRANCH   3   7
BRANCH   5  18
HETATM   18  C   UNL     1     -39.842  51.107 -52.284  1.00  0.00     0.010 A 
HETATM   19  C   UNL     1     -39.696  50.371 -53.484  1.00  0.00     0.152 A 
HETATM   20  N   UNL     1     -39.327  49.104 -53.275  1.00  0.00    -0.187 NA
HETATM   21  N   UNL     1     -39.233  49.023 -51.939  1.00  0.00    -0.289 N 
HETATM   22  H   UNL     1     -38.962  48.134 -51.528  1.00  0.00     0.188 HD
HETATM   23  C   UNL     1     -39.532  50.191 -51.300  1.00  0.00     0.123 A 
ENDBRANCH   5  18
TORSDOF 4
ENDMDL
MODEL 3
REMARK VINA RESULT:      -7.3      3.192      8.729
REMARK  4 active torsions:
REMARK  status: ('A' for Active; 'I' for Inactive)
REMARK    1  A    between atoms: C_3  and  N_4 
REMARK       I    between atoms: N_4  and  C_5 
REMARK    2  A    between atoms: C_5  and  C_6 
REMARK    3  A    between atoms: C_7  and  C_8 
REMARK    4  A    between atoms: C_15  and  C_16 
ROOT
HETATM    1  C   UNL     1     -42.874  58.421 -57.231  1.00  0.00     0.003 A 
HETATM    2  C   UNL     1     -42.386  57.510 -56.290  1.00  0.00     0.029 A 
HETATM    3  C   UNL     1     -42.580  56.140 -56.469  1.00  0.00     0.035 A 
HETATM    4  C   UNL     1     -43.274  55.696 -57.607  1.00  0.00     0.042 A 
HETATM    5  C   UNL     1     -43.765  56.601 -58.562  1.00  0.00    -0.021 A 
HETATM    6  C   UNL     1     -43.558  57.970 -58.359  1.00  0.00     0.012 A 
ENDROOT
BRANCH   3   7
HETATM    7  N   UNL     1     -42.115  55.154 -55.572  1.00  0.00    -0.324 N 
HETATM    8  C   UNL     1     -42.711  54.743 -54.396  1.00  0.00     0.245 C 
HETATM    9  O   UNL     1     -43.757  55.154 -53.912  1.00  0.00    -0.268 OA
HETATM   10  H   UNL     1     -41.240  54.713 -55.825  1.00  0.00     0.169 HD
BRANCH   8  11
HETATM   11  C   UNL     1     -41.915  53.688 -53.712  1.00  0.00     0.077 C 
HETATM   12  C   UNL     1     -41.310  52.739 -54.440  1.00  0.00     0.042 C 
BRANCH  12  13
HETATM   13  C   UNL     1     -40.550  51.714 -53.813  1.00  0.00     0.075 A 
HETATM   14  O   UNL     1     -40.000  51.818 -52.554  1.00  0.00    -0.323 OA
HETATM   15  C   UNL     1     -39.348  50.664 -52.274  1.00  0.00     0.142 A 
HETATM   16  C   UNL     1     -39.452  49.789 -53.324  1.00  0.00     0.027 A 
HETATM   17  C   UNL     1     -40.218  50.458 -54.308  1.00  0.00     0.039 A 
ENDBRANCH  12  13
ENDBRANCH   8  11
ENDBRANCH   3   7
BRANCH   5  18
HETATM   18  C   UNL     1     -44.480  56.114 -59.730  1.00  0.00     0.010 A 
HETATM   19  C   UNL     1     -44.238  54.997 -60.564  1.00  0.00     0.152 A 
HETATM   20  N   UNL     1     -45.119  54.894 -61.563  1.00  0.00    -0.187 NA
HETATM   21  N   UNL     1     -45.931  55.945 -61.373  1.00  0.00    -0.289 N 
HETATM   22  H   UNL     1     -46.698  56.086 -62.023  1.00  0.00     0.188 HD
HETATM   23  C   UNL     1     -45.590  56.707 -60.292  1.00  0.00     0.123 A 
ENDBRANCH   5  18
TORSDOF 4
ENDMDL
MODEL 4
REMARK VINA RESULT:      -7.0      3.212      4.398
REMARK  4 active torsions:
REMARK  status: ('A' for Active; 'I' for Inactive)
REMARK    1  A    between atoms: C_3  and  N_4 
REMARK       I    between atoms: N_4  and  C_5 
REMARK    2  A    between atoms: C_5  and  C_6 
REMARK    3  A    between atoms: C_7  and  C_8 
REMARK    4  A    between atoms: C_15  and  C_16 
ROOT
HETATM    1  C   UNL     1     -40.999  54.636 -51.325  1.00  0.00     0.003 A 
HETATM    2  C   UNL     1     -41.231  55.552 -52.355  1.00  0.00     0.029 A 
HETATM    3  C   UNL     1     -41.108  55.161 -53.687  1.00  0.00     0.035 A 
HETATM    4  C   UNL     1     -40.744  53.834 -53.974  1.00  0.00     0.042 A 
HETATM    5  C   UNL     1     -40.511  52.904 -52.949  1.00  0.00    -0.021 A 
HETATM    6  C   UNL     1     -40.642  53.321 -51.620  1.00  0.00     0.012 A 
ENDROOT
BRANCH   3   7
HETATM    7  N   UNL     1     -41.331  56.020 -54.786  1.00  0.00    -0.324 N 
HETATM    8  C   UNL     1     -42.545  56.377 -55.336  1.00  0.00     0.245 C 
HETATM    9  O   UNL     1     -43.659  56.021 -54.973  1.00  0.00    -0.268 OA
HETATM   10  H   UNL     1     -40.499  56.401 -55.216  1.00  0.00     0.169 HD
BRANCH   8  11
HETATM   11  C   UNL     1     -42.378  57.294 -56.497  1.00  0.00     0.077 C 
HETATM   12  C   UNL     1     -42.172  58.601 -56.284  1.00  0.00     0.042 C 
BRANCH  12  13
HETATM   13  C   UNL     1     -42.016  59.500 -57.374  1.00  0.00     0.075 A 
HETATM   14  O   UNL     1     -41.236  60.636 -57.336  1.00  0.00    -0.323 OA
HETATM   15  C   UNL     1     -41.316  61.252 -58.540  1.00  0.00     0.142 A 
HETATM   16  C   UNL     1     -42.136  60.549 -59.383  1.00  0.00     0.027 A 
HETATM   17  C   UNL     1     -42.585  59.431 -58.641  1.00  0.00     0.039 A 
ENDBRANCH  12  13
ENDBRANCH   8  11
ENDBRANCH   3   7
BRANCH   5  18
HETATM   18  C   UNL     1     -40.136  51.537 -53.275  1.00  0.00     0.010 A 
HETATM   19  C   UNL     1     -39.620  50.500 -52.463  1.00  0.00     0.152 A 
HETATM   20  N   UNL     1     -39.380  49.378 -53.146  1.00  0.00    -0.187 NA
HETATM   21  N   UNL     1     -39.742  49.690 -54.399  1.00  0.00    -0.289 N 
HETATM   22  H   UNL     1     -39.648  48.981 -55.120  1.00  0.00     0.188 HD
HETATM   23  C   UNL     1     -40.199  50.970 -54.530  1.00  0.00     0.123 A 
ENDBRANCH   5  18
TORSDOF 4
ENDMDL
MODEL 5
REMARK VINA RESULT:      -7.0      4.959      7.457
REMARK  4 active torsions:
REMARK  status: ('A' for Active; 'I' for Inactive)
REMARK    1  A    between atoms: C_3  and  N_4 
REMARK       I    between atoms: N_4  and  C_5 
REMARK    2  A    between atoms: C_5  and  C_6 
REMARK    3  A    between atoms: C_7  and  C_8 
REMARK    4  A    between atoms: C_15  and  C_16 
ROOT
HETATM    1  C   UNL     1     -40.614  59.452 -50.672  1.00  0.00     0.003 A 
HETATM    2  C   UNL     1     -40.354  58.093 -50.870  1.00  0.00     0.029 A 
HETATM    3  C   UNL     1     -41.387  57.219 -51.204  1.00  0.00     0.035 A 
HETATM    4  C   UNL     1     -42.691  57.727 -51.335  1.00  0.00     0.042 A 
HETATM    5  C   UNL     1     -42.964  59.091 -51.142  1.00  0.00    -0.021 A 
HETATM    6  C   UNL     1     -41.910  59.948 -50.808  1.00  0.00     0.012 A 
ENDROOT
BRANCH   3   7
HETATM    7  N   UNL     1     -41.210  55.836 -51.427  1.00  0.00    -0.324 N 
HETATM    8  C   UNL     1     -41.366  54.813 -50.513  1.00  0.00     0.245 C 
HETATM    9  O   UNL     1     -41.693  54.912 -49.338  1.00  0.00    -0.268 OA
HETATM   10  H   UNL     1     -40.925  55.580 -52.363  1.00  0.00     0.169 HD
BRANCH   8  11
HETATM   11  C   UNL     1     -41.078  53.484 -51.117  1.00  0.00     0.077 C 
HETATM   12  C   UNL     1     -40.490  53.416 -52.320  1.00  0.00     0.042 C 
BRANCH  12  13
HETATM   13  C   UNL     1     -40.210  52.160 -52.924  1.00  0.00     0.075 A 
HETATM   14  O   UNL     1     -39.684  51.077 -52.251  1.00  0.00    -0.323 OA
HETATM   15  C   UNL     1     -39.549  50.053 -53.127  1.00  0.00     0.142 A 
HETATM   16  C   UNL     1     -39.975  50.431 -54.374  1.00  0.00     0.027 A 
HETATM   17  C   UNL     1     -40.396  51.775 -54.246  1.00  0.00     0.039 A 
ENDBRANCH  12  13
ENDBRANCH   8  11
ENDBRANCH   3   7
BRANCH   5  18
HETATM   18  C   UNL     1     -44.322  59.590 -51.284  1.00  0.00     0.010 A 
HETATM   19  C   UNL     1     -45.548  59.096 -50.778  1.00  0.00     0.152 A 
HETATM   20  N   UNL     1     -46.598  59.834 -51.150  1.00  0.00    -0.187 NA
HETATM   21  N   UNL     1     -46.049  60.805 -51.896  1.00  0.00    -0.289 N 
HETATM   22  H   UNL     1     -46.662  61.505 -52.302  1.00  0.00     0.188 HD
HETATM   23  C   UNL     1     -44.693  60.703 -52.009  1.00  0.00     0.123 A 
ENDBRANCH   5  18
TORSDOF 4
ENDMDL
MODEL 6
REMARK VINA RESULT:      -6.9      4.850      6.592
REMARK  4 active torsions:
REMARK  status: ('A' for Active; 'I' for Inactive)
REMARK    1  A    between atoms: C_3  and  N_4 
REMARK       I    between atoms: N_4  and  C_5 
REMARK    2  A    between atoms: C_5  and  C_6 
REMARK    3  A    between atoms: C_7  and  C_8 
REMARK    4  A    between atoms: C_15  and  C_16 
ROOT
HETATM    1  C   UNL     1     -40.506  54.383 -48.954  1.00  0.00     0.003 A 
HETATM    2  C   UNL     1     -41.325  55.480 -49.235  1.00  0.00     0.029 A 
HETATM    3  C   UNL     1     -41.809  55.686 -50.526  1.00  0.00     0.035 A 
HETATM    4  C   UNL     1     -41.457  54.775 -51.537  1.00  0.00     0.042 A 
HETATM    5  C   UNL     1     -40.639  53.667 -51.267  1.00  0.00    -0.021 A 
HETATM    6  C   UNL     1     -40.166  53.482 -49.963  1.00  0.00     0.012 A 
ENDROOT
BRANCH   3   7
HETATM    7  N   UNL     1     -42.645  56.764 -50.893  1.00  0.00    -0.324 N 
HETATM    8  C   UNL     1     -44.025  56.804 -50.855  1.00  0.00     0.245 C 
HETATM    9  O   UNL     1     -44.783  55.914 -50.492  1.00  0.00    -0.268 OA
HETATM   10  H   UNL     1     -42.168  57.589 -51.230  1.00  0.00     0.169 HD
BRANCH   8  11
HETATM   11  C   UNL     1     -44.553  58.110 -51.333  1.00  0.00     0.077 C 
HETATM   12  C   UNL     1     -45.420  58.792 -50.571  1.00  0.00     0.042 C 
BRANCH  12  13
HETATM   13  C   UNL     1     -45.947  60.039 -51.006  1.00  0.00     0.075 A 
HETATM   14  O   UNL     1     -46.237  61.092 -50.166  1.00  0.00    -0.323 OA
HETATM   15  C   UNL     1     -46.718  62.116 -50.912  1.00  0.00     0.142 A 
HETATM   16  C   UNL     1     -46.755  61.766 -52.237  1.00  0.00     0.027 A 
HETATM   17  C   UNL     1     -46.265  60.440 -52.299  1.00  0.00     0.039 A 
ENDBRANCH  12  13
ENDBRANCH   8  11
ENDBRANCH   3   7
BRANCH   5  18
HETATM   18  C   UNL     1     -40.291  52.740 -52.332  1.00  0.00     0.010 A 
HETATM   19  C   UNL     1     -40.700  52.689 -53.685  1.00  0.00     0.152 A 
HETATM   20  N   UNL     1     -40.168  51.658 -54.349  1.00  0.00    -0.187 NA
HETATM   21  N   UNL     1     -39.415  51.045 -53.424  1.00  0.00    -0.289 N 
HETATM   22  H   UNL     1     -38.900  50.213 -53.695  1.00  0.00     0.188 HD
HETATM   23  C   UNL     1     -39.455  51.651 -52.201  1.00  0.00     0.123 A 
ENDBRANCH   5  18
TORSDOF 4
ENDMDL
MODEL 7
REMARK VINA RESULT:      -6.8      4.624      7.045
REMARK  4 active torsions:
REMARK  status: ('A' for Active; 'I' for Inactive)
REMARK    1  A    between atoms: C_3  and  N_4 
REMARK       I    between atoms: N_4  and  C_5 
REMARK    2  A    between atoms: C_5  and  C_6 
REMARK    3  A    between atoms: C_7  and  C_8 
REMARK    4  A    between atoms: C_15  and  C_16 
ROOT
HETATM    1  C   UNL     1     -40.518  53.970 -48.751  1.00  0.00     0.003 A 
HETATM    2  C   UNL     1     -41.099  55.227 -48.933  1.00  0.00     0.029 A 
HETATM    3  C   UNL     1     -41.409  55.682 -50.214  1.00  0.00     0.035 A 
HETATM    4  C   UNL     1     -41.125  54.857 -51.315  1.00  0.00     0.042 A 
HETATM    5  C   UNL     1     -40.544  53.590 -51.146  1.00  0.00    -0.021 A 
HETATM    6  C   UNL     1     -40.243  53.156 -49.850  1.00  0.00     0.012 A 
ENDROOT
BRANCH   3   7
HETATM    7  N   UNL     1     -42.002  56.935 -50.484  1.00  0.00    -0.324 N 
HETATM    8  C   UNL     1     -41.360  58.115 -50.802  1.00  0.00     0.245 C 
HETATM    9  O   UNL     1     -40.155  58.297 -50.915  1.00  0.00    -0.268 OA
HETATM   10  H   UNL     1     -43.011  56.960 -50.424  1.00  0.00     0.169 HD
BRANCH   8  11
HETATM   11  C   UNL     1     -42.323  59.231 -51.006  1.00  0.00     0.077 C 
HETATM   12  C   UNL     1     -42.089  60.420 -50.434  1.00  0.00     0.042 C 
BRANCH  12  13
HETATM   13  C   UNL     1     -42.995  61.502 -50.605  1.00  0.00     0.075 A 
HETATM   14  O   UNL     1     -44.234  61.388 -51.199  1.00  0.00    -0.323 OA
HETATM   15  C   UNL     1     -44.826  62.607 -51.193  1.00  0.00     0.142 A 
HETATM   16  C   UNL     1     -44.005  63.534 -50.606  1.00  0.00     0.027 A 
HETATM   17  C   UNL     1     -42.836  62.831 -50.230  1.00  0.00     0.039 A 
ENDBRANCH  12  13
ENDBRANCH   8  11
ENDBRANCH   3   7
BRANCH   5  18
HETATM   18  C   UNL     1     -40.261  52.756 -52.303  1.00  0.00     0.010 A 
HETATM   19  C   UNL     1     -39.492  51.576 -52.427  1.00  0.00     0.152 A 
HETATM   20  N   UNL     1     -39.454  51.110 -53.679  1.00  0.00    -0.187 NA
HETATM   21  N   UNL     1     -40.200  51.991 -54.362  1.00  0.00    -0.289 N 
HETATM   22  H   UNL     1     -40.322  51.847 -55.360  1.00  0.00     0.188 HD
HETATM   23  C   UNL     1     -40.704  52.995 -53.586  1.00  0.00     0.123 A 
ENDBRANCH   5  18
TORSDOF 4
ENDMDL
MODEL 8
REMARK VINA RESULT:      -6.7      2.613      3.956
REMARK  4 active torsions:
REMARK  status: ('A' for Active; 'I' for Inactive)
REMARK    1  A    between atoms: C_3  and  N_4 
REMARK       I    between atoms: N_4  and  C_5 
REMARK    2  A    between atoms: C_5  and  C_6 
REMARK    3  A    between atoms: C_7  and  C_8 
REMARK    4  A    between atoms: C_15  and  C_16 
ROOT
HETATM    1  C   UNL     1     -40.230  54.132 -50.360  1.00  0.00     0.003 A 
HETATM    2  C   UNL     1     -40.985  55.073 -51.065  1.00  0.00     0.029 A 
HETATM    3  C   UNL     1     -41.415  54.801 -52.364  1.00  0.00     0.035 A 
HETATM    4  C   UNL     1     -41.075  53.570 -52.948  1.00  0.00     0.042 A 
HETATM    5  C   UNL     1     -40.320  52.614 -52.249  1.00  0.00    -0.021 A 
HETATM    6  C   UNL     1     -39.901  52.911 -50.947  1.00  0.00     0.012 A 
ENDROOT
BRANCH   3   7
HETATM    7  N   UNL     1     -42.186  55.693 -53.142  1.00  0.00    -0.324 N 
HETATM    8  C   UNL     1     -41.778  56.892 -53.691  1.00  0.00     0.245 C 
HETATM    9  O   UNL     1     -40.671  57.407 -53.611  1.00  0.00    -0.268 OA
HETATM   10  H   UNL     1     -43.145  55.415 -53.299  1.00  0.00     0.169 HD
BRANCH   8  11
HETATM   11  C   UNL     1     -42.879  57.560 -54.438  1.00  0.00     0.077 C 
HETATM   12  C   UNL     1     -43.112  57.223 -55.714  1.00  0.00     0.042 C 
BRANCH  12  13
HETATM   13  C   UNL     1     -44.151  57.850 -56.455  1.00  0.00     0.075 A 
HETATM   14  O   UNL     1     -45.065  58.729 -55.915  1.00  0.00    -0.323 OA
HETATM   15  C   UNL     1     -45.905  59.132 -56.899  1.00  0.00     0.142 A 
HETATM   16  C   UNL     1     -45.569  58.538 -58.088  1.00  0.00     0.027 A 
HETATM   17  C   UNL     1     -44.450  57.718 -57.806  1.00  0.00     0.039 A 
ENDBRANCH  12  13
ENDBRANCH   8  11
ENDBRANCH   3   7
BRANCH   5  18
HETATM   18  C   UNL     1     -39.982  51.348 -52.878  1.00  0.00     0.010 A 
HETATM   19  C   UNL     1     -39.584  50.113 -52.316  1.00  0.00     0.152 A 
HETATM   20  N   UNL     1     -39.339  49.178 -53.239  1.00  0.00    -0.187 NA
HETATM   21  N   UNL     1     -39.581  49.810 -54.396  1.00  0.00    -0.289 N 
HETATM   22  H   UNL     1     -39.459  49.294 -55.262  1.00  0.00     0.188 HD
HETATM   23  C   UNL     1     -39.967  51.110 -54.236  1.00  0.00     0.123 A 
ENDBRANCH   5  18
TORSDOF 4
ENDMDL
MODEL 9
REMARK VINA RESULT:      -6.6      4.492      7.172
REMARK  4 active torsions:
REMARK  status: ('A' for Active; 'I' for Inactive)
REMARK    1  A    between atoms: C_3  and  N_4 
REMARK       I    between atoms: N_4  and  C_5 
REMARK    2  A    between atoms: C_5  and  C_6 
REMARK    3  A    between atoms: C_7  and  C_8 
REMARK    4  A    between atoms: C_15  and  C_16 
ROOT
HETATM    1  C   UNL     1     -41.785  59.883 -53.778  1.00  0.00     0.003 A 
HETATM    2  C   UNL     1     -41.534  58.510 -53.836  1.00  0.00     0.029 A 
HETATM    3  C   UNL     1     -42.091  57.651 -52.890  1.00  0.00     0.035 A 
HETATM    4  C   UNL     1     -42.906  58.190 -51.880  1.00  0.00     0.042 A 
HETATM    5  C   UNL     1     -43.169  59.568 -51.813  1.00  0.00    -0.021 A 
HETATM    6  C   UNL     1     -42.598  60.408 -52.774  1.00  0.00     0.012 A 
ENDROOT
BRANCH   3   7
HETATM    7  N   UNL     1     -41.894  56.252 -52.879  1.00  0.00    -0.324 N 
HETATM    8  C   UNL     1     -42.716  55.286 -53.425  1.00  0.00     0.245 C 
HETATM    9  O   UNL     1     -43.768  55.460 -54.025  1.00  0.00    -0.268 OA
HETATM   10  H   UNL     1     -41.058  55.935 -52.407  1.00  0.00     0.169 HD
BRANCH   8  11
HETATM   11  C   UNL     1     -42.181  53.915 -53.202  1.00  0.00     0.077 C 
HETATM   12  C   UNL     1     -40.924  53.628 -53.568  1.00  0.00     0.042 C 
BRANCH  12  13
HETATM   13  C   UNL     1     -40.389  52.325 -53.375  1.00  0.00     0.075 A 
HETATM   14  O   UNL     1     -39.875  51.868 -52.180  1.00  0.00    -0.323 OA
HETATM   15  C   UNL     1     -39.458  50.591 -52.353  1.00  0.00     0.142 A 
HETATM   16  C   UNL     1     -39.684  50.184 -53.643  1.00  0.00     0.027 A 
HETATM   17  C   UNL     1     -40.277  51.290 -54.297  1.00  0.00     0.039 A 
ENDBRANCH  12  13
ENDBRANCH   8  11
ENDBRANCH   3   7
BRANCH   5  18
HETATM   18  C   UNL     1     -44.016  60.099 -50.757  1.00  0.00     0.010 A 
HETATM   19  C   UNL     1     -45.353  59.802 -50.405  1.00  0.00     0.152 A 
HETATM   20  N   UNL     1     -45.791  60.526 -49.372  1.00  0.00    -0.187 NA
HETATM   21  N   UNL     1     -44.735  61.290 -49.056  1.00  0.00    -0.289 N 
HETATM   22  H   UNL     1     -44.826  61.943 -48.283  1.00  0.00     0.188 HD
HETATM   23  C   UNL     1     -43.649  61.075 -49.855  1.00  0.00     0.123 A 
ENDBRANCH   5  18
TORSDOF 4
ENDMDL
MODEL 10
REMARK VINA RESULT:      -6.6      4.494      6.427
REMARK  4 active torsions:
REMARK  status: ('A' for Active; 'I' for Inactive)
REMARK    1  A    between atoms: C_3  and  N_4 
REMARK       I    between atoms: N_4  and  C_5 
REMARK    2  A    between atoms: C_5  and  C_6 
REMARK    3  A    between atoms: C_7  and  C_8 
REMARK    4  A    between atoms: C_15  and  C_16 
ROOT
HETATM    1  C   UNL     1     -40.503  53.919 -48.723  1.00  0.00     0.003 A 
HETATM    2  C   UNL     1     -41.077  55.178 -48.913  1.00  0.00     0.029 A 
HETATM    3  C   UNL     1     -41.386  55.625 -50.197  1.00  0.00     0.035 A 
HETATM    4  C   UNL     1     -41.108  54.790 -51.292  1.00  0.00     0.042 A 
HETATM    5  C   UNL     1     -40.535  53.520 -51.114  1.00  0.00    -0.021 A 
HETATM    6  C   UNL     1     -40.234  53.095 -49.816  1.00  0.00     0.012 A 
ENDROOT
BRANCH   3   7
HETATM    7  N   UNL     1     -41.972  56.879 -50.477  1.00  0.00    -0.324 N 
HETATM    8  C   UNL     1     -41.322  58.071 -50.728  1.00  0.00     0.245 C 
HETATM    9  O   UNL     1     -40.114  58.264 -50.761  1.00  0.00    -0.268 OA
HETATM   10  H   UNL     1     -42.983  56.896 -50.480  1.00  0.00     0.169 HD
BRANCH   8  11
HETATM   11  C   UNL     1     -42.280  59.184 -50.967  1.00  0.00     0.077 C 
HETATM   12  C   UNL     1     -42.102  59.997 -52.018  1.00  0.00     0.042 C 
BRANCH  12  13
HETATM   13  C   UNL     1     -42.997  61.073 -52.267  1.00  0.00     0.075 A 
HETATM   14  O   UNL     1     -43.821  61.156 -53.369  1.00  0.00    -0.323 OA
HETATM   15  C   UNL     1     -44.535  62.305 -53.284  1.00  0.00     0.142 A 
HETATM   16  C   UNL     1     -44.204  62.991 -52.145  1.00  0.00     0.027 A 
HETATM   17  C   UNL     1     -43.222  62.207 -51.495  1.00  0.00     0.039 A 
ENDBRANCH  12  13
ENDBRANCH   8  11
ENDBRANCH   3   7
BRANCH   5  18
HETATM   18  C   UNL     1     -40.258  52.676 -52.265  1.00  0.00     0.010 A 
HETATM   19  C   UNL     1     -40.692  52.771 -53.608  1.00  0.00     0.152 A 
HETATM   20  N   UNL     1     -40.231  51.777 -54.373  1.00  0.00    -0.187 NA
HETATM   21  N   UNL     1     -39.499  51.042 -53.523  1.00  0.00    -0.289 N 
HETATM   22  H   UNL     1     -39.037  50.210 -53.879  1.00  0.00     0.188 HD
HETATM   23  C   UNL     1     -39.484  51.535 -52.250  1.00  0.00     0.123 A 
ENDBRANCH   5  18
TORSDOF 4
ENDMDL
