MODEL 1
REMARK VINA RESULT:      -8.8      0.000      0.000
REMARK  6 active torsions:
REMARK  status: ('A' for Active; 'I' for Inactive)
REMARK    1  A    between atoms: N_7  and  C_8 
REMARK    2  A    between atoms: C_8  and  C_9 
REMARK    3  A    between atoms: C_9  and  N_10 
REMARK    4  A    between atoms: C_17  and  C_18 
REMARK    5  A    between atoms: C_18  and  N_19 
REMARK       I    between atoms: N_19  and  C_20 
REMARK    6  A    between atoms: C_20  and  C_21 
ROOT
HETATM    1  C   UNL     1     -39.563  49.942 -53.800  1.00  0.00     0.001 A 
HETATM    2  C   UNL     1     -39.865  51.228 -54.257  1.00  0.00     0.014 A 
HETATM    3  C   UNL     1     -40.136  52.251 -53.341  1.00  0.00     0.008 A 
HETATM    4  C   UNL     1     -40.096  51.978 -51.974  1.00  0.00     0.046 A 
HETATM    5  C   UNL     1     -40.357  53.060 -51.006  1.00  0.00     0.274 A 
HETATM    6  O   UNL     1     -40.264  52.855 -49.799  1.00  0.00    -0.266 OA
HETATM    7  N   UNL     1     -40.702  54.299 -51.539  1.00  0.00    -0.232 N 
HETATM    8  N   UNL     1     -40.726  54.575 -52.873  1.00  0.00    -0.172 NA
HETATM    9  C   UNL     1     -40.467  53.638 -53.737  1.00  0.00     0.084 A 
HETATM   10  C   UNL     1     -39.792  50.689 -51.518  1.00  0.00     0.018 A 
HETATM   11  C   UNL     1     -39.528  49.672 -52.433  1.00  0.00     0.001 A 
ENDROOT
BRANCH   9  12
HETATM   12  C   UNL     1     -40.494  54.030 -55.211  1.00  0.00     0.185 C 
BRANCH  12  13
HETATM   13  N   UNL     1     -41.341  55.191 -55.390  1.00  0.00    -0.351 N 
HETATM   14  C   UNL     1     -42.653  55.084 -55.796  1.00  0.00     0.253 C 
HETATM   15  O   UNL     1     -43.224  54.003 -55.916  1.00  0.00    -0.268 OA
HETATM   16  H   UNL     1     -40.938  56.113 -55.281  1.00  0.00     0.163 HD
BRANCH  14  17
HETATM   17  C   UNL     1     -43.404  56.357 -56.022  1.00  0.00     0.048 A 
HETATM   18  C   UNL     1     -43.644  56.978 -57.261  1.00  0.00     0.022 A 
HETATM   19  I   UNL     1     -43.098  56.199 -59.138  1.00  0.00    -0.043 I 
HETATM   20  C   UNL     1     -44.357  58.188 -57.308  1.00  0.00     0.019 A 
HETATM   21  C   UNL     1     -44.849  58.773 -56.142  1.00  0.00     0.001 A 
HETATM   22  C   UNL     1     -44.638  58.154 -54.916  1.00  0.00     0.001 A 
HETATM   23  C   UNL     1     -43.923  56.957 -54.857  1.00  0.00     0.018 A 
ENDBRANCH  14  17
ENDBRANCH  12  13
ENDBRANCH   9  12
BRANCH   7  24
HETATM   24  C   UNL     1     -40.831  55.439 -50.641  1.00  0.00     0.182 C 
BRANCH  24  25
HETATM   25  C   UNL     1     -42.213  56.101 -50.689  1.00  0.00     0.256 C 
BRANCH  25  26
HETATM   26  N   UNL     1     -42.123  57.609 -50.515  1.00  0.00    -0.070 N 
HETATM   27  H   UNL     1     -42.470  57.839 -49.574  1.00  0.00     0.279 HD
HETATM   28  C   UNL     1     -42.990  58.363 -51.512  1.00  0.00     0.235 C 
HETATM   29  C   UNL     1     -42.002  59.076 -52.413  1.00  0.00     0.029 C 
HETATM   30  C   UNL     1     -40.869  59.418 -51.471  1.00  0.00     0.029 C 
HETATM   31  C   UNL     1     -40.709  58.150 -50.657  1.00  0.00     0.235 C 
ENDBRANCH  25  26
ENDBRANCH  24  25
ENDBRANCH   7  24
TORSDOF 6
ENDMDL
MODEL 2
REMARK VINA RESULT:      -8.4      1.668      2.105
REMARK  6 active torsions:
REMARK  status: ('A' for Active; 'I' for Inactive)
REMARK    1  A    between atoms: N_7  and  C_8 
REMARK    2  A    between atoms: C_8  and  C_9 
REMARK    3  A    between atoms: C_9  and  N_10 
REMARK    4  A    between atoms: C_17  and  C_18 
REMARK    5  A    between atoms: C_18  and  N_19 
REMARK       I    between atoms: N_19  and  C_20 
REMARK    6  A    between atoms: C_20  and  C_21 
ROOT
HETATM    1  C   UNL     1     -40.155  51.271 -54.235  1.00  0.00     0.001 A 
HETATM    2  C   UNL     1     -41.120  52.273 -54.374  1.00  0.00     0.014 A 
HETATM    3  C   UNL     1     -41.314  53.205 -53.348  1.00  0.00     0.008 A 
HETATM    4  C   UNL     1     -40.534  53.131 -52.195  1.00  0.00     0.046 A 
HETATM    5  C   UNL     1     -40.720  54.127 -51.123  1.00  0.00     0.274 A 
HETATM    6  O   UNL     1     -40.000  54.116 -50.129  1.00  0.00    -0.266 OA
HETATM    7  N   UNL     1     -41.736  55.059 -51.312  1.00  0.00    -0.232 N 
HETATM    8  N   UNL     1     -42.489  55.147 -52.445  1.00  0.00    -0.172 NA
HETATM    9  C   UNL     1     -42.315  54.294 -53.410  1.00  0.00     0.084 A 
HETATM   10  C   UNL     1     -39.567  52.127 -52.058  1.00  0.00     0.018 A 
HETATM   11  C   UNL     1     -39.380  51.198 -53.079  1.00  0.00     0.001 A 
ENDROOT
BRANCH   9  12
HETATM   12  C   UNL     1     -43.182  54.470 -54.653  1.00  0.00     0.185 C 
BRANCH  12  13
HETATM   13  N   UNL     1     -42.690  55.585 -55.435  1.00  0.00    -0.351 N 
HETATM   14  C   UNL     1     -43.419  56.741 -55.600  1.00  0.00     0.253 C 
HETATM   15  O   UNL     1     -44.472  56.953 -55.002  1.00  0.00    -0.268 OA
HETATM   16  H   UNL     1     -41.814  55.485 -55.933  1.00  0.00     0.163 HD
BRANCH  14  17
HETATM   17  C   UNL     1     -42.842  57.792 -56.494  1.00  0.00     0.048 A 
HETATM   18  C   UNL     1     -42.652  57.695 -57.884  1.00  0.00     0.022 A 
HETATM   19  I   UNL     1     -43.248  56.071 -59.083  1.00  0.00    -0.043 I 
HETATM   20  C   UNL     1     -42.078  58.769 -58.586  1.00  0.00     0.019 A 
HETATM   21  C   UNL     1     -41.712  59.940 -57.924  1.00  0.00     0.001 A 
HETATM   22  C   UNL     1     -41.918  60.054 -56.555  1.00  0.00     0.001 A 
HETATM   23  C   UNL     1     -42.480  58.990 -55.847  1.00  0.00     0.018 A 
ENDBRANCH  14  17
ENDBRANCH  12  13
ENDBRANCH   9  12
BRANCH   7  24
HETATM   24  C   UNL     1     -41.873  56.153 -50.359  1.00  0.00     0.182 C 
BRANCH  24  25
HETATM   25  C   UNL     1     -41.231  57.462 -50.836  1.00  0.00     0.256 C 
BRANCH  25  26
HETATM   26  N   UNL     1     -41.963  58.045 -52.034  1.00  0.00    -0.070 N 
HETATM   27  H   UNL     1     -41.940  57.346 -52.789  1.00  0.00     0.279 HD
HETATM   28  C   UNL     1     -41.296  59.305 -52.566  1.00  0.00     0.235 C 
HETATM   29  C   UNL     1     -42.283  60.414 -52.264  1.00  0.00     0.029 C 
HETATM   30  C   UNL     1     -43.623  59.732 -52.429  1.00  0.00     0.029 C 
HETATM   31  C   UNL     1     -43.413  58.399 -51.743  1.00  0.00     0.235 C 
ENDBRANCH  25  26
ENDBRANCH  24  25
ENDBRANCH   7  24
TORSDOF 6
ENDMDL
MODEL 3
REMARK VINA RESULT:      -8.2      2.913      6.719
REMARK  6 active torsions:
REMARK  status: ('A' for Active; 'I' for Inactive)
REMARK    1  A    between atoms: N_7  and  C_8 
REMARK    2  A    between atoms: C_8  and  C_9 
REMARK    3  A    between atoms: C_9  and  N_10 
REMARK    4  A    between atoms: C_17  and  C_18 
REMARK    5  A    between atoms: C_18  and  N_19 
REMARK       I    between atoms: N_19  and  C_20 
REMARK    6  A    between atoms: C_20  and  C_21 
ROOT
HETATM    1  C   UNL     1     -42.939  55.869 -59.398  1.00  0.00     0.001 A 
HETATM    2  C   UNL     1     -43.165  55.794 -58.020  1.00  0.00     0.014 A 
HETATM    3  C   UNL     1     -42.828  56.874 -57.196  1.00  0.00     0.008 A 
HETATM    4  C   UNL     1     -42.275  58.023 -57.759  1.00  0.00     0.046 A 
HETATM    5  C   UNL     1     -41.942  59.171 -56.895  1.00  0.00     0.274 A 
HETATM    6  O   UNL     1     -41.513  60.214 -57.380  1.00  0.00    -0.266 OA
HETATM    7  N   UNL     1     -42.147  59.000 -55.529  1.00  0.00    -0.232 N 
HETATM    8  N   UNL     1     -42.704  57.886 -54.976  1.00  0.00    -0.172 NA
HETATM    9  C   UNL     1     -43.030  56.878 -55.729  1.00  0.00     0.084 A 
HETATM   10  C   UNL     1     -42.049  58.097 -59.139  1.00  0.00     0.018 A 
HETATM   11  C   UNL     1     -42.381  57.018 -59.956  1.00  0.00     0.001 A 
ENDROOT
BRANCH   9  12
HETATM   12  C   UNL     1     -43.667  55.675 -55.038  1.00  0.00     0.185 C 
BRANCH  12  13
HETATM   13  N   UNL     1     -42.637  54.729 -54.664  1.00  0.00    -0.351 N 
HETATM   14  C   UNL     1     -42.577  54.172 -53.406  1.00  0.00     0.253 C 
HETATM   15  O   UNL     1     -43.454  54.343 -52.563  1.00  0.00    -0.268 OA
HETATM   16  H   UNL     1     -41.897  54.523 -55.325  1.00  0.00     0.163 HD
BRANCH  14  17
HETATM   17  C   UNL     1     -41.422  53.268 -53.113  1.00  0.00     0.048 A 
HETATM   18  C   UNL     1     -40.653  53.249 -51.936  1.00  0.00     0.022 A 
HETATM   19  I   UNL     1     -41.014  54.425 -50.228  1.00  0.00    -0.043 I 
HETATM   20  C   UNL     1     -39.583  52.346 -51.816  1.00  0.00     0.019 A 
HETATM   21  C   UNL     1     -39.285  51.452 -52.844  1.00  0.00     0.001 A 
HETATM   22  C   UNL     1     -40.054  51.447 -54.001  1.00  0.00     0.001 A 
HETATM   23  C   UNL     1     -41.114  52.346 -54.133  1.00  0.00     0.018 A 
ENDBRANCH  14  17
ENDBRANCH  12  13
ENDBRANCH   9  12
BRANCH   7  24
HETATM   24  C   UNL     1     -41.974  60.143 -54.644  1.00  0.00     0.182 C 
BRANCH  24  25
HETATM   25  C   UNL     1     -43.104  60.297 -53.618  1.00  0.00     0.256 C 
BRANCH  25  26
HETATM   26  N   UNL     1     -42.812  59.534 -52.337  1.00  0.00    -0.070 N 
HETATM   27  H   UNL     1     -43.135  58.565 -52.466  1.00  0.00     0.279 HD
HETATM   28  C   UNL     1     -43.557  60.101 -51.138  1.00  0.00     0.235 C 
HETATM   29  C   UNL     1     -42.471  60.680 -50.255  1.00  0.00     0.029 C 
HETATM   30  C   UNL     1     -41.312  59.732 -50.474  1.00  0.00     0.029 C 
HETATM   31  C   UNL     1     -41.336  59.508 -51.972  1.00  0.00     0.235 C 
ENDBRANCH  25  26
ENDBRANCH  24  25
ENDBRANCH   7  24
TORSDOF 6
ENDMDL
MODEL 4
REMARK VINA RESULT:      -8.1      2.598      6.539
REMARK  6 active torsions:
REMARK  status: ('A' for Active; 'I' for Inactive)
REMARK    1  A    between atoms: N_7  and  C_8 
REMARK    2  A    between atoms: C_8  and  C_9 
REMARK    3  A    between atoms: C_9  and  N_10 
REMARK    4  A    between atoms: C_17  and  C_18 
REMARK    5  A    between atoms: C_18  and  N_19 
REMARK       I    between atoms: N_19  and  C_20 
REMARK    6  A    between atoms: C_20  and  C_21 
ROOT
HETATM    1  C   UNL     1     -43.114  56.259 -59.984  1.00  0.00     0.001 A 
HETATM    2  C   UNL     1     -43.096  55.757 -58.679  1.00  0.00     0.014 A 
HETATM    3  C   UNL     1     -42.748  56.593 -57.613  1.00  0.00     0.008 A 
HETATM    4  C   UNL     1     -42.428  57.927 -57.860  1.00  0.00     0.046 A 
HETATM    5  C   UNL     1     -42.086  58.816 -56.734  1.00  0.00     0.274 A 
HETATM    6  O   UNL     1     -41.863  60.008 -56.925  1.00  0.00    -0.266 OA
HETATM    7  N   UNL     1     -42.038  58.230 -55.473  1.00  0.00    -0.232 N 
HETATM    8  N   UNL     1     -42.367  56.931 -55.223  1.00  0.00    -0.172 NA
HETATM    9  C   UNL     1     -42.701  56.144 -56.202  1.00  0.00     0.084 A 
HETATM   10  C   UNL     1     -42.447  58.429 -59.168  1.00  0.00     0.018 A 
HETATM   11  C   UNL     1     -42.788  57.592 -60.228  1.00  0.00     0.001 A 
ENDROOT
BRANCH   9  12
HETATM   12  C   UNL     1     -43.075  54.709 -55.841  1.00  0.00     0.185 C 
BRANCH  12  13
HETATM   13  N   UNL     1     -42.510  54.371 -54.551  1.00  0.00    -0.351 N 
HETATM   14  C   UNL     1     -41.219  53.912 -54.415  1.00  0.00     0.253 C 
HETATM   15  O   UNL     1     -40.426  53.874 -55.353  1.00  0.00    -0.268 OA
HETATM   16  H   UNL     1     -43.104  54.406 -53.731  1.00  0.00     0.163 HD
BRANCH  14  17
HETATM   17  C   UNL     1     -40.774  53.520 -53.042  1.00  0.00     0.048 A 
HETATM   18  C   UNL     1     -40.236  52.279 -52.659  1.00  0.00     0.022 A 
HETATM   19  I   UNL     1     -39.812  50.683 -53.965  1.00  0.00    -0.043 I 
HETATM   20  C   UNL     1     -39.878  52.056 -51.319  1.00  0.00     0.019 A 
HETATM   21  C   UNL     1     -40.031  53.061 -50.363  1.00  0.00     0.001 A 
HETATM   22  C   UNL     1     -40.538  54.299 -50.736  1.00  0.00     0.001 A 
HETATM   23  C   UNL     1     -40.905  54.526 -52.064  1.00  0.00     0.018 A 
ENDBRANCH  14  17
ENDBRANCH  12  13
ENDBRANCH   9  12
BRANCH   7  24
HETATM   24  C   UNL     1     -41.848  59.083 -54.308  1.00  0.00     0.182 C 
BRANCH  24  25
HETATM   25  C   UNL     1     -40.679  58.647 -53.415  1.00  0.00     0.256 C 
BRANCH  25  26
HETATM   26  N   UNL     1     -41.119  58.423 -51.978  1.00  0.00    -0.070 N 
HETATM   27  H   UNL     1     -41.359  57.427 -51.873  1.00  0.00     0.279 HD
HETATM   28  C   UNL     1     -42.361  59.225 -51.617  1.00  0.00     0.235 C 
HETATM   29  C   UNL     1     -41.874  60.245 -50.609  1.00  0.00     0.029 C 
HETATM   30  C   UNL     1     -40.801  59.493 -49.854  1.00  0.00     0.029 C 
HETATM   31  C   UNL     1     -40.050  58.776 -50.957  1.00  0.00     0.235 C 
ENDBRANCH  25  26
ENDBRANCH  24  25
ENDBRANCH   7  24
TORSDOF 6
ENDMDL
MODEL 5
REMARK VINA RESULT:      -7.9      1.964      2.621
REMARK  6 active torsions:
REMARK  status: ('A' for Active; 'I' for Inactive)
REMARK    1  A    between atoms: N_7  and  C_8 
REMARK    2  A    between atoms: C_8  and  C_9 
REMARK    3  A    between atoms: C_9  and  N_10 
REMARK    4  A    between atoms: C_17  and  C_18 
REMARK    5  A    between atoms: C_18  and  N_19 
REMARK       I    between atoms: N_19  and  C_20 
REMARK    6  A    between atoms: C_20  and  C_21 
ROOT
HETATM    1  C   UNL     1     -39.857  51.785 -53.767  1.00  0.00     0.001 A 
HETATM    2  C   UNL     1     -40.772  52.653 -54.371  1.00  0.00     0.014 A 
HETATM    3  C   UNL     1     -41.471  53.584 -53.594  1.00  0.00     0.008 A 
HETATM    4  C   UNL     1     -41.242  53.644 -52.220  1.00  0.00     0.046 A 
HETATM    5  C   UNL     1     -41.959  54.641 -51.403  1.00  0.00     0.274 A 
HETATM    6  O   UNL     1     -41.724  54.750 -50.203  1.00  0.00    -0.266 OA
HETATM    7  N   UNL     1     -42.891  55.432 -52.068  1.00  0.00    -0.232 N 
HETATM    8  N   UNL     1     -43.106  55.390 -53.413  1.00  0.00    -0.172 NA
HETATM    9  C   UNL     1     -42.458  54.537 -54.150  1.00  0.00     0.084 A 
HETATM   10  C   UNL     1     -40.324  52.774 -51.617  1.00  0.00     0.018 A 
HETATM   11  C   UNL     1     -39.635  51.845 -52.392  1.00  0.00     0.001 A 
ENDROOT
BRANCH   9  12
HETATM   12  C   UNL     1     -42.739  54.565 -55.649  1.00  0.00     0.185 C 
BRANCH  12  13
HETATM   13  N   UNL     1     -42.808  55.937 -56.105  1.00  0.00    -0.351 N 
HETATM   14  C   UNL     1     -43.080  56.260 -57.416  1.00  0.00     0.253 C 
HETATM   15  O   UNL     1     -43.401  55.420 -58.253  1.00  0.00    -0.268 OA
HETATM   16  H   UNL     1     -42.580  56.681 -55.457  1.00  0.00     0.163 HD
BRANCH  14  17
HETATM   17  C   UNL     1     -43.047  57.709 -57.784  1.00  0.00     0.048 A 
HETATM   18  C   UNL     1     -43.914  58.712 -57.313  1.00  0.00     0.022 A 
HETATM   19  I   UNL     1     -45.419  58.437 -55.867  1.00  0.00    -0.043 I 
HETATM   20  C   UNL     1     -43.765  60.033 -57.767  1.00  0.00     0.019 A 
HETATM   21  C   UNL     1     -42.753  60.369 -58.666  1.00  0.00     0.001 A 
HETATM   22  C   UNL     1     -41.877  59.390 -59.118  1.00  0.00     0.001 A 
HETATM   23  C   UNL     1     -42.022  58.073 -58.680  1.00  0.00     0.018 A 
ENDBRANCH  14  17
ENDBRANCH  12  13
ENDBRANCH   9  12
BRANCH   7  24
HETATM   24  C   UNL     1     -43.524  56.528 -51.347  1.00  0.00     0.182 C 
BRANCH  24  25
HETATM   25  C   UNL     1     -43.893  57.717 -52.244  1.00  0.00     0.256 C 
BRANCH  25  26
HETATM   26  N   UNL     1     -42.757  58.722 -52.343  1.00  0.00    -0.070 N 
HETATM   27  H   UNL     1     -43.164  59.665 -52.274  1.00  0.00     0.279 HD
HETATM   28  C   UNL     1     -42.024  58.644 -53.673  1.00  0.00     0.235 C 
HETATM   29  C   UNL     1     -40.646  58.124 -53.319  1.00  0.00     0.029 C 
HETATM   30  C   UNL     1     -40.388  58.743 -51.962  1.00  0.00     0.029 C 
HETATM   31  C   UNL     1     -41.712  58.563 -51.250  1.00  0.00     0.235 C 
ENDBRANCH  25  26
ENDBRANCH  24  25
ENDBRANCH   7  24
TORSDOF 6
ENDMDL
MODEL 6
REMARK VINA RESULT:      -7.7      1.815      2.341
REMARK  6 active torsions:
REMARK  status: ('A' for Active; 'I' for Inactive)
REMARK    1  A    between atoms: N_7  and  C_8 
REMARK    2  A    between atoms: C_8  and  C_9 
REMARK    3  A    between atoms: C_9  and  N_10 
REMARK    4  A    between atoms: C_17  and  C_18 
REMARK    5  A    between atoms: C_18  and  N_19 
REMARK       I    between atoms: N_19  and  C_20 
REMARK    6  A    between atoms: C_20  and  C_21 
ROOT
HETATM    1  C   UNL     1     -40.014  51.479 -53.716  1.00  0.00     0.001 A 
HETATM    2  C   UNL     1     -40.910  52.400 -54.266  1.00  0.00     0.014 A 
HETATM    3  C   UNL     1     -41.323  53.507 -53.516  1.00  0.00     0.008 A 
HETATM    4  C   UNL     1     -40.829  53.687 -52.225  1.00  0.00     0.046 A 
HETATM    5  C   UNL     1     -41.244  54.867 -51.442  1.00  0.00     0.274 A 
HETATM    6  O   UNL     1     -40.770  55.076 -50.329  1.00  0.00    -0.266 OA
HETATM    7  N   UNL     1     -42.178  55.708 -52.038  1.00  0.00    -0.232 N 
HETATM    8  N   UNL     1     -42.651  55.547 -53.306  1.00  0.00    -0.172 NA
HETATM    9  C   UNL     1     -42.271  54.528 -54.018  1.00  0.00     0.084 A 
HETATM   10  C   UNL     1     -39.930  52.764 -51.676  1.00  0.00     0.018 A 
HETATM   11  C   UNL     1     -39.526  51.659 -52.423  1.00  0.00     0.001 A 
ENDROOT
BRANCH   9  12
HETATM   12  C   UNL     1     -42.828  54.427 -55.435  1.00  0.00     0.185 C 
BRANCH  12  13
HETATM   13  N   UNL     1     -43.685  55.564 -55.702  1.00  0.00    -0.351 N 
HETATM   14  C   UNL     1     -43.311  56.578 -56.555  1.00  0.00     0.253 C 
HETATM   15  O   UNL     1     -42.289  56.530 -57.235  1.00  0.00    -0.268 OA
HETATM   16  H   UNL     1     -44.556  55.651 -55.192  1.00  0.00     0.163 HD
BRANCH  14  17
HETATM   17  C   UNL     1     -44.246  57.738 -56.690  1.00  0.00     0.048 A 
HETATM   18  C   UNL     1     -44.996  58.079 -57.829  1.00  0.00     0.022 A 
HETATM   19  I   UNL     1     -45.077  56.961 -59.611  1.00  0.00    -0.043 I 
HETATM   20  C   UNL     1     -45.823  59.214 -57.806  1.00  0.00     0.019 A 
HETATM   21  C   UNL     1     -45.925  59.999 -56.658  1.00  0.00     0.001 A 
HETATM   22  C   UNL     1     -45.207  59.656 -55.519  1.00  0.00     0.001 A 
HETATM   23  C   UNL     1     -44.376  58.535 -55.535  1.00  0.00     0.018 A 
ENDBRANCH  14  17
ENDBRANCH  12  13
ENDBRANCH   9  12
BRANCH   7  24
HETATM   24  C   UNL     1     -42.517  56.962 -51.377  1.00  0.00     0.182 C 
BRANCH  24  25
HETATM   25  C   UNL     1     -44.026  57.175 -51.208  1.00  0.00     0.256 C 
BRANCH  25  26
HETATM   26  N   UNL     1     -44.350  58.589 -50.754  1.00  0.00    -0.070 N 
HETATM   27  H   UNL     1     -44.100  58.665 -49.758  1.00  0.00     0.279 HD
HETATM   28  C   UNL     1     -45.831  58.914 -50.873  1.00  0.00     0.235 C 
HETATM   29  C   UNL     1     -45.903  59.961 -51.966  1.00  0.00     0.029 C 
HETATM   30  C   UNL     1     -44.623  60.745 -51.772  1.00  0.00     0.029 C 
HETATM   31  C   UNL     1     -43.595  59.659 -51.526  1.00  0.00     0.235 C 
ENDBRANCH  25  26
ENDBRANCH  24  25
ENDBRANCH   7  24
TORSDOF 6
ENDMDL
MODEL 7
REMARK VINA RESULT:      -7.6      2.114      2.885
REMARK  6 active torsions:
REMARK  status: ('A' for Active; 'I' for Inactive)
REMARK    1  A    between atoms: N_7  and  C_8 
REMARK    2  A    between atoms: C_8  and  C_9 
REMARK    3  A    between atoms: C_9  and  N_10 
REMARK    4  A    between atoms: C_17  and  C_18 
REMARK    5  A    between atoms: C_18  and  N_19 
REMARK       I    between atoms: N_19  and  C_20 
REMARK    6  A    between atoms: C_20  and  C_21 
ROOT
HETATM    1  C   UNL     1     -39.817  52.088 -53.908  1.00  0.00     0.001 A 
HETATM    2  C   UNL     1     -40.548  53.021 -54.650  1.00  0.00     0.014 A 
HETATM    3  C   UNL     1     -41.414  53.908 -54.001  1.00  0.00     0.008 A 
HETATM    4  C   UNL     1     -41.535  53.859 -52.613  1.00  0.00     0.046 A 
HETATM    5  C   UNL     1     -42.429  54.809 -51.924  1.00  0.00     0.274 A 
HETATM    6  O   UNL     1     -42.501  54.823 -50.698  1.00  0.00    -0.266 OA
HETATM    7  N   UNL     1     -43.161  55.671 -52.735  1.00  0.00    -0.232 N 
HETATM    8  N   UNL     1     -43.033  55.736 -54.091  1.00  0.00    -0.172 NA
HETATM    9  C   UNL     1     -42.226  54.924 -54.708  1.00  0.00     0.084 A 
HETATM   10  C   UNL     1     -40.802  52.923 -51.871  1.00  0.00     0.018 A 
HETATM   11  C   UNL     1     -39.946  52.038 -52.521  1.00  0.00     0.001 A 
ENDROOT
BRANCH   9  12
HETATM   12  C   UNL     1     -42.122  55.071 -56.223  1.00  0.00     0.185 C 
BRANCH  12  13
HETATM   13  N   UNL     1     -43.341  55.660 -56.738  1.00  0.00    -0.351 N 
HETATM   14  C   UNL     1     -43.332  56.792 -57.523  1.00  0.00     0.253 C 
HETATM   15  O   UNL     1     -42.294  57.303 -57.937  1.00  0.00    -0.268 OA
HETATM   16  H   UNL     1     -44.231  55.269 -56.456  1.00  0.00     0.163 HD
BRANCH  14  17
HETATM   17  C   UNL     1     -44.657  57.352 -57.931  1.00  0.00     0.048 A 
HETATM   18  C   UNL     1     -45.400  58.327 -57.242  1.00  0.00     0.022 A 
HETATM   19  I   UNL     1     -44.768  59.337 -55.507  1.00  0.00    -0.043 I 
HETATM   20  C   UNL     1     -46.644  58.742 -57.746  1.00  0.00     0.019 A 
HETATM   21  C   UNL     1     -47.145  58.212 -58.935  1.00  0.00     0.001 A 
HETATM   22  C   UNL     1     -46.407  57.265 -59.635  1.00  0.00     0.001 A 
HETATM   23  C   UNL     1     -45.174  56.841 -59.138  1.00  0.00     0.018 A 
ENDBRANCH  14  17
ENDBRANCH  12  13
ENDBRANCH   9  12
BRANCH   7  24
HETATM   24  C   UNL     1     -43.948  56.725 -52.110  1.00  0.00     0.182 C 
BRANCH  24  25
HETATM   25  C   UNL     1     -43.274  58.102 -52.160  1.00  0.00     0.256 C 
BRANCH  25  26
HETATM   26  N   UNL     1     -42.676  58.486 -50.817  1.00  0.00    -0.070 N 
HETATM   27  H   UNL     1     -43.187  57.974 -50.086  1.00  0.00     0.279 HD
HETATM   28  C   UNL     1     -42.826  59.970 -50.516  1.00  0.00     0.235 C 
HETATM   29  C   UNL     1     -41.411  60.510 -50.551  1.00  0.00     0.029 C 
HETATM   30  C   UNL     1     -40.594  59.361 -50.005  1.00  0.00     0.029 C 
HETATM   31  C   UNL     1     -41.196  58.156 -50.698  1.00  0.00     0.235 C 
ENDBRANCH  25  26
ENDBRANCH  24  25
ENDBRANCH   7  24
TORSDOF 6
ENDMDL
MODEL 8
REMARK VINA RESULT:      -7.6      2.636      4.044
REMARK  6 active torsions:
REMARK  status: ('A' for Active; 'I' for Inactive)
REMARK    1  A    between atoms: N_7  and  C_8 
REMARK    2  A    between atoms: C_8  and  C_9 
REMARK    3  A    between atoms: C_9  and  N_10 
REMARK    4  A    between atoms: C_17  and  C_18 
REMARK    5  A    between atoms: C_18  and  N_19 
REMARK       I    between atoms: N_19  and  C_20 
REMARK    6  A    between atoms: C_20  and  C_21 
ROOT
HETATM    1  C   UNL     1     -40.504  52.325 -53.679  1.00  0.00     0.001 A 
HETATM    2  C   UNL     1     -41.129  53.168 -54.603  1.00  0.00     0.014 A 
HETATM    3  C   UNL     1     -41.469  54.475 -54.238  1.00  0.00     0.008 A 
HETATM    4  C   UNL     1     -41.174  54.931 -52.954  1.00  0.00     0.046 A 
HETATM    5  C   UNL     1     -41.509  56.316 -52.576  1.00  0.00     0.274 A 
HETATM    6  O   UNL     1     -41.199  56.755 -51.472  1.00  0.00    -0.266 OA
HETATM    7  N   UNL     1     -42.177  57.075 -53.532  1.00  0.00    -0.232 N 
HETATM    8  N   UNL     1     -42.453  56.641 -54.795  1.00  0.00    -0.172 NA
HETATM    9  C   UNL     1     -42.135  55.432 -55.151  1.00  0.00     0.084 A 
HETATM   10  C   UNL     1     -40.546  54.085 -52.030  1.00  0.00     0.018 A 
HETATM   11  C   UNL     1     -40.214  52.782 -52.395  1.00  0.00     0.001 A 
ENDROOT
BRANCH   9  12
HETATM   12  C   UNL     1     -42.458  55.026 -56.586  1.00  0.00     0.185 C 
BRANCH  12  13
HETATM   13  N   UNL     1     -42.615  56.212 -57.403  1.00  0.00    -0.351 N 
HETATM   14  C   UNL     1     -43.259  56.183 -58.619  1.00  0.00     0.253 C 
HETATM   15  O   UNL     1     -43.846  55.187 -59.035  1.00  0.00    -0.268 OA
HETATM   16  H   UNL     1     -42.176  57.075 -57.103  1.00  0.00     0.163 HD
BRANCH  14  17
HETATM   17  C   UNL     1     -43.289  57.454 -59.407  1.00  0.00     0.048 A 
HETATM   18  C   UNL     1     -44.426  58.224 -59.710  1.00  0.00     0.022 A 
HETATM   19  I   UNL     1     -46.376  57.835 -59.020  1.00  0.00    -0.043 I 
HETATM   20  C   UNL     1     -44.294  59.392 -60.479  1.00  0.00     0.019 A 
HETATM   21  C   UNL     1     -43.042  59.810 -60.931  1.00  0.00     0.001 A 
HETATM   22  C   UNL     1     -41.910  59.069 -60.618  1.00  0.00     0.001 A 
HETATM   23  C   UNL     1     -42.033  57.903 -59.861  1.00  0.00     0.018 A 
ENDBRANCH  14  17
ENDBRANCH  12  13
ENDBRANCH   9  12
BRANCH   7  24
HETATM   24  C   UNL     1     -42.406  58.490 -53.272  1.00  0.00     0.182 C 
BRANCH  24  25
HETATM   25  C   UNL     1     -41.439  59.413 -54.024  1.00  0.00     0.256 C 
BRANCH  25  26
HETATM   26  N   UNL     1     -42.177  60.393 -54.922  1.00  0.00    -0.070 N 
HETATM   27  H   UNL     1     -41.823  61.338 -54.716  1.00  0.00     0.279 HD
HETATM   28  C   UNL     1     -43.676  60.408 -54.660  1.00  0.00     0.235 C 
HETATM   29  C   UNL     1     -44.287  59.824 -55.917  1.00  0.00     0.029 C 
HETATM   30  C   UNL     1     -43.362  60.319 -57.007  1.00  0.00     0.029 C 
HETATM   31  C   UNL     1     -41.987  60.115 -56.404  1.00  0.00     0.235 C 
ENDBRANCH  25  26
ENDBRANCH  24  25
ENDBRANCH   7  24
TORSDOF 6
ENDMDL
MODEL 9
REMARK VINA RESULT:      -7.6      2.630      5.355
REMARK  6 active torsions:
REMARK  status: ('A' for Active; 'I' for Inactive)
REMARK    1  A    between atoms: N_7  and  C_8 
REMARK    2  A    between atoms: C_8  and  C_9 
REMARK    3  A    between atoms: C_9  and  N_10 
REMARK    4  A    between atoms: C_17  and  C_18 
REMARK    5  A    between atoms: C_18  and  N_19 
REMARK       I    between atoms: N_19  and  C_20 
REMARK    6  A    between atoms: C_20  and  C_21 
ROOT
HETATM    1  C   UNL     1     -40.545  52.488 -50.310  1.00  0.00     0.001 A 
HETATM    2  C   UNL     1     -41.367  53.602 -50.508  1.00  0.00     0.014 A 
HETATM    3  C   UNL     1     -41.434  54.206 -51.769  1.00  0.00     0.008 A 
HETATM    4  C   UNL     1     -40.684  53.686 -52.822  1.00  0.00     0.046 A 
HETATM    5  C   UNL     1     -40.773  54.306 -54.158  1.00  0.00     0.274 A 
HETATM    6  O   UNL     1     -40.170  53.823 -55.112  1.00  0.00    -0.266 OA
HETATM    7  N   UNL     1     -41.570  55.442 -54.262  1.00  0.00    -0.232 N 
HETATM    8  N   UNL     1     -42.319  55.944 -53.240  1.00  0.00    -0.172 NA
HETATM    9  C   UNL     1     -42.274  55.389 -52.066  1.00  0.00     0.084 A 
HETATM   10  C   UNL     1     -39.862  52.569 -52.622  1.00  0.00     0.018 A 
HETATM   11  C   UNL     1     -39.794  51.974 -51.365  1.00  0.00     0.001 A 
ENDROOT
BRANCH   9  12
HETATM   12  C   UNL     1     -43.155  55.997 -50.978  1.00  0.00     0.185 C 
BRANCH  12  13
HETATM   13  N   UNL     1     -43.288  57.422 -51.201  1.00  0.00    -0.351 N 
HETATM   14  C   UNL     1     -44.512  58.054 -51.188  1.00  0.00     0.253 C 
HETATM   15  O   UNL     1     -45.551  57.481 -50.870  1.00  0.00    -0.268 OA
HETATM   16  H   UNL     1     -42.464  57.959 -51.442  1.00  0.00     0.163 HD
BRANCH  14  17
HETATM   17  C   UNL     1     -44.530  59.514 -51.509  1.00  0.00     0.048 A 
HETATM   18  C   UNL     1     -44.605  60.088 -52.790  1.00  0.00     0.022 A 
HETATM   19  I   UNL     1     -44.829  59.020 -54.590  1.00  0.00    -0.043 I 
HETATM   20  C   UNL     1     -44.596  61.486 -52.930  1.00  0.00     0.019 A 
HETATM   21  C   UNL     1     -44.534  62.315 -51.811  1.00  0.00     0.001 A 
HETATM   22  C   UNL     1     -44.484  61.758 -50.539  1.00  0.00     0.001 A 
HETATM   23  C   UNL     1     -44.484  60.370 -50.390  1.00  0.00     0.018 A 
ENDBRANCH  14  17
ENDBRANCH  12  13
ENDBRANCH   9  12
BRANCH   7  24
HETATM   24  C   UNL     1     -41.812  56.013 -55.580  1.00  0.00     0.182 C 
BRANCH  24  25
HETATM   25  C   UNL     1     -43.006  55.384 -56.308  1.00  0.00     0.256 C 
BRANCH  25  26
HETATM   26  N   UNL     1     -43.512  56.271 -57.434  1.00  0.00    -0.070 N 
HETATM   27  H   UNL     1     -44.453  56.599 -57.178  1.00  0.00     0.279 HD
HETATM   28  C   UNL     1     -43.639  55.523 -58.753  1.00  0.00     0.235 C 
HETATM   29  C   UNL     1     -42.577  56.136 -59.642  1.00  0.00     0.029 C 
HETATM   30  C   UNL     1     -42.560  57.584 -59.203  1.00  0.00     0.029 C 
HETATM   31  C   UNL     1     -42.629  57.481 -57.693  1.00  0.00     0.235 C 
ENDBRANCH  25  26
ENDBRANCH  24  25
ENDBRANCH   7  24
TORSDOF 6
ENDMDL
MODEL 10
REMARK VINA RESULT:      -7.3      3.270      5.212
REMARK  6 active torsions:
REMARK  status: ('A' for Active; 'I' for Inactive)
REMARK    1  A    between atoms: N_7  and  C_8 
REMARK    2  A    between atoms: C_8  and  C_9 
REMARK    3  A    between atoms: C_9  and  N_10 
REMARK    4  A    between atoms: C_17  and  C_18 
REMARK    5  A    between atoms: C_18  and  N_19 
REMARK       I    between atoms: N_19  and  C_20 
REMARK    6  A    between atoms: C_20  and  C_21 
ROOT
HETATM    1  C   UNL     1     -40.675  54.038 -49.265  1.00  0.00     0.001 A 
HETATM    2  C   UNL     1     -41.723  54.805 -49.784  1.00  0.00     0.014 A 
HETATM    3  C   UNL     1     -42.065  54.698 -51.137  1.00  0.00     0.008 A 
HETATM    4  C   UNL     1     -41.360  53.819 -51.957  1.00  0.00     0.046 A 
HETATM    5  C   UNL     1     -41.736  53.687 -53.378  1.00  0.00     0.274 A 
HETATM    6  O   UNL     1     -41.169  52.872 -54.101  1.00  0.00    -0.266 OA
HETATM    7  N   UNL     1     -42.752  54.522 -53.831  1.00  0.00    -0.232 N 
HETATM    8  N   UNL     1     -43.457  55.370 -53.029  1.00  0.00    -0.172 NA
HETATM    9  C   UNL     1     -43.156  55.474 -51.769  1.00  0.00     0.084 A 
HETATM   10  C   UNL     1     -40.311  53.051 -51.436  1.00  0.00     0.018 A 
HETATM   11  C   UNL     1     -39.970  53.163 -50.090  1.00  0.00     0.001 A 
ENDROOT
BRANCH   9  12
HETATM   12  C   UNL     1     -44.002  56.430 -50.932  1.00  0.00     0.185 C 
BRANCH  12  13
HETATM   13  N   UNL     1     -44.060  57.723 -51.582  1.00  0.00    -0.351 N 
HETATM   14  C   UNL     1     -45.125  58.580 -51.414  1.00  0.00     0.253 C 
HETATM   15  O   UNL     1     -46.031  58.362 -50.614  1.00  0.00    -0.268 OA
HETATM   16  H   UNL     1     -43.328  57.976 -52.235  1.00  0.00     0.163 HD
BRANCH  14  17
HETATM   17  C   UNL     1     -45.108  59.853 -52.198  1.00  0.00     0.048 A 
HETATM   18  C   UNL     1     -44.830  61.138 -51.700  1.00  0.00     0.022 A 
HETATM   19  I   UNL     1     -44.248  61.578 -49.725  1.00  0.00    -0.043 I 
HETATM   20  C   UNL     1     -44.870  62.245 -52.564  1.00  0.00     0.019 A 
HETATM   21  C   UNL     1     -45.162  62.083 -53.918  1.00  0.00     0.001 A 
HETATM   22  C   UNL     1     -45.414  60.815 -54.424  1.00  0.00     0.001 A 
HETATM   23  C   UNL     1     -45.386  59.710 -53.572  1.00  0.00     0.018 A 
ENDBRANCH  14  17
ENDBRANCH  12  13
ENDBRANCH   9  12
BRANCH   7  24
HETATM   24  C   UNL     1     -43.264  54.338 -55.182  1.00  0.00     0.182 C 
BRANCH  24  25
HETATM   25  C   UNL     1     -42.870  55.466 -56.144  1.00  0.00     0.256 C 
BRANCH  25  26
HETATM   26  N   UNL     1     -43.254  56.832 -55.599  1.00  0.00    -0.070 N 
HETATM   27  H   UNL     1     -43.808  56.686 -54.744  1.00  0.00     0.279 HD
HETATM   28  C   UNL     1     -44.120  57.622 -56.568  1.00  0.00     0.235 C 
HETATM   29  C   UNL     1     -43.244  58.779 -57.004  1.00  0.00     0.029 C 
HETATM   30  C   UNL     1     -42.437  59.083 -55.760  1.00  0.00     0.029 C 
HETATM   31  C   UNL     1     -42.057  57.705 -55.258  1.00  0.00     0.235 C 
ENDBRANCH  25  26
ENDBRANCH  24  25
ENDBRANCH   7  24
TORSDOF 6
ENDMDL
