MODEL 1
REMARK VINA RESULT:      -8.5      0.000      0.000
REMARK  4 active torsions:
REMARK  status: ('A' for Active; 'I' for Inactive)
REMARK    1  A    between atoms: C_4  and  O_5 
REMARK    2  A    between atoms: O_5  and  C_6 
REMARK    3  A    between atoms: C_7  and  N_8 
REMARK       I    between atoms: N_8  and  C_9 
REMARK    4  A    between atoms: C_9  and  C_10 
ROOT
HETATM    1  C   UNL     1     -41.278  54.131 -53.824  1.00  0.00     0.102 A 
HETATM    2  C   UNL     1     -42.629  54.373 -53.499  1.00  0.00     0.069 A 
HETATM    3  C   UNL     1     -43.485  54.885 -54.478  1.00  0.00     0.032 A 
HETATM    4  C   UNL     1     -42.997  55.205 -55.747  1.00  0.00     0.002 A 
HETATM    5  C   UNL     1     -41.651  55.013 -56.048  1.00  0.00     0.003 A 
HETATM    6  C   UNL     1     -40.789  54.479 -55.089  1.00  0.00     0.039 A 
ENDROOT
BRANCH   2   7
HETATM    7  N   UNL     1     -43.057  54.029 -52.200  1.00  0.00    -0.320 N 
HETATM    8  C   UNL     1     -43.338  54.774 -51.091  1.00  0.00     0.257 C 
HETATM    9  O   UNL     1     -43.975  54.274 -50.163  1.00  0.00    -0.267 OA
HETATM   10  H   UNL     1     -43.205  53.035 -52.047  1.00  0.00     0.169 HD
BRANCH   8  11
HETATM   11  C   UNL     1     -42.800  56.156 -50.948  1.00  0.00     0.048 A 
HETATM   12  C   UNL     1     -43.579  57.216 -51.225  1.00  0.00     0.108 A 
HETATM   13  N   UNL     1     -43.076  58.494 -51.144  1.00  0.00    -0.333 N 
HETATM   14  C   UNL     1     -41.773  58.787 -50.821  1.00  0.00     0.245 A 
HETATM   15  H   UNL     1     -43.673  59.291 -51.335  1.00  0.00     0.168 HD
HETATM   16  O   UNL     1     -41.347  59.933 -50.743  1.00  0.00    -0.268 OA
HETATM   17  C   UNL     1     -40.891  57.616 -50.575  1.00  0.00     0.075 A 
HETATM   18  C   UNL     1     -41.397  56.374 -50.646  1.00  0.00     0.024 A 
ENDBRANCH   8  11
ENDBRANCH   2   7
BRANCH   1  19
HETATM   19  O   UNL     1     -40.500  53.617 -52.799  1.00  0.00    -0.309 OA
BRANCH  19  20
HETATM   20  C   UNL     1     -40.154  52.291 -52.822  1.00  0.00     0.076 A 
HETATM   21  C   UNL     1     -39.797  51.694 -51.613  1.00  0.00     0.037 A 
HETATM   22  C   UNL     1     -39.491  50.334 -51.578  1.00  0.00     0.003 A 
HETATM   23  C   UNL     1     -39.559  49.575 -52.747  1.00  0.00     0.000 A 
HETATM   24  C   UNL     1     -39.941  50.172 -53.951  1.00  0.00     0.003 A 
HETATM   25  C   UNL     1     -40.252  51.530 -53.988  1.00  0.00     0.037 A 
ENDBRANCH  19  20
ENDBRANCH   1  19
TORSDOF 4
ENDMDL
MODEL 2
REMARK VINA RESULT:      -8.3      1.951      3.313
REMARK  4 active torsions:
REMARK  status: ('A' for Active; 'I' for Inactive)
REMARK    1  A    between atoms: C_4  and  O_5 
REMARK    2  A    between atoms: O_5  and  C_6 
REMARK    3  A    between atoms: C_7  and  N_8 
REMARK       I    between atoms: N_8  and  C_9 
REMARK    4  A    between atoms: C_9  and  C_10 
ROOT
HETATM    1  C   UNL     1     -40.461  53.819 -51.398  1.00  0.00     0.102 A 
HETATM    2  C   UNL     1     -41.801  54.195 -51.170  1.00  0.00     0.069 A 
HETATM    3  C   UNL     1     -42.169  54.678 -49.911  1.00  0.00     0.032 A 
HETATM    4  C   UNL     1     -41.234  54.737 -48.875  1.00  0.00     0.002 A 
HETATM    5  C   UNL     1     -39.925  54.315 -49.090  1.00  0.00     0.003 A 
HETATM    6  C   UNL     1     -39.536  53.854 -50.348  1.00  0.00     0.039 A 
ENDROOT
BRANCH   2   7
HETATM    7  N   UNL     1     -42.695  54.110 -52.258  1.00  0.00    -0.320 N 
HETATM    8  C   UNL     1     -42.950  54.941 -53.311  1.00  0.00     0.257 C 
HETATM    9  O   UNL     1     -43.566  54.515 -54.290  1.00  0.00    -0.267 OA
HETATM   10  H   UNL     1     -43.256  53.264 -52.286  1.00  0.00     0.169 HD
BRANCH   8  11
HETATM   11  C   UNL     1     -42.578  56.382 -53.251  1.00  0.00     0.048 A 
HETATM   12  C   UNL     1     -43.525  57.316 -53.050  1.00  0.00     0.108 A 
HETATM   13  N   UNL     1     -43.198  58.652 -53.043  1.00  0.00    -0.333 N 
HETATM   14  C   UNL     1     -41.931  59.134 -53.268  1.00  0.00     0.245 A 
HETATM   15  H   UNL     1     -43.912  59.352 -52.872  1.00  0.00     0.168 HD
HETATM   16  O   UNL     1     -41.658  60.328 -53.245  1.00  0.00    -0.268 OA
HETATM   17  C   UNL     1     -40.892  58.109 -53.552  1.00  0.00     0.075 A 
HETATM   18  C   UNL     1     -41.221  56.807 -53.545  1.00  0.00     0.024 A 
ENDBRANCH   8  11
ENDBRANCH   2   7
BRANCH   1  19
HETATM   19  O   UNL     1     -40.179  53.356 -52.674  1.00  0.00    -0.309 OA
BRANCH  19  20
HETATM   20  C   UNL     1     -40.015  52.011 -52.876  1.00  0.00     0.076 A 
HETATM   21  C   UNL     1     -40.114  51.535 -54.183  1.00  0.00     0.037 A 
HETATM   22  C   UNL     1     -39.899  50.183 -54.446  1.00  0.00     0.003 A 
HETATM   23  C   UNL     1     -39.570  49.316 -53.403  1.00  0.00     0.000 A 
HETATM   24  C   UNL     1     -39.446  49.801 -52.098  1.00  0.00     0.003 A 
HETATM   25  C   UNL     1     -39.656  51.154 -51.835  1.00  0.00     0.037 A 
ENDBRANCH  19  20
ENDBRANCH   1  19
TORSDOF 4
ENDMDL
MODEL 3
REMARK VINA RESULT:      -7.9      2.344      4.543
REMARK  4 active torsions:
REMARK  status: ('A' for Active; 'I' for Inactive)
REMARK    1  A    between atoms: C_4  and  O_5 
REMARK    2  A    between atoms: O_5  and  C_6 
REMARK    3  A    between atoms: C_7  and  N_8 
REMARK       I    between atoms: N_8  and  C_9 
REMARK    4  A    between atoms: C_9  and  C_10 
ROOT
HETATM    1  C   UNL     1     -41.794  54.859 -51.593  1.00  0.00     0.102 A 
HETATM    2  C   UNL     1     -42.115  56.231 -51.659  1.00  0.00     0.069 A 
HETATM    3  C   UNL     1     -43.350  56.667 -51.169  1.00  0.00     0.032 A 
HETATM    4  C   UNL     1     -44.277  55.749 -50.670  1.00  0.00     0.002 A 
HETATM    5  C   UNL     1     -43.976  54.390 -50.655  1.00  0.00     0.003 A 
HETATM    6  C   UNL     1     -42.738  53.942 -51.118  1.00  0.00     0.039 A 
ENDROOT
BRANCH   2   7
HETATM    7  N   UNL     1     -41.136  57.105 -52.176  1.00  0.00    -0.320 N 
HETATM    8  C   UNL     1     -40.999  57.733 -53.381  1.00  0.00     0.257 C 
HETATM    9  O   UNL     1     -40.215  58.675 -53.494  1.00  0.00    -0.267 OA
HETATM   10  H   UNL     1     -40.385  57.335 -51.532  1.00  0.00     0.169 HD
BRANCH   8  11
HETATM   11  C   UNL     1     -41.716  57.228 -54.586  1.00  0.00     0.048 A 
HETATM   12  C   UNL     1     -41.334  56.078 -55.166  1.00  0.00     0.108 A 
HETATM   13  N   UNL     1     -41.957  55.630 -56.308  1.00  0.00    -0.333 N 
HETATM   14  C   UNL     1     -42.962  56.312 -56.952  1.00  0.00     0.245 A 
HETATM   15  H   UNL     1     -41.679  54.752 -56.732  1.00  0.00     0.168 HD
HETATM   16  O   UNL     1     -43.512  55.890 -57.962  1.00  0.00    -0.268 OA
HETATM   17  C   UNL     1     -43.345  57.616 -56.350  1.00  0.00     0.075 A 
HETATM   18  C   UNL     1     -42.737  58.036 -55.229  1.00  0.00     0.024 A 
ENDBRANCH   8  11
ENDBRANCH   2   7
BRANCH   1  19
HETATM   19  O   UNL     1     -40.550  54.513 -52.095  1.00  0.00    -0.309 OA
BRANCH  19  20
HETATM   20  C   UNL     1     -40.324  53.219 -52.487  1.00  0.00     0.076 A 
HETATM   21  C   UNL     1     -40.626  52.880 -53.806  1.00  0.00     0.037 A 
HETATM   22  C   UNL     1     -40.361  51.591 -54.267  1.00  0.00     0.003 A 
HETATM   23  C   UNL     1     -39.781  50.652 -53.412  1.00  0.00     0.000 A 
HETATM   24  C   UNL     1     -39.456  51.004 -52.100  1.00  0.00     0.003 A 
HETATM   25  C   UNL     1     -39.715  52.294 -51.638  1.00  0.00     0.037 A 
ENDBRANCH  19  20
ENDBRANCH   1  19
TORSDOF 4
ENDMDL
MODEL 4
REMARK VINA RESULT:      -7.9      2.148      4.234
REMARK  4 active torsions:
REMARK  status: ('A' for Active; 'I' for Inactive)
REMARK    1  A    between atoms: C_4  and  O_5 
REMARK    2  A    between atoms: O_5  and  C_6 
REMARK    3  A    between atoms: C_7  and  N_8 
REMARK       I    between atoms: N_8  and  C_9 
REMARK    4  A    between atoms: C_9  and  C_10 
ROOT
HETATM    1  C   UNL     1     -42.029  53.901 -51.010  1.00  0.00     0.102 A 
HETATM    2  C   UNL     1     -42.155  55.007 -50.143  1.00  0.00     0.069 A 
HETATM    3  C   UNL     1     -41.266  55.141 -49.074  1.00  0.00     0.032 A 
HETATM    4  C   UNL     1     -40.298  54.163 -48.833  1.00  0.00     0.002 A 
HETATM    5  C   UNL     1     -40.210  53.046 -49.660  1.00  0.00     0.003 A 
HETATM    6  C   UNL     1     -41.076  52.911 -50.747  1.00  0.00     0.039 A 
ENDROOT
BRANCH   2   7
HETATM    7  N   UNL     1     -43.154  55.957 -50.442  1.00  0.00    -0.320 N 
HETATM    8  C   UNL     1     -43.167  57.066 -51.239  1.00  0.00     0.257 C 
HETATM    9  O   UNL     1     -44.242  57.570 -51.568  1.00  0.00    -0.267 OA
HETATM   10  H   UNL     1     -44.051  55.790 -49.995  1.00  0.00     0.169 HD
BRANCH   8  11
HETATM   11  C   UNL     1     -41.895  57.731 -51.638  1.00  0.00     0.048 A 
HETATM   12  C   UNL     1     -41.458  57.646 -52.906  1.00  0.00     0.108 A 
HETATM   13  N   UNL     1     -40.259  58.214 -53.272  1.00  0.00    -0.333 N 
HETATM   14  C   UNL     1     -39.418  58.861 -52.398  1.00  0.00     0.245 A 
HETATM   15  H   UNL     1     -39.943  58.165 -54.234  1.00  0.00     0.168 HD
HETATM   16  O   UNL     1     -38.361  59.371 -52.747  1.00  0.00    -0.268 OA
HETATM   17  C   UNL     1     -39.867  58.903 -50.982  1.00  0.00     0.075 A 
HETATM   18  C   UNL     1     -41.044  58.355 -50.640  1.00  0.00     0.024 A 
ENDBRANCH   8  11
ENDBRANCH   2   7
BRANCH   1  19
HETATM   19  O   UNL     1     -42.947  53.848 -52.047  1.00  0.00    -0.309 OA
BRANCH  19  20
HETATM   20  C   UNL     1     -42.559  54.235 -53.303  1.00  0.00     0.076 A 
HETATM   21  C   UNL     1     -41.229  54.018 -53.666  1.00  0.00     0.037 A 
HETATM   22  C   UNL     1     -40.801  54.345 -54.952  1.00  0.00     0.003 A 
HETATM   23  C   UNL     1     -41.707  54.871 -55.874  1.00  0.00     0.000 A 
HETATM   24  C   UNL     1     -43.044  55.062 -55.515  1.00  0.00     0.003 A 
HETATM   25  C   UNL     1     -43.475  54.732 -54.231  1.00  0.00     0.037 A 
ENDBRANCH  19  20
ENDBRANCH   1  19
TORSDOF 4
ENDMDL
MODEL 5
REMARK VINA RESULT:      -7.9      1.819      2.533
REMARK  4 active torsions:
REMARK  status: ('A' for Active; 'I' for Inactive)
REMARK    1  A    between atoms: C_4  and  O_5 
REMARK    2  A    between atoms: O_5  and  C_6 
REMARK    3  A    between atoms: C_7  and  N_8 
REMARK       I    between atoms: N_8  and  C_9 
REMARK    4  A    between atoms: C_9  and  C_10 
ROOT
HETATM    1  C   UNL     1     -43.176  55.478 -54.669  1.00  0.00     0.102 A 
HETATM    2  C   UNL     1     -43.693  56.633 -54.044  1.00  0.00     0.069 A 
HETATM    3  C   UNL     1     -43.633  57.857 -54.716  1.00  0.00     0.032 A 
HETATM    4  C   UNL     1     -43.021  57.946 -55.969  1.00  0.00     0.002 A 
HETATM    5  C   UNL     1     -42.466  56.814 -56.559  1.00  0.00     0.003 A 
HETATM    6  C   UNL     1     -42.540  55.580 -55.911  1.00  0.00     0.039 A 
ENDROOT
BRANCH   2   7
HETATM    7  N   UNL     1     -44.296  56.474 -52.779  1.00  0.00    -0.320 N 
HETATM    8  C   UNL     1     -44.117  57.107 -51.583  1.00  0.00     0.257 C 
HETATM    9  O   UNL     1     -44.965  56.992 -50.697  1.00  0.00    -0.267 OA
HETATM   10  H   UNL     1     -45.020  55.762 -52.737  1.00  0.00     0.169 HD
BRANCH   8  11
HETATM   11  C   UNL     1     -42.860  57.856 -51.300  1.00  0.00     0.048 A 
HETATM   12  C   UNL     1     -41.755  57.197 -50.910  1.00  0.00     0.108 A 
HETATM   13  N   UNL     1     -40.605  57.885 -50.598  1.00  0.00    -0.333 N 
HETATM   14  C   UNL     1     -40.500  59.255 -50.622  1.00  0.00     0.245 A 
HETATM   15  H   UNL     1     -39.768  57.383 -50.323  1.00  0.00     0.168 HD
HETATM   16  O   UNL     1     -39.462  59.848 -50.353  1.00  0.00    -0.268 OA
HETATM   17  C   UNL     1     -41.737  59.991 -50.993  1.00  0.00     0.075 A 
HETATM   18  C   UNL     1     -42.850  59.308 -51.306  1.00  0.00     0.024 A 
ENDBRANCH   8  11
ENDBRANCH   2   7
BRANCH   1  19
HETATM   19  O   UNL     1     -43.280  54.306 -53.936  1.00  0.00    -0.309 OA
BRANCH  19  20
HETATM   20  C   UNL     1     -42.138  53.692 -53.493  1.00  0.00     0.076 A 
HETATM   21  C   UNL     1     -41.768  53.896 -52.163  1.00  0.00     0.037 A 
HETATM   22  C   UNL     1     -40.645  53.247 -51.650  1.00  0.00     0.003 A 
HETATM   23  C   UNL     1     -39.907  52.387 -52.464  1.00  0.00     0.000 A 
HETATM   24  C   UNL     1     -40.296  52.165 -53.788  1.00  0.00     0.003 A 
HETATM   25  C   UNL     1     -41.422  52.809 -54.301  1.00  0.00     0.037 A 
ENDBRANCH  19  20
ENDBRANCH   1  19
TORSDOF 4
ENDMDL
MODEL 6
REMARK VINA RESULT:      -7.7      2.187      2.933
REMARK  4 active torsions:
REMARK  status: ('A' for Active; 'I' for Inactive)
REMARK    1  A    between atoms: C_4  and  O_5 
REMARK    2  A    between atoms: O_5  and  C_6 
REMARK    3  A    between atoms: C_7  and  N_8 
REMARK       I    between atoms: N_8  and  C_9 
REMARK    4  A    between atoms: C_9  and  C_10 
ROOT
HETATM    1  C   UNL     1     -43.069  54.490 -53.428  1.00  0.00     0.102 A 
HETATM    2  C   UNL     1     -43.633  55.779 -53.532  1.00  0.00     0.069 A 
HETATM    3  C   UNL     1     -43.526  56.475 -54.739  1.00  0.00     0.032 A 
HETATM    4  C   UNL     1     -42.822  55.924 -55.813  1.00  0.00     0.002 A 
HETATM    5  C   UNL     1     -42.222  54.675 -55.689  1.00  0.00     0.003 A 
HETATM    6  C   UNL     1     -42.341  53.956 -54.498  1.00  0.00     0.039 A 
ENDROOT
BRANCH   2   7
HETATM    7  N   UNL     1     -44.330  56.277 -52.411  1.00  0.00    -0.320 N 
HETATM    8  C   UNL     1     -44.120  57.350 -51.594  1.00  0.00     0.257 C 
HETATM    9  O   UNL     1     -45.027  57.748 -50.862  1.00  0.00    -0.267 OA
HETATM   10  H   UNL     1     -45.163  55.753 -52.158  1.00  0.00     0.169 HD
BRANCH   8  11
HETATM   11  C   UNL     1     -42.776  57.987 -51.505  1.00  0.00     0.048 A 
HETATM   12  C   UNL     1     -42.494  59.074 -52.245  1.00  0.00     0.108 A 
HETATM   13  N   UNL     1     -41.240  59.639 -52.207  1.00  0.00    -0.333 N 
HETATM   14  C   UNL     1     -40.195  59.139 -51.467  1.00  0.00     0.245 A 
HETATM   15  H   UNL     1     -41.038  60.470 -52.751  1.00  0.00     0.168 HD
HETATM   16  O   UNL     1     -39.089  59.664 -51.438  1.00  0.00    -0.268 OA
HETATM   17  C   UNL     1     -40.484  57.901 -50.697  1.00  0.00     0.075 A 
HETATM   18  C   UNL     1     -41.715  57.366 -50.733  1.00  0.00     0.024 A 
ENDBRANCH   8  11
ENDBRANCH   2   7
BRANCH   1  19
HETATM   19  O   UNL     1     -43.224  53.868 -52.200  1.00  0.00    -0.309 OA
BRANCH  19  20
HETATM   20  C   UNL     1     -42.178  53.865 -51.314  1.00  0.00     0.076 A 
HETATM   21  C   UNL     1     -40.910  53.568 -51.811  1.00  0.00     0.037 A 
HETATM   22  C   UNL     1     -39.806  53.608 -50.960  1.00  0.00     0.003 A 
HETATM   23  C   UNL     1     -39.974  53.961 -49.620  1.00  0.00     0.000 A 
HETATM   24  C   UNL     1     -41.243  54.283 -49.132  1.00  0.00     0.003 A 
HETATM   25  C   UNL     1     -42.347  54.248 -49.983  1.00  0.00     0.037 A 
ENDBRANCH  19  20
ENDBRANCH   1  19
TORSDOF 4
ENDMDL
MODEL 7
REMARK VINA RESULT:      -7.5      2.359      4.933
REMARK  4 active torsions:
REMARK  status: ('A' for Active; 'I' for Inactive)
REMARK    1  A    between atoms: C_4  and  O_5 
REMARK    2  A    between atoms: O_5  and  C_6 
REMARK    3  A    between atoms: C_7  and  N_8 
REMARK       I    between atoms: N_8  and  C_9 
REMARK    4  A    between atoms: C_9  and  C_10 
ROOT
HETATM    1  C   UNL     1     -42.376  55.008 -54.857  1.00  0.00     0.102 A 
HETATM    2  C   UNL     1     -42.590  54.886 -53.468  1.00  0.00     0.069 A 
HETATM    3  C   UNL     1     -41.724  54.093 -52.711  1.00  0.00     0.032 A 
HETATM    4  C   UNL     1     -40.690  53.385 -53.330  1.00  0.00     0.002 A 
HETATM    5  C   UNL     1     -40.514  53.467 -54.709  1.00  0.00     0.003 A 
HETATM    6  C   UNL     1     -41.356  54.275 -55.475  1.00  0.00     0.039 A 
ENDROOT
BRANCH   2   7
HETATM    7  N   UNL     1     -43.652  55.626 -52.906  1.00  0.00    -0.320 N 
HETATM    8  C   UNL     1     -43.746  56.912 -52.456  1.00  0.00     0.257 C 
HETATM    9  O   UNL     1     -44.855  57.417 -52.280  1.00  0.00    -0.267 OA
HETATM   10  H   UNL     1     -44.530  55.122 -52.827  1.00  0.00     0.169 HD
BRANCH   8  11
HETATM   11  C   UNL     1     -42.524  57.679 -52.084  1.00  0.00     0.048 A 
HETATM   12  C   UNL     1     -41.980  58.546 -52.956  1.00  0.00     0.108 A 
HETATM   13  N   UNL     1     -40.824  59.221 -52.640  1.00  0.00    -0.333 N 
HETATM   14  C   UNL     1     -40.130  59.049 -51.466  1.00  0.00     0.245 A 
HETATM   15  H   UNL     1     -40.428  59.888 -53.293  1.00  0.00     0.168 HD
HETATM   16  O   UNL     1     -39.109  59.669 -51.199  1.00  0.00    -0.268 OA
HETATM   17  C   UNL     1     -40.694  58.045 -50.526  1.00  0.00     0.075 A 
HETATM   18  C   UNL     1     -41.829  57.401 -50.840  1.00  0.00     0.024 A 
ENDBRANCH   8  11
ENDBRANCH   2   7
BRANCH   1  19
HETATM   19  O   UNL     1     -43.277  55.817 -55.532  1.00  0.00    -0.309 OA
BRANCH  19  20
HETATM   20  C   UNL     1     -42.922  56.345 -56.746  1.00  0.00     0.076 A 
HETATM   21  C   UNL     1     -43.217  55.600 -57.887  1.00  0.00     0.037 A 
HETATM   22  C   UNL     1     -42.926  56.120 -59.148  1.00  0.00     0.003 A 
HETATM   23  C   UNL     1     -42.355  57.389 -59.261  1.00  0.00     0.000 A 
HETATM   24  C   UNL     1     -42.085  58.143 -58.117  1.00  0.00     0.003 A 
HETATM   25  C   UNL     1     -42.380  57.626 -56.855  1.00  0.00     0.037 A 
ENDBRANCH  19  20
ENDBRANCH   1  19
TORSDOF 4
ENDMDL
MODEL 8
REMARK VINA RESULT:      -7.5      2.114      4.812
REMARK  4 active torsions:
REMARK  status: ('A' for Active; 'I' for Inactive)
REMARK    1  A    between atoms: C_4  and  O_5 
REMARK    2  A    between atoms: O_5  and  C_6 
REMARK    3  A    between atoms: C_7  and  N_8 
REMARK       I    between atoms: N_8  and  C_9 
REMARK    4  A    between atoms: C_9  and  C_10 
ROOT
HETATM    1  C   UNL     1     -42.836  54.299 -53.855  1.00  0.00     0.102 A 
HETATM    2  C   UNL     1     -42.597  54.286 -52.465  1.00  0.00     0.069 A 
HETATM    3  C   UNL     1     -41.452  53.650 -51.976  1.00  0.00     0.032 A 
HETATM    4  C   UNL     1     -40.583  52.989 -52.848  1.00  0.00     0.002 A 
HETATM    5  C   UNL     1     -40.850  52.960 -54.213  1.00  0.00     0.003 A 
HETATM    6  C   UNL     1     -41.976  53.611 -54.720  1.00  0.00     0.039 A 
ENDROOT
BRANCH   2   7
HETATM    7  N   UNL     1     -43.513  54.971 -51.641  1.00  0.00    -0.320 N 
HETATM    8  C   UNL     1     -43.600  56.272 -51.237  1.00  0.00     0.257 C 
HETATM    9  O   UNL     1     -44.652  56.694 -50.756  1.00  0.00    -0.267 OA
HETATM   10  H   UNL     1     -44.272  54.401 -51.280  1.00  0.00     0.169 HD
BRANCH   8  11
HETATM   11  C   UNL     1     -42.407  57.164 -51.283  1.00  0.00     0.048 A 
HETATM   12  C   UNL     1     -41.407  56.999 -50.399  1.00  0.00     0.108 A 
HETATM   13  N   UNL     1     -40.325  57.849 -50.401  1.00  0.00    -0.333 N 
HETATM   14  C   UNL     1     -40.194  58.922 -51.250  1.00  0.00     0.245 A 
HETATM   15  H   UNL     1     -39.565  57.709 -49.746  1.00  0.00     0.168 HD
HETATM   16  O   UNL     1     -39.216  59.659 -51.244  1.00  0.00    -0.268 OA
HETATM   17  C   UNL     1     -41.326  59.146 -52.187  1.00  0.00     0.075 A 
HETATM   18  C   UNL     1     -42.371  58.303 -52.183  1.00  0.00     0.024 A 
ENDBRANCH   8  11
ENDBRANCH   2   7
BRANCH   1  19
HETATM   19  O   UNL     1     -43.989  54.955 -54.257  1.00  0.00    -0.309 OA
BRANCH  19  20
HETATM   20  C   UNL     1     -43.901  56.246 -54.708  1.00  0.00     0.076 A 
HETATM   21  C   UNL     1     -42.768  56.600 -55.441  1.00  0.00     0.037 A 
HETATM   22  C   UNL     1     -42.659  57.886 -55.969  1.00  0.00     0.003 A 
HETATM   23  C   UNL     1     -43.690  58.806 -55.775  1.00  0.00     0.000 A 
HETATM   24  C   UNL     1     -44.834  58.440 -55.063  1.00  0.00     0.003 A 
HETATM   25  C   UNL     1     -44.947  57.152 -54.539  1.00  0.00     0.037 A 
ENDBRANCH  19  20
ENDBRANCH   1  19
TORSDOF 4
ENDMDL
MODEL 9
REMARK VINA RESULT:      -7.4      2.175      3.812
REMARK  4 active torsions:
REMARK  status: ('A' for Active; 'I' for Inactive)
REMARK    1  A    between atoms: C_4  and  O_5 
REMARK    2  A    between atoms: O_5  and  C_6 
REMARK    3  A    between atoms: C_7  and  N_8 
REMARK       I    between atoms: N_8  and  C_9 
REMARK    4  A    between atoms: C_9  and  C_10 
ROOT
HETATM    1  C   UNL     1     -41.763  55.309 -51.445  1.00  0.00     0.102 A 
HETATM    2  C   UNL     1     -42.102  56.585 -51.943  1.00  0.00     0.069 A 
HETATM    3  C   UNL     1     -43.369  57.109 -51.670  1.00  0.00     0.032 A 
HETATM    4  C   UNL     1     -44.307  56.357 -50.959  1.00  0.00     0.002 A 
HETATM    5  C   UNL     1     -43.986  55.077 -50.514  1.00  0.00     0.003 A 
HETATM    6  C   UNL     1     -42.717  54.550 -50.758  1.00  0.00     0.039 A 
ENDROOT
BRANCH   2   7
HETATM    7  N   UNL     1     -41.110  57.291 -52.654  1.00  0.00    -0.320 N 
HETATM    8  C   UNL     1     -40.729  58.603 -52.654  1.00  0.00     0.257 C 
HETATM    9  O   UNL     1     -39.645  58.924 -53.143  1.00  0.00    -0.267 OA
HETATM   10  H   UNL     1     -40.549  56.725 -53.283  1.00  0.00     0.169 HD
BRANCH   8  11
HETATM   11  C   UNL     1     -41.652  59.662 -52.157  1.00  0.00     0.048 A 
HETATM   12  C   UNL     1     -42.393  60.372 -53.025  1.00  0.00     0.108 A 
HETATM   13  N   UNL     1     -43.210  61.386 -52.579  1.00  0.00    -0.333 N 
HETATM   14  C   UNL     1     -43.308  61.771 -51.264  1.00  0.00     0.245 A 
HETATM   15  H   UNL     1     -43.782  61.906 -53.235  1.00  0.00     0.168 HD
HETATM   16  O   UNL     1     -44.051  62.669 -50.886  1.00  0.00    -0.268 OA
HETATM   17  C   UNL     1     -42.442  61.031 -50.309  1.00  0.00     0.075 A 
HETATM   18  C   UNL     1     -41.658  60.036 -50.754  1.00  0.00     0.024 A 
ENDBRANCH   8  11
ENDBRANCH   2   7
BRANCH   1  19
HETATM   19  O   UNL     1     -40.487  54.867 -51.756  1.00  0.00    -0.309 OA
BRANCH  19  20
HETATM   20  C   UNL     1     -40.330  53.637 -52.338  1.00  0.00     0.076 A 
HETATM   21  C   UNL     1     -40.650  53.514 -53.690  1.00  0.00     0.037 A 
HETATM   22  C   UNL     1     -40.454  52.296 -54.340  1.00  0.00     0.003 A 
HETATM   23  C   UNL     1     -39.923  51.212 -53.640  1.00  0.00     0.000 A 
HETATM   24  C   UNL     1     -39.579  51.346 -52.293  1.00  0.00     0.003 A 
HETATM   25  C   UNL     1     -39.770  52.565 -51.642  1.00  0.00     0.037 A 
ENDBRANCH  19  20
ENDBRANCH   1  19
TORSDOF 4
ENDMDL
MODEL 10
REMARK VINA RESULT:      -7.3     14.779     16.949
REMARK  4 active torsions:
REMARK  status: ('A' for Active; 'I' for Inactive)
REMARK    1  A    between atoms: C_4  and  O_5 
REMARK    2  A    between atoms: O_5  and  C_6 
REMARK    3  A    between atoms: C_7  and  N_8 
REMARK       I    between atoms: N_8  and  C_9 
REMARK    4  A    between atoms: C_9  and  C_10 
ROOT
HETATM    1  C   UNL     1     -36.000  40.542 -55.016  1.00  0.00     0.102 A 
HETATM    2  C   UNL     1     -34.971  41.198 -54.309  1.00  0.00     0.069 A 
HETATM    3  C   UNL     1     -35.251  41.758 -53.059  1.00  0.00     0.032 A 
HETATM    4  C   UNL     1     -36.547  41.718 -52.541  1.00  0.00     0.002 A 
HETATM    5  C   UNL     1     -37.572  41.116 -53.266  1.00  0.00     0.003 A 
HETATM    6  C   UNL     1     -37.303  40.530 -54.504  1.00  0.00     0.039 A 
ENDROOT
BRANCH   2   7
HETATM    7  N   UNL     1     -33.685  41.203 -54.888  1.00  0.00    -0.320 N 
HETATM    8  C   UNL     1     -32.550  40.489 -54.628  1.00  0.00     0.257 C 
HETATM    9  O   UNL     1     -31.641  40.463 -55.459  1.00  0.00    -0.267 OA
HETATM   10  H   UNL     1     -33.567  41.850 -55.663  1.00  0.00     0.169 HD
BRANCH   8  11
HETATM   11  C   UNL     1     -32.358  39.820 -53.311  1.00  0.00     0.048 A 
HETATM   12  C   UNL     1     -32.667  38.520 -53.163  1.00  0.00     0.108 A 
HETATM   13  N   UNL     1     -32.540  37.907 -51.938  1.00  0.00    -0.333 N 
HETATM   14  C   UNL     1     -32.137  38.553 -50.794  1.00  0.00     0.245 A 
HETATM   15  H   UNL     1     -32.755  36.922 -51.835  1.00  0.00     0.168 HD
HETATM   16  O   UNL     1     -32.019  37.986 -49.715  1.00  0.00    -0.268 OA
HETATM   17  C   UNL     1     -31.854  40.005 -50.939  1.00  0.00     0.075 A 
HETATM   18  C   UNL     1     -31.971  40.590 -52.142  1.00  0.00     0.024 A 
ENDBRANCH   8  11
ENDBRANCH   2   7
BRANCH   1  19
HETATM   19  O   UNL     1     -35.637  40.010 -56.242  1.00  0.00    -0.309 OA
BRANCH  19  20
HETATM   20  C   UNL     1     -36.254  40.467 -57.378  1.00  0.00     0.076 A 
HETATM   21  C   UNL     1     -37.003  39.553 -58.120  1.00  0.00     0.037 A 
HETATM   22  C   UNL     1     -37.693  39.983 -59.253  1.00  0.00     0.003 A 
HETATM   23  C   UNL     1     -37.645  41.327 -59.628  1.00  0.00     0.000 A 
HETATM   24  C   UNL     1     -36.915  42.243 -58.867  1.00  0.00     0.003 A 
HETATM   25  C   UNL     1     -36.228  41.816 -57.732  1.00  0.00     0.037 A 
ENDBRANCH  19  20
ENDBRANCH   1  19
TORSDOF 4
ENDMDL
