MODEL 1
REMARK VINA RESULT:      -9.3      0.000      0.000
REMARK  2 active torsions:
REMARK  status: ('A' for Active; 'I' for Inactive)
REMARK    1  A    between atoms: N_8  and  N_9 
REMARK       I    between atoms: N_9  and  C_10 
REMARK    2  A    between atoms: C_10  and  C_11 
ROOT
HETATM    1  N   UNL     1     -42.990  55.707 -53.279  1.00  0.00    -0.242 N 
HETATM    2  C   UNL     1     -41.608  55.624 -53.278  1.00  0.00     0.273 C 
HETATM    3  O   UNL     1     -40.852  56.547 -53.579  1.00  0.00    -0.266 OA
HETATM    4  H   UNL     1     -43.584  54.935 -52.979  1.00  0.00     0.192 HD
ENDROOT
BRANCH   1   5
HETATM    5  N   UNL     1     -43.580  56.901 -53.585  1.00  0.00    -0.166 NA
HETATM    6  C   UNL     1     -44.183  57.530 -52.629  1.00  0.00     0.157 A 
HETATM    7  C   UNL     1     -44.842  58.823 -52.755  1.00  0.00     0.027 A 
HETATM    8  C   UNL     1     -44.391  57.094 -51.178  1.00  0.00     0.277 A 
HETATM    9  C   UNL     1     -44.928  59.688 -53.828  1.00  0.00     0.023 A 
HETATM   10  C   UNL     1     -45.416  59.100 -51.516  1.00  0.00     0.048 A 
HETATM   11  C   UNL     1     -45.619  60.891 -53.628  1.00  0.00    -0.061 A 
HETATM   12  C   UNL     1     -45.751  61.884 -54.748  1.00  0.00     0.048 C 
HETATM   13  C   UNL     1     -46.222  61.161 -52.374  1.00  0.00     0.009 A 
HETATM   14  C   UNL     1     -46.121  60.264 -51.303  1.00  0.00     0.031 A 
HETATM   15  N   UNL     1     -45.158  58.081 -50.600  1.00  0.00    -0.321 N 
HETATM   16  H   UNL     1     -45.456  58.064 -49.636  1.00  0.00     0.169 HD
HETATM   17  O   UNL     1     -43.939  56.080 -50.689  1.00  0.00    -0.266 OA
ENDBRANCH   1   5
BRANCH   2  18
HETATM   18  C   UNL     1     -41.006  54.349 -52.819  1.00  0.00     0.058 A 
HETATM   19  C   UNL     1     -40.579  54.068 -51.522  1.00  0.00     0.047 A 
HETATM   20  C   UNL     1     -40.696  55.029 -50.378  1.00  0.00     0.071 C 
HETATM   21  N   UNL     1     -40.028  52.866 -51.186  1.00  0.00    -0.252 NA
HETATM   22  C   UNL     1     -39.940  51.893 -52.114  1.00  0.00     0.067 A 
HETATM   23  C   UNL     1     -40.388  52.078 -53.434  1.00  0.00    -0.006 A 
HETATM   24  C   UNL     1     -39.403  50.659 -51.772  1.00  0.00     0.032 A 
HETATM   25  C   UNL     1     -40.920  53.326 -53.772  1.00  0.00     0.033 A 
HETATM   26  C   UNL     1     -40.301  51.031 -54.369  1.00  0.00     0.014 A 
HETATM   27  C   UNL     1     -39.765  49.800 -53.998  1.00  0.00     0.001 A 
HETATM   28  C   UNL     1     -39.311  49.614 -52.697  1.00  0.00     0.002 A 
ENDBRANCH   2  18
TORSDOF 2
ENDMDL
MODEL 2
REMARK VINA RESULT:      -9.2      2.358      3.091
REMARK  2 active torsions:
REMARK  status: ('A' for Active; 'I' for Inactive)
REMARK    1  A    between atoms: N_8  and  N_9 
REMARK       I    between atoms: N_9  and  C_10 
REMARK    2  A    between atoms: C_10  and  C_11 
ROOT
HETATM    1  N   UNL     1     -40.831  56.986 -50.830  1.00  0.00    -0.242 N 
HETATM    2  C   UNL     1     -41.634  55.872 -50.653  1.00  0.00     0.273 C 
HETATM    3  O   UNL     1     -42.810  55.907 -50.294  1.00  0.00    -0.266 OA
HETATM    4  H   UNL     1     -39.874  56.921 -51.174  1.00  0.00     0.192 HD
ENDROOT
BRANCH   1   5
HETATM    5  N   UNL     1     -41.374  58.227 -50.646  1.00  0.00    -0.166 NA
HETATM    6  C   UNL     1     -41.673  58.909 -51.703  1.00  0.00     0.157 A 
HETATM    7  C   UNL     1     -42.283  60.233 -51.708  1.00  0.00     0.027 A 
HETATM    8  C   UNL     1     -41.449  58.547 -53.171  1.00  0.00     0.277 A 
HETATM    9  C   UNL     1     -42.736  61.017 -50.666  1.00  0.00     0.023 A 
HETATM   10  C   UNL     1     -42.370  60.627 -53.041  1.00  0.00     0.048 A 
HETATM   11  C   UNL     1     -43.310  62.253 -50.995  1.00  0.00    -0.061 A 
HETATM   12  C   UNL     1     -43.829  63.160 -49.916  1.00  0.00     0.048 C 
HETATM   13  C   UNL     1     -43.376  62.662 -52.351  1.00  0.00     0.009 A 
HETATM   14  C   UNL     1     -42.907  61.846 -53.388  1.00  0.00     0.031 A 
HETATM   15  N   UNL     1     -41.871  59.643 -53.892  1.00  0.00    -0.321 N 
HETATM   16  H   UNL     1     -41.843  59.692 -54.900  1.00  0.00     0.169 HD
HETATM   17  O   UNL     1     -40.998  57.491 -53.563  1.00  0.00    -0.266 OA
ENDBRANCH   1   5
BRANCH   2  18
HETATM   18  C   UNL     1     -41.043  54.552 -50.986  1.00  0.00     0.058 A 
HETATM   19  C   UNL     1     -40.462  53.667 -50.081  1.00  0.00     0.047 A 
HETATM   20  C   UNL     1     -40.374  53.918 -48.605  1.00  0.00     0.071 C 
HETATM   21  N   UNL     1     -39.934  52.471 -50.475  1.00  0.00    -0.252 NA
HETATM   22  C   UNL     1     -40.021  52.101 -51.767  1.00  0.00     0.067 A 
HETATM   23  C   UNL     1     -40.632  52.915 -52.737  1.00  0.00    -0.006 A 
HETATM   24  C   UNL     1     -39.508  50.876 -52.170  1.00  0.00     0.032 A 
HETATM   25  C   UNL     1     -41.139  54.151 -52.325  1.00  0.00     0.033 A 
HETATM   26  C   UNL     1     -40.726  52.484 -54.072  1.00  0.00     0.014 A 
HETATM   27  C   UNL     1     -40.209  51.246 -54.449  1.00  0.00     0.001 A 
HETATM   28  C   UNL     1     -39.596  50.441 -53.497  1.00  0.00     0.002 A 
ENDBRANCH   2  18
TORSDOF 2
ENDMDL
MODEL 3
REMARK VINA RESULT:      -9.0      2.137      8.640
REMARK  2 active torsions:
REMARK  status: ('A' for Active; 'I' for Inactive)
REMARK    1  A    between atoms: N_8  and  N_9 
REMARK       I    between atoms: N_9  and  C_10 
REMARK    2  A    between atoms: C_10  and  C_11 
ROOT
HETATM    1  N   UNL     1     -41.384  55.814 -51.677  1.00  0.00    -0.242 N 
HETATM    2  C   UNL     1     -41.293  57.008 -52.372  1.00  0.00     0.273 C 
HETATM    3  O   UNL     1     -40.815  57.126 -53.500  1.00  0.00    -0.266 OA
HETATM    4  H   UNL     1     -41.830  55.746 -50.763  1.00  0.00     0.192 HD
ENDROOT
BRANCH   1   5
HETATM    5  N   UNL     1     -40.965  54.662 -52.284  1.00  0.00    -0.166 NA
HETATM    6  C   UNL     1     -40.726  53.643 -51.525  1.00  0.00     0.157 A 
HETATM    7  C   UNL     1     -40.301  52.328 -51.988  1.00  0.00     0.027 A 
HETATM    8  C   UNL     1     -40.788  53.548 -50.000  1.00  0.00     0.277 A 
HETATM    9  C   UNL     1     -40.126  51.840 -53.268  1.00  0.00     0.023 A 
HETATM   10  C   UNL     1     -40.093  51.552 -50.851  1.00  0.00     0.048 A 
HETATM   11  C   UNL     1     -39.730  50.501 -53.395  1.00  0.00    -0.061 A 
HETATM   12  C   UNL     1     -39.522  49.898 -54.755  1.00  0.00     0.048 C 
HETATM   13  C   UNL     1     -39.496  49.720 -52.235  1.00  0.00     0.009 A 
HETATM   14  C   UNL     1     -39.679  50.242 -50.949  1.00  0.00     0.031 A 
HETATM   15  N   UNL     1     -40.368  52.273 -49.690  1.00  0.00    -0.321 N 
HETATM   16  H   UNL     1     -40.306  51.920 -48.747  1.00  0.00     0.169 HD
HETATM   17  O   UNL     1     -41.150  54.443 -49.265  1.00  0.00    -0.266 OA
ENDBRANCH   1   5
BRANCH   2  18
HETATM   18  C   UNL     1     -41.874  58.211 -51.730  1.00  0.00     0.058 A 
HETATM   19  C   UNL     1     -41.163  59.196 -51.045  1.00  0.00     0.047 A 
HETATM   20  C   UNL     1     -39.673  59.189 -50.884  1.00  0.00     0.071 C 
HETATM   21  N   UNL     1     -41.781  60.271 -50.476  1.00  0.00    -0.252 NA
HETATM   22  C   UNL     1     -43.111  60.426 -50.620  1.00  0.00     0.067 A 
HETATM   23  C   UNL     1     -43.897  59.503 -51.332  1.00  0.00    -0.006 A 
HETATM   24  C   UNL     1     -43.742  61.530 -50.064  1.00  0.00     0.032 A 
HETATM   25  C   UNL     1     -43.256  58.389 -51.882  1.00  0.00     0.033 A 
HETATM   26  C   UNL     1     -45.280  59.710 -51.482  1.00  0.00     0.014 A 
HETATM   27  C   UNL     1     -45.887  60.831 -50.920  1.00  0.00     0.001 A 
HETATM   28  C   UNL     1     -45.117  61.742 -50.206  1.00  0.00     0.002 A 
ENDBRANCH   2  18
TORSDOF 2
ENDMDL
MODEL 4
REMARK VINA RESULT:      -9.0      1.363      2.099
REMARK  2 active torsions:
REMARK  status: ('A' for Active; 'I' for Inactive)
REMARK    1  A    between atoms: N_8  and  N_9 
REMARK       I    between atoms: N_9  and  C_10 
REMARK    2  A    between atoms: C_10  and  C_11 
ROOT
HETATM    1  N   UNL     1     -42.981  55.693 -51.188  1.00  0.00    -0.242 N 
HETATM    2  C   UNL     1     -41.603  55.575 -51.125  1.00  0.00     0.273 C 
HETATM    3  O   UNL     1     -40.832  56.503 -50.884  1.00  0.00    -0.266 OA
HETATM    4  H   UNL     1     -43.592  54.891 -51.345  1.00  0.00     0.192 HD
ENDROOT
BRANCH   1   5
HETATM    5  N   UNL     1     -43.554  56.904 -50.919  1.00  0.00    -0.166 NA
HETATM    6  C   UNL     1     -44.078  57.549 -51.910  1.00  0.00     0.157 A 
HETATM    7  C   UNL     1     -44.756  58.835 -51.816  1.00  0.00     0.027 A 
HETATM    8  C   UNL     1     -44.102  57.172 -53.392  1.00  0.00     0.277 A 
HETATM    9  C   UNL     1     -45.059  59.612 -50.715  1.00  0.00     0.023 A 
HETATM   10  C   UNL     1     -45.105  59.199 -53.114  1.00  0.00     0.048 A 
HETATM   11  C   UNL     1     -45.755  60.807 -50.946  1.00  0.00    -0.061 A 
HETATM   12  C   UNL     1     -46.124  61.704 -49.798  1.00  0.00     0.048 C 
HETATM   13  C   UNL     1     -46.089  61.187 -52.270  1.00  0.00     0.009 A 
HETATM   14  C   UNL     1     -45.767  60.379 -53.369  1.00  0.00     0.031 A 
HETATM   15  N   UNL     1     -44.711  58.228 -54.034  1.00  0.00    -0.321 N 
HETATM   16  H   UNL     1     -44.867  58.261 -55.030  1.00  0.00     0.169 HD
HETATM   17  O   UNL     1     -43.667  56.136 -53.850  1.00  0.00    -0.266 OA
ENDBRANCH   1   5
BRANCH   2  18
HETATM   18  C   UNL     1     -41.031  54.218 -51.299  1.00  0.00     0.058 A 
HETATM   19  C   UNL     1     -40.578  53.385 -50.277  1.00  0.00     0.047 A 
HETATM   20  C   UNL     1     -40.634  53.743 -48.823  1.00  0.00     0.071 C 
HETATM   21  N   UNL     1     -40.058  52.149 -50.527  1.00  0.00    -0.252 NA
HETATM   22  C   UNL     1     -40.026  51.686 -51.792  1.00  0.00     0.067 A 
HETATM   23  C   UNL     1     -40.503  52.443 -52.876  1.00  0.00    -0.006 A 
HETATM   24  C   UNL     1     -39.520  50.419 -52.051  1.00  0.00     0.032 A 
HETATM   25  C   UNL     1     -41.003  53.720 -52.609  1.00  0.00     0.033 A 
HETATM   26  C   UNL     1     -40.475  51.916 -54.180  1.00  0.00     0.014 A 
HETATM   27  C   UNL     1     -39.969  50.639 -54.412  1.00  0.00     0.001 A 
HETATM   28  C   UNL     1     -39.487  49.889 -53.345  1.00  0.00     0.002 A 
ENDBRANCH   2  18
TORSDOF 2
ENDMDL
MODEL 5
REMARK VINA RESULT:      -8.8      2.195      2.226
REMARK  2 active torsions:
REMARK  status: ('A' for Active; 'I' for Inactive)
REMARK    1  A    between atoms: N_8  and  N_9 
REMARK       I    between atoms: N_9  and  C_10 
REMARK    2  A    between atoms: C_10  and  C_11 
ROOT
HETATM    1  N   UNL     1     -41.187  56.656 -52.663  1.00  0.00    -0.242 N 
HETATM    2  C   UNL     1     -42.003  55.553 -52.475  1.00  0.00     0.273 C 
HETATM    3  O   UNL     1     -43.232  55.575 -52.529  1.00  0.00    -0.266 OA
HETATM    4  H   UNL     1     -40.170  56.590 -52.657  1.00  0.00     0.192 HD
ENDROOT
BRANCH   1   5
HETATM    5  N   UNL     1     -41.760  57.856 -52.979  1.00  0.00    -0.166 NA
HETATM    6  C   UNL     1     -41.844  58.741 -52.040  1.00  0.00     0.157 A 
HETATM    7  C   UNL     1     -42.394  60.082 -52.192  1.00  0.00     0.027 A 
HETATM    8  C   UNL     1     -41.439  58.620 -50.570  1.00  0.00     0.277 A 
HETATM    9  C   UNL     1     -42.868  60.737 -53.311  1.00  0.00     0.023 A 
HETATM   10  C   UNL     1     -42.356  60.674 -50.932  1.00  0.00     0.048 A 
HETATM   11  C   UNL     1     -43.314  62.056 -53.142  1.00  0.00    -0.061 A 
HETATM   12  C   UNL     1     -43.840  62.835 -54.314  1.00  0.00     0.048 C 
HETATM   13  C   UNL     1     -43.295  62.648 -51.854  1.00  0.00     0.009 A 
HETATM   14  C   UNL     1     -42.811  61.959 -50.735  1.00  0.00     0.031 A 
HETATM   15  N   UNL     1     -41.806  59.812 -49.985  1.00  0.00    -0.321 N 
HETATM   16  H   UNL     1     -41.660  60.022 -49.008  1.00  0.00     0.169 HD
HETATM   17  O   UNL     1     -40.897  57.652 -50.079  1.00  0.00    -0.266 OA
ENDBRANCH   1   5
BRANCH   2  18
HETATM   18  C   UNL     1     -41.336  54.246 -52.260  1.00  0.00     0.058 A 
HETATM   19  C   UNL     1     -40.970  53.710 -51.027  1.00  0.00     0.047 A 
HETATM   20  C   UNL     1     -41.230  54.383 -49.713  1.00  0.00     0.071 C 
HETATM   21  N   UNL     1     -40.351  52.498 -50.919  1.00  0.00    -0.252 NA
HETATM   22  C   UNL     1     -40.132  51.764 -52.027  1.00  0.00     0.067 A 
HETATM   23  C   UNL     1     -40.510  52.211 -53.306  1.00  0.00    -0.006 A 
HETATM   24  C   UNL     1     -39.525  50.520 -51.923  1.00  0.00     0.032 A 
HETATM   25  C   UNL     1     -41.114  53.468 -53.404  1.00  0.00     0.033 A 
HETATM   26  C   UNL     1     -40.287  51.406 -54.437  1.00  0.00     0.014 A 
HETATM   27  C   UNL     1     -39.683  50.158 -54.303  1.00  0.00     0.001 A 
HETATM   28  C   UNL     1     -39.297  49.715 -53.043  1.00  0.00     0.002 A 
ENDBRANCH   2  18
TORSDOF 2
ENDMDL
MODEL 6
REMARK VINA RESULT:      -8.8      2.223      3.289
REMARK  2 active torsions:
REMARK  status: ('A' for Active; 'I' for Inactive)
REMARK    1  A    between atoms: N_8  and  N_9 
REMARK       I    between atoms: N_9  and  C_10 
REMARK    2  A    between atoms: C_10  and  C_11 
ROOT
HETATM    1  N   UNL     1     -42.860  55.586 -53.842  1.00  0.00    -0.242 N 
HETATM    2  C   UNL     1     -41.515  55.576 -53.509  1.00  0.00     0.273 C 
HETATM    3  O   UNL     1     -40.770  56.552 -53.580  1.00  0.00    -0.266 OA
HETATM    4  H   UNL     1     -43.457  54.769 -53.726  1.00  0.00     0.192 HD
ENDROOT
BRANCH   1   5
HETATM    5  N   UNL     1     -43.434  56.763 -54.234  1.00  0.00    -0.166 NA
HETATM    6  C   UNL     1     -43.696  56.909 -55.492  1.00  0.00     0.157 A 
HETATM    7  C   UNL     1     -44.331  58.075 -56.092  1.00  0.00     0.027 A 
HETATM    8  C   UNL     1     -43.394  55.956 -56.649  1.00  0.00     0.277 A 
HETATM    9  C   UNL     1     -44.848  59.215 -55.510  1.00  0.00     0.023 A 
HETATM   10  C   UNL     1     -44.361  57.850 -57.466  1.00  0.00     0.048 A 
HETATM   11  C   UNL     1     -45.430  60.164 -56.364  1.00  0.00    -0.061 A 
HETATM   12  C   UNL     1     -46.017  61.428 -55.804  1.00  0.00     0.048 C 
HETATM   13  C   UNL     1     -45.438  59.943 -57.764  1.00  0.00     0.009 A 
HETATM   14  C   UNL     1     -44.904  58.777 -58.327  1.00  0.00     0.031 A 
HETATM   15  N   UNL     1     -43.802  56.614 -57.788  1.00  0.00    -0.321 N 
HETATM   16  H   UNL     1     -43.727  56.224 -58.716  1.00  0.00     0.169 HD
HETATM   17  O   UNL     1     -42.904  54.852 -56.527  1.00  0.00    -0.266 OA
ENDBRANCH   1   5
BRANCH   2  18
HETATM   18  C   UNL     1     -40.961  54.311 -52.969  1.00  0.00     0.058 A 
HETATM   19  C   UNL     1     -40.644  54.062 -51.635  1.00  0.00     0.047 A 
HETATM   20  C   UNL     1     -40.850  55.053 -50.529  1.00  0.00     0.071 C 
HETATM   21  N   UNL     1     -40.130  52.867 -51.224  1.00  0.00    -0.252 NA
HETATM   22  C   UNL     1     -39.971  51.871 -52.117  1.00  0.00     0.067 A 
HETATM   23  C   UNL     1     -40.307  52.023 -53.473  1.00  0.00    -0.006 A 
HETATM   24  C   UNL     1     -39.471  50.644 -51.701  1.00  0.00     0.032 A 
HETATM   25  C   UNL     1     -40.802  53.264 -53.886  1.00  0.00     0.033 A 
HETATM   26  C   UNL     1     -40.149  50.952 -54.371  1.00  0.00     0.014 A 
HETATM   27  C   UNL     1     -39.653  49.729 -53.926  1.00  0.00     0.001 A 
HETATM   28  C   UNL     1     -39.309  49.575 -52.588  1.00  0.00     0.002 A 
ENDBRANCH   2  18
TORSDOF 2
ENDMDL
MODEL 7
REMARK VINA RESULT:      -8.7      5.158      9.148
REMARK  2 active torsions:
REMARK  status: ('A' for Active; 'I' for Inactive)
REMARK    1  A    between atoms: N_8  and  N_9 
REMARK       I    between atoms: N_9  and  C_10 
REMARK    2  A    between atoms: C_10  and  C_11 
ROOT
HETATM    1  N   UNL     1     -43.774  56.151 -57.052  1.00  0.00    -0.242 N 
HETATM    2  C   UNL     1     -43.615  56.325 -58.417  1.00  0.00     0.273 C 
HETATM    3  O   UNL     1     -42.719  55.815 -59.088  1.00  0.00    -0.266 OA
HETATM    4  H   UNL     1     -44.556  56.553 -56.538  1.00  0.00     0.192 HD
ENDROOT
BRANCH   1   5
HETATM    5  N   UNL     1     -42.917  55.318 -56.389  1.00  0.00    -0.166 NA
HETATM    6  C   UNL     1     -43.033  55.246 -55.103  1.00  0.00     0.157 A 
HETATM    7  C   UNL     1     -42.233  54.396 -54.230  1.00  0.00     0.027 A 
HETATM    8  C   UNL     1     -43.974  56.023 -54.181  1.00  0.00     0.277 A 
HETATM    9  C   UNL     1     -41.264  53.460 -54.530  1.00  0.00     0.023 A 
HETATM   10  C   UNL     1     -42.633  54.676 -52.925  1.00  0.00     0.048 A 
HETATM   11  C   UNL     1     -40.683  52.771 -53.456  1.00  0.00    -0.061 A 
HETATM   12  C   UNL     1     -39.624  51.735 -53.703  1.00  0.00     0.048 C 
HETATM   13  C   UNL     1     -41.075  53.073 -52.127  1.00  0.00     0.009 A 
HETATM   14  C   UNL     1     -42.060  54.031 -51.852  1.00  0.00     0.031 A 
HETATM   15  N   UNL     1     -43.644  55.635 -52.901  1.00  0.00    -0.321 N 
HETATM   16  H   UNL     1     -44.105  55.987 -52.075  1.00  0.00     0.169 HD
HETATM   17  O   UNL     1     -44.826  56.800 -54.558  1.00  0.00    -0.266 OA
ENDBRANCH   1   5
BRANCH   2  18
HETATM   18  C   UNL     1     -44.639  57.135 -59.120  1.00  0.00     0.058 A 
HETATM   19  C   UNL     1     -44.700  58.527 -59.152  1.00  0.00     0.047 A 
HETATM   20  C   UNL     1     -43.698  59.421 -58.487  1.00  0.00     0.071 C 
HETATM   21  N   UNL     1     -45.686  59.193 -59.820  1.00  0.00    -0.252 NA
HETATM   22  C   UNL     1     -46.602  58.497 -60.519  1.00  0.00     0.067 A 
HETATM   23  C   UNL     1     -46.587  57.092 -60.576  1.00  0.00    -0.006 A 
HETATM   24  C   UNL     1     -47.593  59.169 -61.221  1.00  0.00     0.032 A 
HETATM   25  C   UNL     1     -45.591  56.421 -59.860  1.00  0.00     0.033 A 
HETATM   26  C   UNL     1     -47.547  56.399 -61.337  1.00  0.00     0.014 A 
HETATM   27  C   UNL     1     -48.527  57.099 -62.038  1.00  0.00     0.001 A 
HETATM   28  C   UNL     1     -48.552  58.488 -61.977  1.00  0.00     0.002 A 
ENDBRANCH   2  18
TORSDOF 2
ENDMDL
MODEL 8
REMARK VINA RESULT:      -8.5      1.584      2.627
REMARK  2 active torsions:
REMARK  status: ('A' for Active; 'I' for Inactive)
REMARK    1  A    between atoms: N_8  and  N_9 
REMARK       I    between atoms: N_9  and  C_10 
REMARK    2  A    between atoms: C_10  and  C_11 
ROOT
HETATM    1  N   UNL     1     -43.195  56.110 -52.156  1.00  0.00    -0.242 N 
HETATM    2  C   UNL     1     -41.829  55.989 -52.353  1.00  0.00     0.273 C 
HETATM    3  O   UNL     1     -41.005  56.862 -52.087  1.00  0.00    -0.266 OA
HETATM    4  H   UNL     1     -43.843  55.347 -52.345  1.00  0.00     0.192 HD
ENDROOT
BRANCH   1   5
HETATM    5  N   UNL     1     -43.681  57.251 -51.581  1.00  0.00    -0.166 NA
HETATM    6  C   UNL     1     -44.370  58.048 -52.331  1.00  0.00     0.157 A 
HETATM    7  C   UNL     1     -44.992  59.291 -51.893  1.00  0.00     0.027 A 
HETATM    8  C   UNL     1     -44.682  57.929 -53.824  1.00  0.00     0.277 A 
HETATM    9  C   UNL     1     -45.065  59.866 -50.640  1.00  0.00     0.023 A 
HETATM   10  C   UNL     1     -45.573  59.866 -53.021  1.00  0.00     0.048 A 
HETATM   11  C   UNL     1     -45.768  61.074 -50.528  1.00  0.00    -0.061 A 
HETATM   12  C   UNL     1     -45.894  61.758 -49.197  1.00  0.00     0.048 C 
HETATM   13  C   UNL     1     -46.338  61.669 -51.682  1.00  0.00     0.009 A 
HETATM   14  C   UNL     1     -46.246  61.064 -52.942  1.00  0.00     0.031 A 
HETATM   15  N   UNL     1     -45.379  59.071 -54.150  1.00  0.00    -0.321 N 
HETATM   16  H   UNL     1     -45.721  59.270 -55.078  1.00  0.00     0.169 HD
HETATM   17  O   UNL     1     -44.363  56.991 -54.524  1.00  0.00    -0.266 OA
ENDBRANCH   1   5
BRANCH   2  18
HETATM   18  C   UNL     1     -41.331  54.688 -52.860  1.00  0.00     0.058 A 
HETATM   19  C   UNL     1     -41.203  54.329 -54.201  1.00  0.00     0.047 A 
HETATM   20  C   UNL     1     -41.534  55.240 -55.344  1.00  0.00     0.071 C 
HETATM   21  N   UNL     1     -40.740  53.103 -54.581  1.00  0.00    -0.252 NA
HETATM   22  C   UNL     1     -40.340  52.224 -53.642  1.00  0.00     0.067 A 
HETATM   23  C   UNL     1     -40.393  52.523 -52.269  1.00  0.00    -0.006 A 
HETATM   24  C   UNL     1     -39.845  50.984 -54.022  1.00  0.00     0.032 A 
HETATM   25  C   UNL     1     -40.900  53.770 -51.893  1.00  0.00     0.033 A 
HETATM   26  C   UNL     1     -39.943  51.589 -51.318  1.00  0.00     0.014 A 
HETATM   27  C   UNL     1     -39.444  50.354 -51.727  1.00  0.00     0.001 A 
HETATM   28  C   UNL     1     -39.398  50.049 -53.083  1.00  0.00     0.002 A 
ENDBRANCH   2  18
TORSDOF 2
ENDMDL
MODEL 9
REMARK VINA RESULT:      -8.5      1.538      8.623
REMARK  2 active torsions:
REMARK  status: ('A' for Active; 'I' for Inactive)
REMARK    1  A    between atoms: N_8  and  N_9 
REMARK       I    between atoms: N_9  and  C_10 
REMARK    2  A    between atoms: C_10  and  C_11 
ROOT
HETATM    1  N   UNL     1     -42.312  56.248 -53.807  1.00  0.00    -0.242 N 
HETATM    2  C   UNL     1     -43.677  56.372 -54.004  1.00  0.00     0.273 C 
HETATM    3  O   UNL     1     -44.417  55.459 -54.368  1.00  0.00    -0.266 OA
HETATM    4  H   UNL     1     -41.738  57.016 -53.460  1.00  0.00     0.192 HD
ENDROOT
BRANCH   1   5
HETATM    5  N   UNL     1     -41.728  55.023 -53.976  1.00  0.00    -0.166 NA
HETATM    6  C   UNL     1     -41.291  54.421 -52.918  1.00  0.00     0.157 A 
HETATM    7  C   UNL     1     -40.669  53.104 -52.894  1.00  0.00     0.027 A 
HETATM    8  C   UNL     1     -41.276  54.917 -51.471  1.00  0.00     0.277 A 
HETATM    9  C   UNL     1     -40.464  52.189 -53.907  1.00  0.00     0.023 A 
HETATM   10  C   UNL     1     -40.288  52.867 -51.576  1.00  0.00     0.048 A 
HETATM   11  C   UNL     1     -39.853  50.975 -53.561  1.00  0.00    -0.061 A 
HETATM   12  C   UNL     1     -39.601  49.928 -54.608  1.00  0.00     0.048 C 
HETATM   13  C   UNL     1     -39.446  50.745 -52.223  1.00  0.00     0.009 A 
HETATM   14  C   UNL     1     -39.664  51.693 -51.215  1.00  0.00     0.031 A 
HETATM   15  N   UNL     1     -40.635  53.934 -50.749  1.00  0.00    -0.321 N 
HETATM   16  H   UNL     1     -40.477  53.986 -49.754  1.00  0.00     0.169 HD
HETATM   17  O   UNL     1     -41.755  55.966 -51.094  1.00  0.00    -0.266 OA
ENDBRANCH   1   5
BRANCH   2  18
HETATM   18  C   UNL     1     -44.289  57.685 -53.688  1.00  0.00     0.058 A 
HETATM   19  C   UNL     1     -44.715  58.632 -54.618  1.00  0.00     0.047 A 
HETATM   20  C   UNL     1     -44.637  58.439 -56.102  1.00  0.00     0.071 C 
HETATM   21  N   UNL     1     -45.264  59.823 -54.239  1.00  0.00    -0.252 NA
HETATM   22  C   UNL     1     -45.456  60.079 -52.930  1.00  0.00     0.067 A 
HETATM   23  C   UNL     1     -45.096  59.159 -51.929  1.00  0.00    -0.006 A 
HETATM   24  C   UNL     1     -46.036  61.278 -52.539  1.00  0.00     0.032 A 
HETATM   25  C   UNL     1     -44.505  57.958 -52.330  1.00  0.00     0.033 A 
HETATM   26  C   UNL     1     -45.334  59.452 -50.574  1.00  0.00     0.014 A 
HETATM   27  C   UNL     1     -45.925  60.660 -50.209  1.00  0.00     0.001 A 
HETATM   28  C   UNL     1     -46.274  61.577 -51.193  1.00  0.00     0.002 A 
ENDBRANCH   2  18
TORSDOF 2
ENDMDL
MODEL 10
REMARK VINA RESULT:      -8.5      2.559      3.650
REMARK  2 active torsions:
REMARK  status: ('A' for Active; 'I' for Inactive)
REMARK    1  A    between atoms: N_8  and  N_9 
REMARK       I    between atoms: N_9  and  C_10 
REMARK    2  A    between atoms: C_10  and  C_11 
ROOT
HETATM    1  N   UNL     1     -41.870  57.630 -51.784  1.00  0.00    -0.242 N 
HETATM    2  C   UNL     1     -42.603  56.470 -51.599  1.00  0.00     0.273 C 
HETATM    3  O   UNL     1     -43.602  56.380 -50.887  1.00  0.00    -0.266 OA
HETATM    4  H   UNL     1     -41.074  57.679 -52.419  1.00  0.00     0.192 HD
ENDROOT
BRANCH   1   5
HETATM    5  N   UNL     1     -42.293  58.782 -51.181  1.00  0.00    -0.166 NA
HETATM    6  C   UNL     1     -42.473  59.817 -51.936  1.00  0.00     0.157 A 
HETATM    7  C   UNL     1     -42.946  61.119 -51.483  1.00  0.00     0.027 A 
HETATM    8  C   UNL     1     -42.218  59.965 -53.436  1.00  0.00     0.277 A 
HETATM    9  C   UNL     1     -43.365  61.538 -50.236  1.00  0.00     0.023 A 
HETATM   10  C   UNL     1     -42.931  61.958 -52.594  1.00  0.00     0.048 A 
HETATM   11  C   UNL     1     -43.797  62.867 -50.117  1.00  0.00    -0.061 A 
HETATM   12  C   UNL     1     -44.271  63.395 -48.793  1.00  0.00     0.048 C 
HETATM   13  C   UNL     1     -43.758  63.726 -51.245  1.00  0.00     0.009 A 
HETATM   14  C   UNL     1     -43.326  63.274 -52.498  1.00  0.00     0.031 A 
HETATM   15  N   UNL     1     -42.494  61.281 -53.732  1.00  0.00    -0.321 N 
HETATM   16  H   UNL     1     -42.415  61.674 -54.658  1.00  0.00     0.169 HD
HETATM   17  O   UNL     1     -41.858  59.067 -54.168  1.00  0.00    -0.266 OA
ENDBRANCH   1   5
BRANCH   2  18
HETATM   18  C   UNL     1     -42.184  55.275 -52.370  1.00  0.00     0.058 A 
HETATM   19  C   UNL     1     -42.607  54.942 -53.655  1.00  0.00     0.047 A 
HETATM   20  C   UNL     1     -43.546  55.781 -54.469  1.00  0.00     0.071 C 
HETATM   21  N   UNL     1     -42.174  53.815 -54.291  1.00  0.00    -0.252 NA
HETATM   22  C   UNL     1     -41.269  53.019 -53.689  1.00  0.00     0.067 A 
HETATM   23  C   UNL     1     -40.757  53.305 -52.411  1.00  0.00    -0.006 A 
HETATM   24  C   UNL     1     -40.806  51.883 -54.340  1.00  0.00     0.032 A 
HETATM   25  C   UNL     1     -41.233  54.446 -51.759  1.00  0.00     0.033 A 
HETATM   26  C   UNL     1     -39.794  52.464 -51.825  1.00  0.00     0.014 A 
HETATM   27  C   UNL     1     -39.341  51.334 -52.503  1.00  0.00     0.001 A 
HETATM   28  C   UNL     1     -39.851  51.041 -53.762  1.00  0.00     0.002 A 
ENDBRANCH   2  18
TORSDOF 2
ENDMDL
