MODEL 1
REMARK VINA RESULT:      -8.5      0.000      0.000
REMARK  6 active torsions:
REMARK  status: ('A' for Active; 'I' for Inactive)
REMARK    1  A    between atoms: C_2  and  C_3 
REMARK    2  A    between atoms: C_3  and  C_4 
REMARK    3  A    between atoms: C_4  and  C_5 
REMARK    4  A    between atoms: C_8  and  N_9 
REMARK       I    between atoms: N_9  and  C_10 
REMARK    5  A    between atoms: C_10  and  C_11 
REMARK    6  A    between atoms: N_16  and  C_17 
ROOT
HETATM    1  C   UNL     1     -42.076  56.256 -55.466  1.00  0.00     0.098 A 
HETATM    2  C   UNL     1     -41.842  56.647 -54.033  1.00  0.00     0.205 A 
HETATM    3  O   UNL     1     -42.092  57.775 -53.616  1.00  0.00    -0.286 OA
HETATM    4  C   UNL     1     -41.350  55.572 -53.194  1.00  0.00     0.087 A 
HETATM    5  C   UNL     1     -41.114  54.312 -53.694  1.00  0.00     0.145 A 
HETATM    6  N   UNL     1     -40.685  53.519 -52.640  1.00  0.00    -0.216 N 
HETATM    7  N   UNL     1     -40.723  54.231 -51.471  1.00  0.00    -0.170 NA
HETATM    8  C   UNL     1     -41.072  55.477 -51.820  1.00  0.00     0.069 A 
HETATM    9  C   UNL     1     -41.162  56.545 -50.794  1.00  0.00     0.073 C 
HETATM   10  N   UNL     1     -41.355  53.989 -54.987  1.00  0.00    -0.349 N 
HETATM   11  C   UNL     1     -41.834  54.976 -55.830  1.00  0.00     0.111 A 
HETATM   12  H   UNL     1     -41.433  53.032 -55.327  1.00  0.00     0.167 HD
ENDROOT
BRANCH   1  13
HETATM   13  C   UNL     1     -42.625  57.177 -56.506  1.00  0.00     0.261 C 
HETATM   14  N   UNL     1     -41.730  57.529 -57.496  1.00  0.00    -0.323 N 
HETATM   15  H   UNL     1     -40.803  57.104 -57.457  1.00  0.00     0.169 HD
HETATM   16  O   UNL     1     -43.779  57.583 -56.405  1.00  0.00    -0.267 OA
BRANCH  14  17
HETATM   17  C   UNL     1     -41.917  58.487 -58.516  1.00  0.00     0.035 A 
HETATM   18  C   UNL     1     -42.042  59.856 -58.286  1.00  0.00     0.030 A 
HETATM   19  C   UNL     1     -42.162  60.748 -59.357  1.00  0.00     0.009 A 
HETATM   20  C   UNL     1     -42.143  60.289 -60.678  1.00  0.00    -0.058 A 
HETATM   21  C   UNL     1     -42.050  58.913 -60.908  1.00  0.00     0.009 A 
HETATM   22  C   UNL     1     -41.947  58.021 -59.835  1.00  0.00     0.030 A 
BRANCH  20  23
HETATM   23  C   UNL     1     -42.200  61.267 -61.827  1.00  0.00     0.038 C 
BRANCH  23  24
HETATM   24  C   UNL     1     -41.689  62.654 -61.415  1.00  0.00     0.004 C 
BRANCH  24  25
HETATM   25  C   UNL     1     -40.186  62.794 -61.649  1.00  0.00    -0.004 C 
HETATM   26  C   UNL     1     -39.463  63.185 -60.369  1.00  0.00     0.005 C 
ENDBRANCH  24  25
ENDBRANCH  23  24
ENDBRANCH  20  23
ENDBRANCH  14  17
ENDBRANCH   1  13
BRANCH   6  27
HETATM   27  C   UNL     1     -40.254  52.160 -52.631  1.00  0.00     0.060 A 
HETATM   28  C   UNL     1     -40.161  51.403 -53.806  1.00  0.00     0.031 A 
HETATM   29  C   UNL     1     -39.762  50.063 -53.750  1.00  0.00     0.002 A 
HETATM   30  C   UNL     1     -39.441  49.477 -52.528  1.00  0.00     0.000 A 
HETATM   31  C   UNL     1     -39.497  50.232 -51.358  1.00  0.00     0.002 A 
HETATM   32  C   UNL     1     -39.894  51.569 -51.408  1.00  0.00     0.031 A 
ENDBRANCH   6  27
TORSDOF 6
ENDMDL
MODEL 2
REMARK VINA RESULT:      -8.5      5.456      7.089
REMARK  6 active torsions:
REMARK  status: ('A' for Active; 'I' for Inactive)
REMARK    1  A    between atoms: C_2  and  C_3 
REMARK    2  A    between atoms: C_3  and  C_4 
REMARK    3  A    between atoms: C_4  and  C_5 
REMARK    4  A    between atoms: C_8  and  N_9 
REMARK       I    between atoms: N_9  and  C_10 
REMARK    5  A    between atoms: C_10  and  C_11 
REMARK    6  A    between atoms: N_16  and  C_17 
ROOT
HETATM    1  C   UNL     1     -41.464  56.854 -51.729  1.00  0.00     0.098 A 
HETATM    2  C   UNL     1     -41.123  56.227 -50.406  1.00  0.00     0.205 A 
HETATM    3  O   UNL     1     -41.216  56.843 -49.348  1.00  0.00    -0.286 OA
HETATM    4  C   UNL     1     -40.729  54.834 -50.491  1.00  0.00     0.087 A 
HETATM    5  C   UNL     1     -40.669  54.169 -51.694  1.00  0.00     0.145 A 
HETATM    6  N   UNL     1     -40.295  52.860 -51.430  1.00  0.00    -0.216 N 
HETATM    7  N   UNL     1     -40.196  52.665 -50.079  1.00  0.00    -0.170 NA
HETATM    8  C   UNL     1     -40.406  53.867 -49.524  1.00  0.00     0.069 A 
HETATM    9  C   UNL     1     -40.321  54.039 -48.053  1.00  0.00     0.073 C 
HETATM   10  N   UNL     1     -41.004  54.761 -52.866  1.00  0.00    -0.349 N 
HETATM   11  C   UNL     1     -41.395  56.087 -52.841  1.00  0.00     0.111 A 
HETATM   12  H   UNL     1     -41.212  54.249 -53.721  1.00  0.00     0.167 HD
ENDROOT
BRANCH   1  13
HETATM   13  C   UNL     1     -41.941  58.261 -51.890  1.00  0.00     0.261 C 
HETATM   14  N   UNL     1     -42.823  58.687 -50.917  1.00  0.00    -0.323 N 
HETATM   15  H   UNL     1     -43.034  58.033 -50.164  1.00  0.00     0.169 HD
HETATM   16  O   UNL     1     -41.570  58.917 -52.859  1.00  0.00    -0.267 OA
BRANCH  14  17
HETATM   17  C   UNL     1     -43.544  59.900 -50.889  1.00  0.00     0.035 A 
HETATM   18  C   UNL     1     -44.827  60.057 -51.411  1.00  0.00     0.030 A 
HETATM   19  C   UNL     1     -45.500  61.277 -51.287  1.00  0.00     0.009 A 
HETATM   20  C   UNL     1     -44.908  62.359 -50.626  1.00  0.00    -0.058 A 
HETATM   21  C   UNL     1     -43.608  62.212 -50.132  1.00  0.00     0.009 A 
HETATM   22  C   UNL     1     -42.931  60.996 -50.271  1.00  0.00     0.030 A 
BRANCH  20  23
HETATM   23  C   UNL     1     -45.672  63.647 -50.435  1.00  0.00     0.038 C 
BRANCH  23  24
HETATM   24  C   UNL     1     -45.983  63.906 -48.956  1.00  0.00     0.004 C 
BRANCH  24  25
HETATM   25  C   UNL     1     -47.131  63.029 -48.459  1.00  0.00    -0.004 C 
HETATM   26  C   UNL     1     -46.675  62.106 -47.340  1.00  0.00     0.005 C 
ENDBRANCH  24  25
ENDBRANCH  23  24
ENDBRANCH  20  23
ENDBRANCH  14  17
ENDBRANCH   1  13
BRANCH   6  27
HETATM   27  C   UNL     1     -40.033  51.782 -52.325  1.00  0.00     0.060 A 
HETATM   28  C   UNL     1     -40.114  51.935 -53.715  1.00  0.00     0.031 A 
HETATM   29  C   UNL     1     -39.878  50.844 -54.558  1.00  0.00     0.002 A 
HETATM   30  C   UNL     1     -39.545  49.602 -54.022  1.00  0.00     0.000 A 
HETATM   31  C   UNL     1     -39.426  49.449 -52.643  1.00  0.00     0.002 A 
HETATM   32  C   UNL     1     -39.661  50.535 -51.797  1.00  0.00     0.031 A 
ENDBRANCH   6  27
TORSDOF 6
ENDMDL
MODEL 3
REMARK VINA RESULT:      -8.4      4.977     10.019
REMARK  6 active torsions:
REMARK  status: ('A' for Active; 'I' for Inactive)
REMARK    1  A    between atoms: C_2  and  C_3 
REMARK    2  A    between atoms: C_3  and  C_4 
REMARK    3  A    between atoms: C_4  and  C_5 
REMARK    4  A    between atoms: C_8  and  N_9 
REMARK       I    between atoms: N_9  and  C_10 
REMARK    5  A    between atoms: C_10  and  C_11 
REMARK    6  A    between atoms: N_16  and  C_17 
ROOT
HETATM    1  C   UNL     1     -41.735  59.061 -52.310  1.00  0.00     0.098 A 
HETATM    2  C   UNL     1     -42.220  60.274 -53.054  1.00  0.00     0.205 A 
HETATM    3  O   UNL     1     -42.037  60.417 -54.259  1.00  0.00    -0.286 OA
HETATM    4  C   UNL     1     -42.956  61.219 -52.237  1.00  0.00     0.087 A 
HETATM    5  C   UNL     1     -43.169  61.006 -50.895  1.00  0.00     0.145 A 
HETATM    6  N   UNL     1     -43.925  62.067 -50.418  1.00  0.00    -0.216 N 
HETATM    7  N   UNL     1     -44.260  62.904 -51.448  1.00  0.00    -0.170 NA
HETATM    8  C   UNL     1     -43.632  62.417 -52.527  1.00  0.00     0.069 A 
HETATM    9  C   UNL     1     -43.733  63.116 -53.832  1.00  0.00     0.073 C 
HETATM   10  N   UNL     1     -42.735  59.890 -50.261  1.00  0.00    -0.349 N 
HETATM   11  C   UNL     1     -42.034  58.951 -50.995  1.00  0.00     0.111 A 
HETATM   12  H   UNL     1     -43.081  59.582 -49.354  1.00  0.00     0.167 HD
ENDROOT
BRANCH   1  13
HETATM   13  C   UNL     1     -40.997  57.929 -52.947  1.00  0.00     0.261 C 
HETATM   14  N   UNL     1     -41.718  56.757 -53.056  1.00  0.00    -0.323 N 
HETATM   15  H   UNL     1     -42.687  56.778 -52.739  1.00  0.00     0.169 HD
HETATM   16  O   UNL     1     -39.827  58.086 -53.285  1.00  0.00    -0.267 OA
BRANCH  14  17
HETATM   17  C   UNL     1     -41.241  55.496 -53.475  1.00  0.00     0.035 A 
HETATM   18  C   UNL     1     -40.821  55.215 -54.774  1.00  0.00     0.030 A 
HETATM   19  C   UNL     1     -40.301  53.957 -55.096  1.00  0.00     0.009 A 
HETATM   20  C   UNL     1     -40.179  52.961 -54.122  1.00  0.00    -0.058 A 
HETATM   21  C   UNL     1     -40.631  53.232 -52.826  1.00  0.00     0.009 A 
HETATM   22  C   UNL     1     -41.165  54.486 -52.510  1.00  0.00     0.030 A 
BRANCH  20  23
HETATM   23  C   UNL     1     -39.550  51.632 -54.464  1.00  0.00     0.038 C 
BRANCH  23  24
HETATM   24  C   UNL     1     -40.382  50.459 -53.931  1.00  0.00     0.004 C 
BRANCH  24  25
HETATM   25  C   UNL     1     -39.538  49.507 -53.084  1.00  0.00    -0.004 C 
HETATM   26  C   UNL     1     -39.631  49.854 -51.606  1.00  0.00     0.005 C 
ENDBRANCH  24  25
ENDBRANCH  23  24
ENDBRANCH  20  23
ENDBRANCH  14  17
ENDBRANCH   1  13
BRANCH   6  27
HETATM   27  C   UNL     1     -44.362  62.359 -49.093  1.00  0.00     0.060 A 
HETATM   28  C   UNL     1     -44.792  61.356 -48.215  1.00  0.00     0.031 A 
HETATM   29  C   UNL     1     -45.243  61.689 -46.933  1.00  0.00     0.002 A 
HETATM   30  C   UNL     1     -45.253  63.018 -46.516  1.00  0.00     0.000 A 
HETATM   31  C   UNL     1     -44.794  64.018 -47.369  1.00  0.00     0.002 A 
HETATM   32  C   UNL     1     -44.343  63.692 -48.650  1.00  0.00     0.031 A 
ENDBRANCH   6  27
TORSDOF 6
ENDMDL
MODEL 4
REMARK VINA RESULT:      -8.3      4.814      7.862
REMARK  6 active torsions:
REMARK  status: ('A' for Active; 'I' for Inactive)
REMARK    1  A    between atoms: C_2  and  C_3 
REMARK    2  A    between atoms: C_3  and  C_4 
REMARK    3  A    between atoms: C_4  and  C_5 
REMARK    4  A    between atoms: C_8  and  N_9 
REMARK       I    between atoms: N_9  and  C_10 
REMARK    5  A    between atoms: C_10  and  C_11 
REMARK    6  A    between atoms: N_16  and  C_17 
ROOT
HETATM    1  C   UNL     1     -43.901  56.929 -52.122  1.00  0.00     0.098 A 
HETATM    2  C   UNL     1     -43.713  56.905 -53.614  1.00  0.00     0.205 A 
HETATM    3  O   UNL     1     -44.190  57.767 -54.345  1.00  0.00    -0.286 OA
HETATM    4  C   UNL     1     -42.887  55.814 -54.093  1.00  0.00     0.087 A 
HETATM    5  C   UNL     1     -42.343  54.885 -53.236  1.00  0.00     0.145 A 
HETATM    6  N   UNL     1     -41.589  54.005 -53.998  1.00  0.00    -0.216 N 
HETATM    7  N   UNL     1     -41.582  54.405 -55.307  1.00  0.00    -0.170 NA
HETATM    8  C   UNL     1     -42.406  55.461 -55.366  1.00  0.00     0.069 A 
HETATM    9  C   UNL     1     -42.679  56.128 -56.663  1.00  0.00     0.073 C 
HETATM   10  N   UNL     1     -42.516  54.949 -51.894  1.00  0.00    -0.349 N 
HETATM   11  C   UNL     1     -43.289  55.976 -51.382  1.00  0.00     0.111 A 
HETATM   12  H   UNL     1     -41.939  54.446 -51.223  1.00  0.00     0.167 HD
ENDROOT
BRANCH   1  13
HETATM   13  C   UNL     1     -44.670  57.981 -51.392  1.00  0.00     0.261 C 
HETATM   14  N   UNL     1     -44.236  59.272 -51.613  1.00  0.00    -0.323 N 
HETATM   15  H   UNL     1     -43.471  59.397 -52.277  1.00  0.00     0.169 HD
HETATM   16  O   UNL     1     -45.579  57.649 -50.637  1.00  0.00    -0.267 OA
BRANCH  14  17
HETATM   17  C   UNL     1     -44.669  60.444 -50.956  1.00  0.00     0.035 A 
HETATM   18  C   UNL     1     -45.876  61.088 -51.226  1.00  0.00     0.030 A 
HETATM   19  C   UNL     1     -46.264  62.209 -50.487  1.00  0.00     0.009 A 
HETATM   20  C   UNL     1     -45.459  62.700 -49.453  1.00  0.00    -0.058 A 
HETATM   21  C   UNL     1     -44.233  62.075 -49.203  1.00  0.00     0.009 A 
HETATM   22  C   UNL     1     -43.839  60.962 -49.956  1.00  0.00     0.030 A 
BRANCH  20  23
HETATM   23  C   UNL     1     -45.921  63.867 -48.614  1.00  0.00     0.038 C 
BRANCH  23  24
HETATM   24  C   UNL     1     -45.919  63.525 -47.119  1.00  0.00     0.004 C 
BRANCH  24  25
HETATM   25  C   UNL     1     -47.118  62.658 -46.738  1.00  0.00    -0.004 C 
HETATM   26  C   UNL     1     -46.679  61.264 -46.316  1.00  0.00     0.005 C 
ENDBRANCH  24  25
ENDBRANCH  23  24
ENDBRANCH  20  23
ENDBRANCH  14  17
ENDBRANCH   1  13
BRANCH   6  27
HETATM   27  C   UNL     1     -40.875  52.834 -53.609  1.00  0.00     0.060 A 
HETATM   28  C   UNL     1     -40.230  52.736 -52.369  1.00  0.00     0.031 A 
HETATM   29  C   UNL     1     -39.515  51.580 -52.039  1.00  0.00     0.002 A 
HETATM   30  C   UNL     1     -39.449  50.514 -52.933  1.00  0.00     0.000 A 
HETATM   31  C   UNL     1     -40.117  50.589 -54.153  1.00  0.00     0.002 A 
HETATM   32  C   UNL     1     -40.833  51.740 -54.489  1.00  0.00     0.031 A 
ENDBRANCH   6  27
TORSDOF 6
ENDMDL
MODEL 5
REMARK VINA RESULT:      -8.2      3.163      3.979
REMARK  6 active torsions:
REMARK  status: ('A' for Active; 'I' for Inactive)
REMARK    1  A    between atoms: C_2  and  C_3 
REMARK    2  A    between atoms: C_3  and  C_4 
REMARK    3  A    between atoms: C_4  and  C_5 
REMARK    4  A    between atoms: C_8  and  N_9 
REMARK       I    between atoms: N_9  and  C_10 
REMARK    5  A    between atoms: C_10  and  C_11 
REMARK    6  A    between atoms: N_16  and  C_17 
ROOT
HETATM    1  C   UNL     1     -42.543  56.615 -55.589  1.00  0.00     0.098 A 
HETATM    2  C   UNL     1     -42.192  56.957 -54.168  1.00  0.00     0.205 A 
HETATM    3  O   UNL     1     -42.422  58.063 -53.687  1.00  0.00    -0.286 OA
HETATM    4  C   UNL     1     -41.612  55.861 -53.417  1.00  0.00     0.087 A 
HETATM    5  C   UNL     1     -41.401  54.625 -53.984  1.00  0.00     0.145 A 
HETATM    6  N   UNL     1     -40.870  53.801 -53.003  1.00  0.00    -0.216 N 
HETATM    7  N   UNL     1     -40.817  54.467 -51.809  1.00  0.00    -0.170 NA
HETATM    8  C   UNL     1     -41.215  55.719 -52.076  1.00  0.00     0.069 A 
HETATM    9  C   UNL     1     -41.232  56.746 -51.005  1.00  0.00     0.073 C 
HETATM   10  N   UNL     1     -41.748  54.346 -55.264  1.00  0.00    -0.349 N 
HETATM   11  C   UNL     1     -42.313  55.355 -56.023  1.00  0.00     0.111 A 
HETATM   12  H   UNL     1     -41.841  53.402 -55.633  1.00  0.00     0.167 HD
ENDROOT
BRANCH   1  13
HETATM   13  C   UNL     1     -43.194  57.565 -56.542  1.00  0.00     0.261 C 
HETATM   14  N   UNL     1     -44.512  57.278 -56.834  1.00  0.00    -0.323 N 
HETATM   15  H   UNL     1     -44.932  56.484 -56.350  1.00  0.00     0.169 HD
HETATM   16  O   UNL     1     -42.536  58.483 -57.023  1.00  0.00    -0.267 OA
BRANCH  14  17
HETATM   17  C   UNL     1     -45.330  57.904 -57.799  1.00  0.00     0.035 A 
HETATM   18  C   UNL     1     -45.125  57.807 -59.175  1.00  0.00     0.030 A 
HETATM   19  C   UNL     1     -46.018  58.405 -60.070  1.00  0.00     0.009 A 
HETATM   20  C   UNL     1     -47.141  59.099 -59.606  1.00  0.00    -0.058 A 
HETATM   21  C   UNL     1     -47.329  59.225 -58.226  1.00  0.00     0.009 A 
HETATM   22  C   UNL     1     -46.425  58.639 -57.332  1.00  0.00     0.030 A 
BRANCH  20  23
HETATM   23  C   UNL     1     -48.136  59.679 -60.582  1.00  0.00     0.038 C 
BRANCH  23  24
HETATM   24  C   UNL     1     -47.939  59.114 -61.994  1.00  0.00     0.004 C 
BRANCH  24  25
HETATM   25  C   UNL     1     -49.060  58.149 -62.378  1.00  0.00    -0.004 C 
HETATM   26  C   UNL     1     -48.569  56.710 -62.389  1.00  0.00     0.005 C 
ENDBRANCH  24  25
ENDBRANCH  23  24
ENDBRANCH  20  23
ENDBRANCH  14  17
ENDBRANCH   1  13
BRANCH   6  27
HETATM   27  C   UNL     1     -40.419  52.451 -53.084  1.00  0.00     0.060 A 
HETATM   28  C   UNL     1     -40.471  51.722 -54.279  1.00  0.00     0.031 A 
HETATM   29  C   UNL     1     -40.045  50.389 -54.309  1.00  0.00     0.002 A 
HETATM   30  C   UNL     1     -39.553  49.783 -53.155  1.00  0.00     0.000 A 
HETATM   31  C   UNL     1     -39.464  50.512 -51.971  1.00  0.00     0.002 A 
HETATM   32  C   UNL     1     -39.887  51.842 -51.936  1.00  0.00     0.031 A 
ENDBRANCH   6  27
TORSDOF 6
ENDMDL
MODEL 6
REMARK VINA RESULT:      -8.1      4.065      4.709
REMARK  6 active torsions:
REMARK  status: ('A' for Active; 'I' for Inactive)
REMARK    1  A    between atoms: C_2  and  C_3 
REMARK    2  A    between atoms: C_3  and  C_4 
REMARK    3  A    between atoms: C_4  and  C_5 
REMARK    4  A    between atoms: C_8  and  N_9 
REMARK       I    between atoms: N_9  and  C_10 
REMARK    5  A    between atoms: C_10  and  C_11 
REMARK    6  A    between atoms: N_16  and  C_17 
ROOT
HETATM    1  C   UNL     1     -43.540  56.581 -56.611  1.00  0.00     0.098 A 
HETATM    2  C   UNL     1     -43.819  56.992 -55.192  1.00  0.00     0.205 A 
HETATM    3  O   UNL     1     -44.548  57.941 -54.918  1.00  0.00    -0.286 OA
HETATM    4  C   UNL     1     -43.199  56.143 -54.193  1.00  0.00     0.087 A 
HETATM    5  C   UNL     1     -42.415  55.067 -54.541  1.00  0.00     0.145 A 
HETATM    6  N   UNL     1     -42.004  54.453 -53.367  1.00  0.00    -0.216 N 
HETATM    7  N   UNL     1     -42.578  55.071 -52.289  1.00  0.00    -0.170 NA
HETATM    8  C   UNL     1     -43.251  56.117 -52.788  1.00  0.00     0.069 A 
HETATM    9  C   UNL     1     -43.963  57.052 -51.883  1.00  0.00     0.073 C 
HETATM   10  N   UNL     1     -42.200  54.715 -55.831  1.00  0.00    -0.349 N 
HETATM   11  C   UNL     1     -42.777  55.485 -56.824  1.00  0.00     0.111 A 
HETATM   12  H   UNL     1     -41.847  53.804 -56.119  1.00  0.00     0.167 HD
ENDROOT
BRANCH   1  13
HETATM   13  C   UNL     1     -44.108  57.271 -57.808  1.00  0.00     0.261 C 
HETATM   14  N   UNL     1     -45.487  57.294 -57.863  1.00  0.00    -0.323 N 
HETATM   15  H   UNL     1     -45.989  56.886 -57.074  1.00  0.00     0.169 HD
HETATM   16  O   UNL     1     -43.348  57.723 -58.661  1.00  0.00    -0.267 OA
BRANCH  14  17
HETATM   17  C   UNL     1     -46.292  57.741 -58.932  1.00  0.00     0.035 A 
HETATM   18  C   UNL     1     -46.696  59.064 -59.104  1.00  0.00     0.030 A 
HETATM   19  C   UNL     1     -47.442  59.440 -60.225  1.00  0.00     0.009 A 
HETATM   20  C   UNL     1     -47.786  58.502 -61.204  1.00  0.00    -0.058 A 
HETATM   21  C   UNL     1     -47.410  57.168 -61.016  1.00  0.00     0.009 A 
HETATM   22  C   UNL     1     -46.677  56.791 -59.885  1.00  0.00     0.030 A 
BRANCH  20  23
HETATM   23  C   UNL     1     -48.529  58.932 -62.446  1.00  0.00     0.038 C 
BRANCH  23  24
HETATM   24  C   UNL     1     -49.762  58.056 -62.700  1.00  0.00     0.004 C 
BRANCH  24  25
HETATM   25  C   UNL     1     -51.054  58.871 -62.647  1.00  0.00    -0.004 C 
HETATM   26  C   UNL     1     -50.881  60.125 -61.804  1.00  0.00     0.005 C 
ENDBRANCH  24  25
ENDBRANCH  23  24
ENDBRANCH  20  23
ENDBRANCH  14  17
ENDBRANCH   1  13
BRANCH   6  27
HETATM   27  C   UNL     1     -41.134  53.341 -53.169  1.00  0.00     0.060 A 
HETATM   28  C   UNL     1     -40.869  52.416 -54.187  1.00  0.00     0.031 A 
HETATM   29  C   UNL     1     -40.033  51.322 -53.942  1.00  0.00     0.002 A 
HETATM   30  C   UNL     1     -39.445  51.153 -52.690  1.00  0.00     0.000 A 
HETATM   31  C   UNL     1     -39.674  52.087 -51.683  1.00  0.00     0.002 A 
HETATM   32  C   UNL     1     -40.508  53.181 -51.922  1.00  0.00     0.031 A 
ENDBRANCH   6  27
TORSDOF 6
ENDMDL
MODEL 7
REMARK VINA RESULT:      -8.0     15.762     19.827
REMARK  6 active torsions:
REMARK  status: ('A' for Active; 'I' for Inactive)
REMARK    1  A    between atoms: C_2  and  C_3 
REMARK    2  A    between atoms: C_3  and  C_4 
REMARK    3  A    between atoms: C_4  and  C_5 
REMARK    4  A    between atoms: C_8  and  N_9 
REMARK       I    between atoms: N_9  and  C_10 
REMARK    5  A    between atoms: C_10  and  C_11 
REMARK    6  A    between atoms: N_16  and  C_17 
ROOT
HETATM    1  C   UNL     1     -35.641  40.924 -52.838  1.00  0.00     0.098 A 
HETATM    2  C   UNL     1     -37.139  41.023 -52.767  1.00  0.00     0.205 A 
HETATM    3  O   UNL     1     -37.737  41.127 -51.699  1.00  0.00    -0.286 OA
HETATM    4  C   UNL     1     -37.798  41.036 -54.059  1.00  0.00     0.087 A 
HETATM    5  C   UNL     1     -37.089  40.951 -55.235  1.00  0.00     0.145 A 
HETATM    6  N   UNL     1     -38.001  41.021 -56.278  1.00  0.00    -0.216 N 
HETATM    7  N   UNL     1     -39.261  41.230 -55.786  1.00  0.00    -0.170 NA
HETATM    8  C   UNL     1     -39.139  41.185 -54.452  1.00  0.00     0.069 A 
HETATM    9  C   UNL     1     -40.335  41.325 -53.584  1.00  0.00     0.073 C 
HETATM   10  N   UNL     1     -35.736  40.882 -55.262  1.00  0.00    -0.349 N 
HETATM   11  C   UNL     1     -35.057  40.875 -54.057  1.00  0.00     0.111 A 
HETATM   12  H   UNL     1     -35.176  41.069 -56.092  1.00  0.00     0.167 HD
ENDROOT
BRANCH   1  13
HETATM   13  C   UNL     1     -34.744  40.941 -51.644  1.00  0.00     0.261 C 
HETATM   14  N   UNL     1     -34.252  39.706 -51.272  1.00  0.00    -0.323 N 
HETATM   15  H   UNL     1     -34.503  38.911 -51.860  1.00  0.00     0.169 HD
HETATM   16  O   UNL     1     -34.536  42.001 -51.060  1.00  0.00    -0.267 OA
BRANCH  14  17
HETATM   17  C   UNL     1     -33.508  39.395 -50.114  1.00  0.00     0.035 A 
HETATM   18  C   UNL     1     -32.279  39.971 -49.799  1.00  0.00     0.030 A 
HETATM   19  C   UNL     1     -31.633  39.658 -48.599  1.00  0.00     0.009 A 
HETATM   20  C   UNL     1     -32.213  38.772 -47.683  1.00  0.00    -0.058 A 
HETATM   21  C   UNL     1     -33.431  38.169 -48.013  1.00  0.00     0.009 A 
HETATM   22  C   UNL     1     -34.066  38.472 -49.222  1.00  0.00     0.030 A 
BRANCH  20  23
HETATM   23  C   UNL     1     -31.542  38.497 -46.359  1.00  0.00     0.038 C 
BRANCH  23  24
HETATM   24  C   UNL     1     -30.498  39.568 -46.020  1.00  0.00     0.004 C 
BRANCH  24  25
HETATM   25  C   UNL     1     -30.389  39.793 -44.513  1.00  0.00    -0.004 C 
HETATM   26  C   UNL     1     -29.925  41.207 -44.199  1.00  0.00     0.005 C 
ENDBRANCH  24  25
ENDBRANCH  23  24
ENDBRANCH  20  23
ENDBRANCH  14  17
ENDBRANCH   1  13
BRANCH   6  27
HETATM   27  C   UNL     1     -37.795  40.919 -57.685  1.00  0.00     0.060 A 
HETATM   28  C   UNL     1     -37.356  42.006 -58.452  1.00  0.00     0.031 A 
HETATM   29  C   UNL     1     -37.196  41.871 -59.835  1.00  0.00     0.002 A 
HETATM   30  C   UNL     1     -37.456  40.653 -60.457  1.00  0.00     0.000 A 
HETATM   31  C   UNL     1     -37.859  39.557 -59.697  1.00  0.00     0.002 A 
HETATM   32  C   UNL     1     -38.021  39.685 -58.316  1.00  0.00     0.031 A 
ENDBRANCH   6  27
TORSDOF 6
ENDMDL
MODEL 8
REMARK VINA RESULT:      -7.9     16.276     20.916
REMARK  6 active torsions:
REMARK  status: ('A' for Active; 'I' for Inactive)
REMARK    1  A    between atoms: C_2  and  C_3 
REMARK    2  A    between atoms: C_3  and  C_4 
REMARK    3  A    between atoms: C_4  and  C_5 
REMARK    4  A    between atoms: C_8  and  N_9 
REMARK       I    between atoms: N_9  and  C_10 
REMARK    5  A    between atoms: C_10  and  C_11 
REMARK    6  A    between atoms: N_16  and  C_17 
ROOT
HETATM    1  C   UNL     1     -34.069  40.388 -52.627  1.00  0.00     0.098 A 
HETATM    2  C   UNL     1     -32.892  40.192 -53.542  1.00  0.00     0.205 A 
HETATM    3  O   UNL     1     -31.765  39.960 -53.115  1.00  0.00    -0.286 OA
HETATM    4  C   UNL     1     -33.219  40.249 -54.954  1.00  0.00     0.087 A 
HETATM    5  C   UNL     1     -34.503  40.477 -55.392  1.00  0.00     0.145 A 
HETATM    6  N   UNL     1     -34.484  40.440 -56.779  1.00  0.00    -0.216 N 
HETATM    7  N   UNL     1     -33.230  40.114 -57.221  1.00  0.00    -0.170 NA
HETATM    8  C   UNL     1     -32.465  40.052 -56.123  1.00  0.00     0.069 A 
HETATM    9  C   UNL     1     -31.013  39.767 -56.236  1.00  0.00     0.073 C 
HETATM   10  N   UNL     1     -35.544  40.630 -54.538  1.00  0.00    -0.349 N 
HETATM   11  C   UNL     1     -35.289  40.576 -53.180  1.00  0.00     0.111 A 
HETATM   12  H   UNL     1     -36.521  40.549 -54.815  1.00  0.00     0.167 HD
ENDROOT
BRANCH   1  13
HETATM   13  C   UNL     1     -33.990  40.324 -51.136  1.00  0.00     0.261 C 
HETATM   14  N   UNL     1     -33.001  39.496 -50.645  1.00  0.00    -0.323 N 
HETATM   15  H   UNL     1     -32.394  39.043 -51.328  1.00  0.00     0.169 HD
HETATM   16  O   UNL     1     -34.800  40.952 -50.462  1.00  0.00    -0.267 OA
BRANCH  14  17
HETATM   17  C   UNL     1     -32.785  39.128 -49.300  1.00  0.00     0.035 A 
HETATM   18  C   UNL     1     -33.595  38.239 -48.595  1.00  0.00     0.030 A 
HETATM   19  C   UNL     1     -33.277  37.875 -47.283  1.00  0.00     0.009 A 
HETATM   20  C   UNL     1     -32.134  38.383 -46.655  1.00  0.00    -0.058 A 
HETATM   21  C   UNL     1     -31.339  39.300 -47.350  1.00  0.00     0.009 A 
HETATM   22  C   UNL     1     -31.668  39.675 -48.657  1.00  0.00     0.030 A 
BRANCH  20  23
HETATM   23  C   UNL     1     -31.761  37.928 -45.264  1.00  0.00     0.038 C 
BRANCH  23  24
HETATM   24  C   UNL     1     -31.677  39.107 -44.287  1.00  0.00     0.004 C 
BRANCH  24  25
HETATM   25  C   UNL     1     -30.230  39.446 -43.935  1.00  0.00    -0.004 C 
HETATM   26  C   UNL     1     -29.890  40.879 -44.316  1.00  0.00     0.005 C 
ENDBRANCH  24  25
ENDBRANCH  23  24
ENDBRANCH  20  23
ENDBRANCH  14  17
ENDBRANCH   1  13
BRANCH   6  27
HETATM   27  C   UNL     1     -35.530  40.674 -57.718  1.00  0.00     0.060 A 
HETATM   28  C   UNL     1     -36.028  39.658 -58.543  1.00  0.00     0.031 A 
HETATM   29  C   UNL     1     -37.036  39.938 -59.473  1.00  0.00     0.002 A 
HETATM   30  C   UNL     1     -37.562  41.224 -59.573  1.00  0.00     0.000 A 
HETATM   31  C   UNL     1     -37.098  42.232 -58.731  1.00  0.00     0.002 A 
HETATM   32  C   UNL     1     -36.092  41.959 -57.802  1.00  0.00     0.031 A 
ENDBRANCH   6  27
TORSDOF 6
ENDMDL
MODEL 9
REMARK VINA RESULT:      -7.8      5.877     10.407
REMARK  6 active torsions:
REMARK  status: ('A' for Active; 'I' for Inactive)
REMARK    1  A    between atoms: C_2  and  C_3 
REMARK    2  A    between atoms: C_3  and  C_4 
REMARK    3  A    between atoms: C_4  and  C_5 
REMARK    4  A    between atoms: C_8  and  N_9 
REMARK       I    between atoms: N_9  and  C_10 
REMARK    5  A    between atoms: C_10  and  C_11 
REMARK    6  A    between atoms: N_16  and  C_17 
ROOT
HETATM    1  C   UNL     1     -44.020  59.131 -51.737  1.00  0.00     0.098 A 
HETATM    2  C   UNL     1     -43.593  60.513 -52.148  1.00  0.00     0.205 A 
HETATM    3  O   UNL     1     -42.950  60.719 -53.173  1.00  0.00    -0.286 OA
HETATM    4  C   UNL     1     -44.049  61.566 -51.262  1.00  0.00     0.087 A 
HETATM    5  C   UNL     1     -44.797  61.296 -50.139  1.00  0.00     0.145 A 
HETATM    6  N   UNL     1     -45.094  62.508 -49.534  1.00  0.00    -0.216 N 
HETATM    7  N   UNL     1     -44.617  63.541 -50.294  1.00  0.00    -0.170 NA
HETATM    8  C   UNL     1     -43.946  62.967 -51.302  1.00  0.00     0.069 A 
HETATM    9  C   UNL     1     -43.244  63.802 -52.307  1.00  0.00     0.073 C 
HETATM   10  N   UNL     1     -45.181  60.039 -49.809  1.00  0.00    -0.349 N 
HETATM   11  C   UNL     1     -44.780  58.997 -50.626  1.00  0.00     0.111 A 
HETATM   12  H   UNL     1     -45.926  59.829 -49.148  1.00  0.00     0.167 HD
ENDROOT
BRANCH   1  13
HETATM   13  C   UNL     1     -43.713  57.894 -52.516  1.00  0.00     0.261 C 
HETATM   14  N   UNL     1     -42.624  57.179 -52.060  1.00  0.00    -0.323 N 
HETATM   15  H   UNL     1     -42.159  57.527 -51.221  1.00  0.00     0.169 HD
HETATM   16  O   UNL     1     -44.392  57.616 -53.500  1.00  0.00    -0.267 OA
BRANCH  14  17
HETATM   17  C   UNL     1     -42.015  56.063 -52.674  1.00  0.00     0.035 A 
HETATM   18  C   UNL     1     -41.192  56.144 -53.796  1.00  0.00     0.030 A 
HETATM   19  C   UNL     1     -40.575  54.998 -54.308  1.00  0.00     0.009 A 
HETATM   20  C   UNL     1     -40.758  53.752 -53.699  1.00  0.00    -0.058 A 
HETATM   21  C   UNL     1     -41.609  53.665 -52.592  1.00  0.00     0.009 A 
HETATM   22  C   UNL     1     -42.238  54.811 -52.092  1.00  0.00     0.030 A 
BRANCH  20  23
HETATM   23  C   UNL     1     -40.029  52.535 -54.216  1.00  0.00     0.038 C 
BRANCH  23  24
HETATM   24  C   UNL     1     -39.562  51.627 -53.072  1.00  0.00     0.004 C 
BRANCH  24  25
HETATM   25  C   UNL     1     -39.575  50.154 -53.480  1.00  0.00    -0.004 C 
HETATM   26  C   UNL     1     -40.575  49.900 -54.598  1.00  0.00     0.005 C 
ENDBRANCH  24  25
ENDBRANCH  23  24
ENDBRANCH  20  23
ENDBRANCH  14  17
ENDBRANCH   1  13
BRANCH   6  27
HETATM   27  C   UNL     1     -45.787  62.781 -48.318  1.00  0.00     0.060 A 
HETATM   28  C   UNL     1     -45.293  62.371 -47.073  1.00  0.00     0.031 A 
HETATM   29  C   UNL     1     -46.019  62.633 -45.907  1.00  0.00     0.002 A 
HETATM   30  C   UNL     1     -47.231  63.315 -45.973  1.00  0.00     0.000 A 
HETATM   31  C   UNL     1     -47.714  63.758 -47.202  1.00  0.00     0.002 A 
HETATM   32  C   UNL     1     -46.993  63.500 -48.370  1.00  0.00     0.031 A 
ENDBRANCH   6  27
TORSDOF 6
ENDMDL
MODEL 10
REMARK VINA RESULT:      -7.7     16.468     19.153
REMARK  6 active torsions:
REMARK  status: ('A' for Active; 'I' for Inactive)
REMARK    1  A    between atoms: C_2  and  C_3 
REMARK    2  A    between atoms: C_3  and  C_4 
REMARK    3  A    between atoms: C_4  and  C_5 
REMARK    4  A    between atoms: C_8  and  N_9 
REMARK       I    between atoms: N_9  and  C_10 
REMARK    5  A    between atoms: C_10  and  C_11 
REMARK    6  A    between atoms: N_16  and  C_17 
ROOT
HETATM    1  C   UNL     1     -33.020  40.002 -51.911  1.00  0.00     0.098 A 
HETATM    2  C   UNL     1     -34.044  39.305 -51.060  1.00  0.00     0.205 A 
HETATM    3  O   UNL     1     -35.148  38.989 -51.495  1.00  0.00    -0.286 OA
HETATM    4  C   UNL     1     -33.594  38.999 -49.716  1.00  0.00     0.087 A 
HETATM    5  C   UNL     1     -32.336  39.340 -49.277  1.00  0.00     0.145 A 
HETATM    6  N   UNL     1     -32.210  38.884 -47.973  1.00  0.00    -0.216 N 
HETATM    7  N   UNL     1     -33.333  38.192 -47.608  1.00  0.00    -0.170 NA
HETATM    8  C   UNL     1     -34.180  38.310 -48.640  1.00  0.00     0.069 A 
HETATM    9  C   UNL     1     -35.538  37.716 -48.567  1.00  0.00     0.073 C 
HETATM   10  N   UNL     1     -31.430  39.952 -50.079  1.00  0.00    -0.349 N 
HETATM   11  C   UNL     1     -31.805  40.258 -51.374  1.00  0.00     0.111 A 
HETATM   12  H   UNL     1     -30.432  39.991 -49.879  1.00  0.00     0.167 HD
ENDROOT
BRANCH   1  13
HETATM   13  C   UNL     1     -33.234  40.376 -53.342  1.00  0.00     0.261 C 
HETATM   14  N   UNL     1     -34.547  40.632 -53.681  1.00  0.00    -0.323 N 
HETATM   15  H   UNL     1     -35.237  40.589 -52.931  1.00  0.00     0.169 HD
HETATM   16  O   UNL     1     -32.277  40.392 -54.111  1.00  0.00    -0.267 OA
BRANCH  14  17
HETATM   17  C   UNL     1     -35.066  40.863 -54.973  1.00  0.00     0.035 A 
HETATM   18  C   UNL     1     -35.754  39.907 -55.719  1.00  0.00     0.030 A 
HETATM   19  C   UNL     1     -36.293  40.232 -56.968  1.00  0.00     0.009 A 
HETATM   20  C   UNL     1     -36.168  41.525 -57.488  1.00  0.00    -0.058 A 
HETATM   21  C   UNL     1     -35.451  42.476 -56.755  1.00  0.00     0.009 A 
HETATM   22  C   UNL     1     -34.897  42.143 -55.513  1.00  0.00     0.030 A 
BRANCH  20  23
HETATM   23  C   UNL     1     -36.817  41.885 -58.803  1.00  0.00     0.038 C 
BRANCH  23  24
HETATM   24  C   UNL     1     -37.752  40.773 -59.295  1.00  0.00     0.004 C 
BRANCH  24  25
HETATM   25  C   UNL     1     -37.303  40.216 -60.645  1.00  0.00    -0.004 C 
HETATM   26  C   UNL     1     -36.447  38.971 -60.470  1.00  0.00     0.005 C 
ENDBRANCH  24  25
ENDBRANCH  23  24
ENDBRANCH  20  23
ENDBRANCH  14  17
ENDBRANCH   1  13
BRANCH   6  27
HETATM   27  C   UNL     1     -31.134  39.032 -47.049  1.00  0.00     0.060 A 
HETATM   28  C   UNL     1     -30.612  37.945 -46.337  1.00  0.00     0.031 A 
HETATM   29  C   UNL     1     -29.576  38.138 -45.418  1.00  0.00     0.002 A 
HETATM   30  C   UNL     1     -29.046  39.410 -45.214  1.00  0.00     0.000 A 
HETATM   31  C   UNL     1     -29.535  40.491 -45.944  1.00  0.00     0.002 A 
HETATM   32  C   UNL     1     -30.569  40.304 -46.863  1.00  0.00     0.031 A 
ENDBRANCH   6  27
TORSDOF 6
ENDMDL
