MODEL 1
REMARK VINA RESULT:      -9.0      0.000      0.000
REMARK  6 active torsions:
REMARK  status: ('A' for Active; 'I' for Inactive)
REMARK    1  A    between atoms: C_4  and  C_5 
REMARK    2  A    between atoms: C_5  and  N_6 
REMARK    3  A    between atoms: C_5  and  C_20 
REMARK       I    between atoms: N_6  and  C_7 
REMARK    4  A    between atoms: C_7  and  C_8 
REMARK    5  A    between atoms: C_8  and  N_9 
REMARK    6  A    between atoms: C_21  and  O_22 
ROOT
HETATM    1  C   UNL     1     -42.099  56.271 -55.286  1.00  0.00     0.154 C 
ENDROOT
BRANCH   1   2
HETATM    2  C   UNL     1     -42.736  56.691 -56.613  1.00  0.00    -0.031 A 
HETATM    3  C   UNL     1     -43.075  55.763 -57.613  1.00  0.00     0.009 A 
HETATM    4  C   UNL     1     -43.638  56.186 -58.821  1.00  0.00     0.001 A 
HETATM    5  C   UNL     1     -43.854  57.540 -59.060  1.00  0.00     0.000 A 
HETATM    6  C   UNL     1     -43.496  58.478 -58.097  1.00  0.00     0.001 A 
HETATM    7  C   UNL     1     -42.933  58.058 -56.891  1.00  0.00     0.009 A 
ENDBRANCH   1   2
BRANCH   1   8
HETATM    8  N   UNL     1     -42.067  54.832 -55.070  1.00  0.00    -0.347 N 
HETATM    9  C   UNL     1     -40.879  54.158 -54.909  1.00  0.00     0.236 C 
HETATM   10  O   UNL     1     -39.788  54.725 -55.025  1.00  0.00    -0.272 OA
HETATM   11  H   UNL     1     -42.897  54.416 -54.650  1.00  0.00     0.163 HD
BRANCH   9  12
HETATM   12  C   UNL     1     -40.983  52.726 -54.367  1.00  0.00     0.236 C 
BRANCH  12  13
HETATM   13  N   UNL     1     -40.422  52.510 -53.052  1.00  0.00    -0.289 N 
HETATM   14  C   UNL     1     -39.766  51.331 -52.652  1.00  0.00     0.328 A 
HETATM   15  O   UNL     1     -39.384  50.427 -53.377  1.00  0.00    -0.247 OA
HETATM   16  N   UNL     1     -39.623  51.390 -51.263  1.00  0.00    -0.306 N 
HETATM   17  C   UNL     1     -40.236  52.547 -50.798  1.00  0.00     0.063 A 
HETATM   18  H   UNL     1     -39.200  50.664 -50.708  1.00  0.00     0.171 HD
HETATM   19  C   UNL     1     -40.742  53.246 -51.897  1.00  0.00     0.066 A 
HETATM   20  C   UNL     1     -40.398  52.975 -49.500  1.00  0.00     0.032 A 
HETATM   21  C   UNL     1     -41.440  54.423 -51.730  1.00  0.00     0.032 A 
HETATM   22  C   UNL     1     -41.621  54.880 -50.417  1.00  0.00     0.002 A 
HETATM   23  C   UNL     1     -41.107  54.164 -49.316  1.00  0.00     0.002 A 
ENDBRANCH  12  13
ENDBRANCH   9  12
ENDBRANCH   1   8
BRANCH   1  24
HETATM   24  C   UNL     1     -42.681  56.959 -54.041  1.00  0.00     0.013 A 
HETATM   25  C   UNL     1     -44.041  56.758 -53.735  1.00  0.00     0.075 A 
HETATM   26  C   UNL     1     -44.602  57.226 -52.554  1.00  0.00     0.038 A 
HETATM   27  C   UNL     1     -43.826  57.960 -51.668  1.00  0.00     0.015 A 
HETATM   28  C   UNL     1     -42.490  58.258 -51.961  1.00  0.00    -0.025 A 
HETATM   29  C   UNL     1     -41.895  57.776 -53.160  1.00  0.00    -0.015 A 
HETATM   30  C   UNL     1     -41.747  59.039 -51.059  1.00  0.00     0.012 A 
HETATM   31  C   UNL     1     -40.548  58.151 -53.390  1.00  0.00     0.013 A 
HETATM   32  C   UNL     1     -39.824  58.937 -52.488  1.00  0.00     0.001 A 
HETATM   33  C   UNL     1     -40.422  59.377 -51.319  1.00  0.00     0.001 A 
BRANCH  25  34
HETATM   34  O   UNL     1     -44.899  56.110 -54.582  1.00  0.00    -0.360 OA
HETATM   35  H   UNL     1     -44.525  55.218 -54.764  1.00  0.00     0.217 HD
ENDBRANCH  25  34
ENDBRANCH   1  24
TORSDOF 6
ENDMDL
MODEL 2
REMARK VINA RESULT:      -8.3      2.092      4.729
REMARK  6 active torsions:
REMARK  status: ('A' for Active; 'I' for Inactive)
REMARK    1  A    between atoms: C_4  and  C_5 
REMARK    2  A    between atoms: C_5  and  N_6 
REMARK    3  A    between atoms: C_5  and  C_20 
REMARK       I    between atoms: N_6  and  C_7 
REMARK    4  A    between atoms: C_7  and  C_8 
REMARK    5  A    between atoms: C_8  and  N_9 
REMARK    6  A    between atoms: C_21  and  O_22 
ROOT
HETATM    1  C   UNL     1     -43.186  56.795 -55.303  1.00  0.00     0.154 C 
ENDROOT
BRANCH   1   2
HETATM    2  C   UNL     1     -43.737  58.090 -54.700  1.00  0.00    -0.031 A 
HETATM    3  C   UNL     1     -43.081  58.778 -53.664  1.00  0.00     0.009 A 
HETATM    4  C   UNL     1     -43.624  59.948 -53.125  1.00  0.00     0.001 A 
HETATM    5  C   UNL     1     -44.839  60.440 -53.594  1.00  0.00     0.000 A 
HETATM    6  C   UNL     1     -45.520  59.758 -54.597  1.00  0.00     0.001 A 
HETATM    7  C   UNL     1     -44.980  58.589 -55.136  1.00  0.00     0.009 A 
ENDBRANCH   1   2
BRANCH   1   8
HETATM    8  N   UNL     1     -41.966  56.316 -54.670  1.00  0.00    -0.347 N 
HETATM    9  C   UNL     1     -41.915  55.089 -54.049  1.00  0.00     0.236 C 
HETATM   10  O   UNL     1     -42.918  54.381 -53.925  1.00  0.00    -0.272 OA
HETATM   11  H   UNL     1     -41.089  56.691 -55.029  1.00  0.00     0.163 HD
BRANCH   9  12
HETATM   12  C   UNL     1     -40.514  54.560 -53.715  1.00  0.00     0.236 C 
BRANCH  12  13
HETATM   13  N   UNL     1     -40.463  53.483 -52.752  1.00  0.00    -0.289 N 
HETATM   14  C   UNL     1     -40.324  53.664 -51.363  1.00  0.00     0.328 A 
HETATM   15  O   UNL     1     -40.441  54.712 -50.749  1.00  0.00    -0.247 OA
HETATM   16  N   UNL     1     -40.034  52.412 -50.811  1.00  0.00    -0.306 N 
HETATM   17  C   UNL     1     -39.927  51.484 -51.839  1.00  0.00     0.063 A 
HETATM   18  H   UNL     1     -39.868  52.254 -49.831  1.00  0.00     0.171 HD
HETATM   19  C   UNL     1     -40.183  52.136 -53.047  1.00  0.00     0.066 A 
HETATM   20  C   UNL     1     -39.587  50.152 -51.765  1.00  0.00     0.032 A 
HETATM   21  C   UNL     1     -40.108  51.463 -54.248  1.00  0.00     0.032 A 
HETATM   22  C   UNL     1     -39.763  50.105 -54.201  1.00  0.00     0.002 A 
HETATM   23  C   UNL     1     -39.504  49.458 -52.975  1.00  0.00     0.002 A 
ENDBRANCH  12  13
ENDBRANCH   9  12
ENDBRANCH   1   8
BRANCH   1  24
HETATM   24  C   UNL     1     -42.991  56.821 -56.826  1.00  0.00     0.013 A 
HETATM   25  C   UNL     1     -43.270  55.652 -57.561  1.00  0.00     0.075 A 
HETATM   26  C   UNL     1     -43.258  55.639 -58.949  1.00  0.00     0.038 A 
HETATM   27  C   UNL     1     -42.909  56.789 -59.644  1.00  0.00     0.015 A 
HETATM   28  C   UNL     1     -42.543  57.956 -58.962  1.00  0.00    -0.025 A 
HETATM   29  C   UNL     1     -42.563  57.990 -57.541  1.00  0.00    -0.015 A 
HETATM   30  C   UNL     1     -42.156  59.088 -59.699  1.00  0.00     0.012 A 
HETATM   31  C   UNL     1     -42.149  59.203 -56.934  1.00  0.00     0.013 A 
HETATM   32  C   UNL     1     -41.757  60.318 -57.680  1.00  0.00     0.001 A 
HETATM   33  C   UNL     1     -41.766  60.263 -59.064  1.00  0.00     0.001 A 
BRANCH  25  34
HETATM   34  O   UNL     1     -43.552  54.454 -56.961  1.00  0.00    -0.360 OA
HETATM   35  H   UNL     1     -42.962  54.363 -56.178  1.00  0.00     0.217 HD
ENDBRANCH  25  34
ENDBRANCH   1  24
TORSDOF 6
ENDMDL
MODEL 3
REMARK VINA RESULT:      -8.0      2.167      6.586
REMARK  6 active torsions:
REMARK  status: ('A' for Active; 'I' for Inactive)
REMARK    1  A    between atoms: C_4  and  C_5 
REMARK    2  A    between atoms: C_5  and  N_6 
REMARK    3  A    between atoms: C_5  and  C_20 
REMARK       I    between atoms: N_6  and  C_7 
REMARK    4  A    between atoms: C_7  and  C_8 
REMARK    5  A    between atoms: C_8  and  N_9 
REMARK    6  A    between atoms: C_21  and  O_22 
ROOT
HETATM    1  C   UNL     1     -42.558  55.621 -52.583  1.00  0.00     0.154 C 
ENDROOT
BRANCH   1   2
HETATM    2  C   UNL     1     -41.715  54.945 -51.497  1.00  0.00    -0.031 A 
HETATM    3  C   UNL     1     -40.575  54.178 -51.796  1.00  0.00     0.009 A 
HETATM    4  C   UNL     1     -39.841  53.560 -50.780  1.00  0.00     0.001 A 
HETATM    5  C   UNL     1     -40.242  53.678 -49.452  1.00  0.00     0.000 A 
HETATM    6  C   UNL     1     -41.386  54.406 -49.137  1.00  0.00     0.001 A 
HETATM    7  C   UNL     1     -42.120  55.023 -50.150  1.00  0.00     0.009 A 
ENDBRANCH   1   2
BRANCH   1   8
HETATM    8  N   UNL     1     -41.980  55.548 -53.916  1.00  0.00    -0.347 N 
HETATM    9  C   UNL     1     -42.665  54.975 -54.964  1.00  0.00     0.236 C 
HETATM   10  O   UNL     1     -43.757  54.425 -54.803  1.00  0.00    -0.272 OA
HETATM   11  H   UNL     1     -41.280  56.251 -54.149  1.00  0.00     0.163 HD
BRANCH   9  12
HETATM   12  C   UNL     1     -42.104  55.248 -56.366  1.00  0.00     0.236 C 
BRANCH  12  13
HETATM   13  N   UNL     1     -42.798  56.258 -57.134  1.00  0.00    -0.289 N 
HETATM   14  C   UNL     1     -43.065  57.562 -56.676  1.00  0.00     0.328 A 
HETATM   15  O   UNL     1     -42.584  58.102 -55.693  1.00  0.00    -0.247 OA
HETATM   16  N   UNL     1     -43.980  58.132 -57.566  1.00  0.00    -0.306 N 
HETATM   17  C   UNL     1     -44.330  57.183 -58.518  1.00  0.00     0.063 A 
HETATM   18  H   UNL     1     -44.359  59.060 -57.467  1.00  0.00     0.171 HD
HETATM   19  C   UNL     1     -43.610  56.014 -58.257  1.00  0.00     0.066 A 
HETATM   20  C   UNL     1     -45.247  57.283 -59.539  1.00  0.00     0.032 A 
HETATM   21  C   UNL     1     -43.786  54.884 -59.026  1.00  0.00     0.032 A 
HETATM   22  C   UNL     1     -44.716  54.959 -60.073  1.00  0.00     0.002 A 
HETATM   23  C   UNL     1     -45.439  56.144 -60.325  1.00  0.00     0.002 A 
ENDBRANCH  12  13
ENDBRANCH   9  12
ENDBRANCH   1   8
BRANCH   1  24
HETATM   24  C   UNL     1     -42.959  57.073 -52.282  1.00  0.00     0.013 A 
HETATM   25  C   UNL     1     -44.246  57.508 -52.655  1.00  0.00     0.075 A 
HETATM   26  C   UNL     1     -44.731  58.755 -52.289  1.00  0.00     0.038 A 
HETATM   27  C   UNL     1     -43.916  59.631 -51.584  1.00  0.00     0.015 A 
HETATM   28  C   UNL     1     -42.600  59.281 -51.259  1.00  0.00    -0.025 A 
HETATM   29  C   UNL     1     -42.091  58.002 -51.614  1.00  0.00    -0.015 A 
HETATM   30  C   UNL     1     -41.792  60.209 -50.581  1.00  0.00     0.012 A 
HETATM   31  C   UNL     1     -40.740  57.745 -51.273  1.00  0.00     0.013 A 
HETATM   32  C   UNL     1     -39.944  58.681 -50.607  1.00  0.00     0.001 A 
HETATM   33  C   UNL     1     -40.471  59.912 -50.256  1.00  0.00     0.001 A 
BRANCH  25  34
HETATM   34  O   UNL     1     -45.092  56.742 -53.411  1.00  0.00    -0.360 OA
HETATM   35  H   UNL     1     -46.004  56.866 -53.062  1.00  0.00     0.217 HD
ENDBRANCH  25  34
ENDBRANCH   1  24
TORSDOF 6
ENDMDL
MODEL 4
REMARK VINA RESULT:      -8.0      3.835      7.267
REMARK  6 active torsions:
REMARK  status: ('A' for Active; 'I' for Inactive)
REMARK    1  A    between atoms: C_4  and  C_5 
REMARK    2  A    between atoms: C_5  and  N_6 
REMARK    3  A    between atoms: C_5  and  C_20 
REMARK       I    between atoms: N_6  and  C_7 
REMARK    4  A    between atoms: C_7  and  C_8 
REMARK    5  A    between atoms: C_8  and  N_9 
REMARK    6  A    between atoms: C_21  and  O_22 
ROOT
HETATM    1  C   UNL     1     -43.463  59.613 -59.043  1.00  0.00     0.154 C 
ENDROOT
BRANCH   1   2
HETATM    2  C   UNL     1     -42.607  60.468 -59.982  1.00  0.00    -0.031 A 
HETATM    3  C   UNL     1     -41.640  61.372 -59.506  1.00  0.00     0.009 A 
HETATM    4  C   UNL     1     -40.890  62.150 -60.393  1.00  0.00     0.001 A 
HETATM    5  C   UNL     1     -41.105  62.056 -61.765  1.00  0.00     0.000 A 
HETATM    6  C   UNL     1     -42.078  61.192 -62.255  1.00  0.00     0.001 A 
HETATM    7  C   UNL     1     -42.829  60.414 -61.372  1.00  0.00     0.009 A 
ENDBRANCH   1   2
BRANCH   1   8
HETATM    8  N   UNL     1     -43.016  59.620 -57.658  1.00  0.00    -0.347 N 
HETATM    9  C   UNL     1     -43.912  59.549 -56.616  1.00  0.00     0.236 C 
HETATM   10  O   UNL     1     -45.131  59.563 -56.805  1.00  0.00    -0.272 OA
HETATM   11  H   UNL     1     -42.072  59.280 -57.483  1.00  0.00     0.163 HD
BRANCH   9  12
HETATM   12  C   UNL     1     -43.318  59.235 -55.237  1.00  0.00     0.236 C 
BRANCH  12  13
HETATM   13  N   UNL     1     -43.773  58.008 -54.622  1.00  0.00    -0.289 N 
HETATM   14  C   UNL     1     -44.510  57.944 -53.425  1.00  0.00     0.328 A 
HETATM   15  O   UNL     1     -45.053  58.875 -52.852  1.00  0.00    -0.247 OA
HETATM   16  N   UNL     1     -44.516  56.608 -53.014  1.00  0.00    -0.306 N 
HETATM   17  C   UNL     1     -43.741  55.866 -53.897  1.00  0.00     0.063 A 
HETATM   18  H   UNL     1     -44.960  56.278 -52.173  1.00  0.00     0.171 HD
HETATM   19  C   UNL     1     -43.269  56.723 -54.894  1.00  0.00     0.066 A 
HETATM   20  C   UNL     1     -43.413  54.530 -53.842  1.00  0.00     0.032 A 
HETATM   21  C   UNL     1     -42.436  56.262 -55.891  1.00  0.00     0.032 A 
HETATM   22  C   UNL     1     -42.086  54.906 -55.858  1.00  0.00     0.002 A 
HETATM   23  C   UNL     1     -42.567  54.050 -54.845  1.00  0.00     0.002 A 
ENDBRANCH  12  13
ENDBRANCH   9  12
ENDBRANCH   1   8
BRANCH   1  24
HETATM   24  C   UNL     1     -43.675  58.162 -59.501  1.00  0.00     0.013 A 
HETATM   25  C   UNL     1     -42.601  57.257 -59.390  1.00  0.00     0.075 A 
HETATM   26  C   UNL     1     -42.758  55.902 -59.646  1.00  0.00     0.038 A 
HETATM   27  C   UNL     1     -43.986  55.420 -60.078  1.00  0.00     0.015 A 
HETATM   28  C   UNL     1     -45.064  56.289 -60.283  1.00  0.00    -0.025 A 
HETATM   29  C   UNL     1     -44.926  57.679 -60.013  1.00  0.00    -0.015 A 
HETATM   30  C   UNL     1     -46.281  55.771 -60.760  1.00  0.00     0.012 A 
HETATM   31  C   UNL     1     -46.059  58.488 -60.279  1.00  0.00     0.013 A 
HETATM   32  C   UNL     1     -47.260  57.961 -60.762  1.00  0.00     0.001 A 
HETATM   33  C   UNL     1     -47.373  56.601 -60.998  1.00  0.00     0.001 A 
BRANCH  25  34
HETATM   34  O   UNL     1     -41.338  57.652 -59.042  1.00  0.00    -0.360 OA
HETATM   35  H   UNL     1     -40.737  56.881 -59.165  1.00  0.00     0.217 HD
ENDBRANCH  25  34
ENDBRANCH   1  24
TORSDOF 6
ENDMDL
MODEL 5
REMARK VINA RESULT:      -7.9      2.247      6.979
REMARK  6 active torsions:
REMARK  status: ('A' for Active; 'I' for Inactive)
REMARK    1  A    between atoms: C_4  and  C_5 
REMARK    2  A    between atoms: C_5  and  N_6 
REMARK    3  A    between atoms: C_5  and  C_20 
REMARK       I    between atoms: N_6  and  C_7 
REMARK    4  A    between atoms: C_7  and  C_8 
REMARK    5  A    between atoms: C_8  and  N_9 
REMARK    6  A    between atoms: C_21  and  O_22 
ROOT
HETATM    1  C   UNL     1     -42.361  56.066 -52.816  1.00  0.00     0.154 C 
ENDROOT
BRANCH   1   2
HETATM    2  C   UNL     1     -41.549  55.297 -51.770  1.00  0.00    -0.031 A 
HETATM    3  C   UNL     1     -40.809  54.144 -52.088  1.00  0.00     0.009 A 
HETATM    4  C   UNL     1     -40.094  53.457 -51.103  1.00  0.00     0.001 A 
HETATM    5  C   UNL     1     -40.121  53.894 -49.781  1.00  0.00     0.000 A 
HETATM    6  C   UNL     1     -40.873  55.014 -49.438  1.00  0.00     0.001 A 
HETATM    7  C   UNL     1     -41.588  55.701 -50.421  1.00  0.00     0.009 A 
ENDBRANCH   1   2
BRANCH   1   8
HETATM    8  N   UNL     1     -41.966  55.798 -54.190  1.00  0.00    -0.347 N 
HETATM    9  C   UNL     1     -42.837  55.224 -55.087  1.00  0.00     0.236 C 
HETATM   10  O   UNL     1     -43.957  54.832 -54.746  1.00  0.00    -0.272 OA
HETATM   11  H   UNL     1     -41.225  56.383 -54.573  1.00  0.00     0.163 HD
BRANCH   9  12
HETATM   12  C   UNL     1     -42.428  55.294 -56.564  1.00  0.00     0.236 C 
BRANCH  12  13
HETATM   13  N   UNL     1     -43.173  56.229 -57.378  1.00  0.00    -0.289 N 
HETATM   14  C   UNL     1     -43.540  57.524 -56.967  1.00  0.00     0.328 A 
HETATM   15  O   UNL     1     -43.120  58.126 -55.992  1.00  0.00    -0.247 OA
HETATM   16  N   UNL     1     -44.472  58.002 -57.893  1.00  0.00    -0.306 N 
HETATM   17  C   UNL     1     -44.733  57.002 -58.821  1.00  0.00     0.063 A 
HETATM   18  H   UNL     1     -44.917  58.904 -57.832  1.00  0.00     0.171 HD
HETATM   19  C   UNL     1     -43.940  55.896 -58.509  1.00  0.00     0.066 A 
HETATM   20  C   UNL     1     -45.632  57.008 -59.864  1.00  0.00     0.032 A 
HETATM   21  C   UNL     1     -44.021  54.733 -59.246  1.00  0.00     0.032 A 
HETATM   22  C   UNL     1     -44.929  54.712 -60.313  1.00  0.00     0.002 A 
HETATM   23  C   UNL     1     -45.727  55.835 -60.618  1.00  0.00     0.002 A 
ENDBRANCH  12  13
ENDBRANCH   9  12
ENDBRANCH   1   8
BRANCH   1  24
HETATM   24  C   UNL     1     -42.431  57.584 -52.593  1.00  0.00     0.013 A 
HETATM   25  C   UNL     1     -41.354  58.380 -53.031  1.00  0.00     0.075 A 
HETATM   26  C   UNL     1     -41.407  59.766 -52.996  1.00  0.00     0.038 A 
HETATM   27  C   UNL     1     -42.524  60.399 -52.469  1.00  0.00     0.015 A 
HETATM   28  C   UNL     1     -43.589  59.656 -51.945  1.00  0.00    -0.025 A 
HETATM   29  C   UNL     1     -43.557  58.235 -51.984  1.00  0.00    -0.015 A 
HETATM   30  C   UNL     1     -44.685  60.331 -51.382  1.00  0.00     0.012 A 
HETATM   31  C   UNL     1     -44.663  57.564 -51.405  1.00  0.00     0.013 A 
HETATM   32  C   UNL     1     -45.742  58.249 -50.839  1.00  0.00     0.001 A 
HETATM   33  C   UNL     1     -45.756  59.633 -50.832  1.00  0.00     0.001 A 
BRANCH  25  34
HETATM   34  O   UNL     1     -40.184  57.843 -53.498  1.00  0.00    -0.360 OA
HETATM   35  H   UNL     1     -39.904  58.368 -54.282  1.00  0.00     0.217 HD
ENDBRANCH  25  34
ENDBRANCH   1  24
TORSDOF 6
ENDMDL
MODEL 6
REMARK VINA RESULT:      -7.8      2.341      7.257
REMARK  6 active torsions:
REMARK  status: ('A' for Active; 'I' for Inactive)
REMARK    1  A    between atoms: C_4  and  C_5 
REMARK    2  A    between atoms: C_5  and  N_6 
REMARK    3  A    between atoms: C_5  and  C_20 
REMARK       I    between atoms: N_6  and  C_7 
REMARK    4  A    between atoms: C_7  and  C_8 
REMARK    5  A    between atoms: C_8  and  N_9 
REMARK    6  A    between atoms: C_21  and  O_22 
ROOT
HETATM    1  C   UNL     1     -41.143  57.151 -53.524  1.00  0.00     0.154 C 
ENDROOT
BRANCH   1   2
HETATM    2  C   UNL     1     -41.037  58.101 -52.328  1.00  0.00    -0.031 A 
HETATM    3  C   UNL     1     -42.169  58.643 -51.694  1.00  0.00     0.009 A 
HETATM    4  C   UNL     1     -42.033  59.522 -50.616  1.00  0.00     0.001 A 
HETATM    5  C   UNL     1     -40.768  59.892 -50.165  1.00  0.00     0.000 A 
HETATM    6  C   UNL     1     -39.635  59.391 -50.798  1.00  0.00     0.001 A 
HETATM    7  C   UNL     1     -39.768  58.514 -51.875  1.00  0.00     0.009 A 
ENDBRANCH   1   2
BRANCH   1   8
HETATM    8  N   UNL     1     -42.355  57.317 -54.311  1.00  0.00    -0.347 N 
HETATM    9  C   UNL     1     -42.506  58.373 -55.180  1.00  0.00     0.236 C 
HETATM   10  O   UNL     1     -41.661  59.268 -55.269  1.00  0.00    -0.272 OA
HETATM   11  H   UNL     1     -42.888  56.472 -54.510  1.00  0.00     0.163 HD
BRANCH   9  12
HETATM   12  C   UNL     1     -43.665  58.263 -56.180  1.00  0.00     0.236 C 
BRANCH  12  13
HETATM   13  N   UNL     1     -43.305  57.829 -57.512  1.00  0.00    -0.289 N 
HETATM   14  C   UNL     1     -42.927  56.515 -57.845  1.00  0.00     0.328 A 
HETATM   15  O   UNL     1     -43.048  55.522 -57.146  1.00  0.00    -0.247 OA
HETATM   16  N   UNL     1     -42.393  56.554 -59.136  1.00  0.00    -0.306 N 
HETATM   17  C   UNL     1     -42.374  57.873 -59.573  1.00  0.00     0.063 A 
HETATM   18  H   UNL     1     -42.026  55.751 -59.619  1.00  0.00     0.171 HD
HETATM   19  C   UNL     1     -42.930  58.674 -58.573  1.00  0.00     0.066 A 
HETATM   20  C   UNL     1     -41.873  58.385 -60.748  1.00  0.00     0.032 A 
HETATM   21  C   UNL     1     -43.006  60.043 -58.718  1.00  0.00     0.032 A 
HETATM   22  C   UNL     1     -42.501  60.590 -59.906  1.00  0.00     0.002 A 
HETATM   23  C   UNL     1     -41.940  59.771 -60.908  1.00  0.00     0.002 A 
ENDBRANCH  12  13
ENDBRANCH   9  12
ENDBRANCH   1   8
BRANCH   1  24
HETATM   24  C   UNL     1     -40.954  55.663 -53.189  1.00  0.00     0.013 A 
HETATM   25  C   UNL     1     -40.698  54.763 -54.242  1.00  0.00     0.075 A 
HETATM   26  C   UNL     1     -40.375  53.434 -54.006  1.00  0.00     0.038 A 
HETATM   27  C   UNL     1     -40.354  52.952 -52.704  1.00  0.00     0.015 A 
HETATM   28  C   UNL     1     -40.681  53.784 -51.626  1.00  0.00    -0.025 A 
HETATM   29  C   UNL     1     -41.001  55.151 -51.849  1.00  0.00    -0.015 A 
HETATM   30  C   UNL     1     -40.689  53.250 -50.326  1.00  0.00     0.012 A 
HETATM   31  C   UNL     1     -41.349  55.911 -50.704  1.00  0.00     0.013 A 
HETATM   32  C   UNL     1     -41.362  55.364 -49.417  1.00  0.00     0.001 A 
HETATM   33  C   UNL     1     -41.027  54.034 -49.228  1.00  0.00     0.001 A 
BRANCH  25  34
HETATM   34  O   UNL     1     -40.767  55.130 -55.559  1.00  0.00    -0.360 OA
HETATM   35  H   UNL     1     -40.060  55.795 -55.724  1.00  0.00     0.217 HD
ENDBRANCH  25  34
ENDBRANCH   1  24
TORSDOF 6
ENDMDL
MODEL 7
REMARK VINA RESULT:      -7.8     15.314     17.764
REMARK  6 active torsions:
REMARK  status: ('A' for Active; 'I' for Inactive)
REMARK    1  A    between atoms: C_4  and  C_5 
REMARK    2  A    between atoms: C_5  and  N_6 
REMARK    3  A    between atoms: C_5  and  C_20 
REMARK       I    between atoms: N_6  and  C_7 
REMARK    4  A    between atoms: C_7  and  C_8 
REMARK    5  A    between atoms: C_8  and  N_9 
REMARK    6  A    between atoms: C_21  and  O_22 
ROOT
HETATM    1  C   UNL     1     -35.179  40.521 -55.350  1.00  0.00     0.154 C 
ENDROOT
BRANCH   1   2
HETATM    2  C   UNL     1     -33.682  40.211 -55.426  1.00  0.00    -0.031 A 
HETATM    3  C   UNL     1     -32.962  40.258 -56.633  1.00  0.00     0.009 A 
HETATM    4  C   UNL     1     -31.599  39.950 -56.667  1.00  0.00     0.001 A 
HETATM    5  C   UNL     1     -30.935  39.571 -55.503  1.00  0.00     0.000 A 
HETATM    6  C   UNL     1     -31.635  39.487 -54.303  1.00  0.00     0.001 A 
HETATM    7  C   UNL     1     -32.997  39.794 -54.268  1.00  0.00     0.009 A 
ENDBRANCH   1   2
BRANCH   1   8
HETATM    8  N   UNL     1     -35.756  40.352 -54.025  1.00  0.00    -0.347 N 
HETATM    9  C   UNL     1     -36.202  41.430 -53.295  1.00  0.00     0.236 C 
HETATM   10  O   UNL     1     -36.055  42.589 -53.691  1.00  0.00    -0.272 OA
HETATM   11  H   UNL     1     -36.182  39.448 -53.826  1.00  0.00     0.163 HD
BRANCH   9  12
HETATM   12  C   UNL     1     -37.076  41.104 -52.077  1.00  0.00     0.236 C 
BRANCH  12  13
HETATM   13  N   UNL     1     -36.696  39.927 -51.328  1.00  0.00    -0.289 N 
HETATM   14  C   UNL     1     -37.599  38.946 -50.875  1.00  0.00     0.328 A 
HETATM   15  O   UNL     1     -38.764  38.817 -51.213  1.00  0.00    -0.247 OA
HETATM   16  N   UNL     1     -36.908  38.137 -49.969  1.00  0.00    -0.306 N 
HETATM   17  C   UNL     1     -35.625  38.641 -49.807  1.00  0.00     0.063 A 
HETATM   18  H   UNL     1     -37.322  37.361 -49.477  1.00  0.00     0.171 HD
HETATM   19  C   UNL     1     -35.482  39.755 -50.638  1.00  0.00     0.066 A 
HETATM   20  C   UNL     1     -34.628  38.206 -48.963  1.00  0.00     0.032 A 
HETATM   21  C   UNL     1     -34.313  40.485 -50.654  1.00  0.00     0.032 A 
HETATM   22  C   UNL     1     -33.282  40.063 -49.804  1.00  0.00     0.002 A 
HETATM   23  C   UNL     1     -33.438  38.938 -48.967  1.00  0.00     0.002 A 
ENDBRANCH  12  13
ENDBRANCH   9  12
ENDBRANCH   1   8
BRANCH   1  24
HETATM   24  C   UNL     1     -36.047  39.782 -56.380  1.00  0.00     0.013 A 
HETATM   25  C   UNL     1     -36.336  38.420 -56.164  1.00  0.00     0.075 A 
HETATM   26  C   UNL     1     -37.227  37.724 -56.969  1.00  0.00     0.038 A 
HETATM   27  C   UNL     1     -37.815  38.360 -58.054  1.00  0.00     0.015 A 
HETATM   28  C   UNL     1     -37.501  39.690 -58.362  1.00  0.00    -0.025 A 
HETATM   29  C   UNL     1     -36.600  40.421 -57.540  1.00  0.00    -0.015 A 
HETATM   30  C   UNL     1     -38.085  40.288 -59.492  1.00  0.00     0.012 A 
HETATM   31  C   UNL     1     -36.316  41.750 -57.944  1.00  0.00     0.013 A 
HETATM   32  C   UNL     1     -36.897  42.329 -59.076  1.00  0.00     0.001 A 
HETATM   33  C   UNL     1     -37.787  41.600 -59.847  1.00  0.00     0.001 A 
BRANCH  25  34
HETATM   34  O   UNL     1     -35.748  37.691 -55.165  1.00  0.00    -0.360 OA
HETATM   35  H   UNL     1     -35.310  36.912 -55.578  1.00  0.00     0.217 HD
ENDBRANCH  25  34
ENDBRANCH   1  24
TORSDOF 6
ENDMDL
MODEL 8
REMARK VINA RESULT:      -7.7      2.480      3.992
REMARK  6 active torsions:
REMARK  status: ('A' for Active; 'I' for Inactive)
REMARK    1  A    between atoms: C_4  and  C_5 
REMARK    2  A    between atoms: C_5  and  N_6 
REMARK    3  A    between atoms: C_5  and  C_20 
REMARK       I    between atoms: N_6  and  C_7 
REMARK    4  A    between atoms: C_7  and  C_8 
REMARK    5  A    between atoms: C_8  and  N_9 
REMARK    6  A    between atoms: C_21  and  O_22 
ROOT
HETATM    1  C   UNL     1     -43.480  56.694 -57.075  1.00  0.00     0.154 C 
ENDROOT
BRANCH   1   2
HETATM    2  C   UNL     1     -44.080  56.346 -58.441  1.00  0.00    -0.031 A 
HETATM    3  C   UNL     1     -44.994  57.189 -59.099  1.00  0.00     0.009 A 
HETATM    4  C   UNL     1     -45.536  56.829 -60.336  1.00  0.00     0.001 A 
HETATM    5  C   UNL     1     -45.192  55.617 -60.929  1.00  0.00     0.000 A 
HETATM    6  C   UNL     1     -44.314  54.755 -60.280  1.00  0.00     0.001 A 
HETATM    7  C   UNL     1     -43.772  55.111 -59.044  1.00  0.00     0.009 A 
ENDBRANCH   1   2
BRANCH   1   8
HETATM    8  N   UNL     1     -43.746  55.707 -56.040  1.00  0.00    -0.347 N 
HETATM    9  C   UNL     1     -42.769  55.321 -55.151  1.00  0.00     0.236 C 
HETATM   10  O   UNL     1     -41.607  55.726 -55.244  1.00  0.00    -0.272 OA
HETATM   11  H   UNL     1     -44.713  55.616 -55.734  1.00  0.00     0.163 HD
BRANCH   9  12
HETATM   12  C   UNL     1     -43.248  54.537 -53.921  1.00  0.00     0.236 C 
BRANCH  12  13
HETATM   13  N   UNL     1     -42.851  55.077 -52.640  1.00  0.00    -0.289 N 
HETATM   14  C   UNL     1     -43.219  56.349 -52.164  1.00  0.00     0.328 A 
HETATM   15  O   UNL     1     -44.074  57.083 -52.632  1.00  0.00    -0.247 OA
HETATM   16  N   UNL     1     -42.427  56.615 -51.043  1.00  0.00    -0.306 N 
HETATM   17  C   UNL     1     -41.537  55.564 -50.865  1.00  0.00     0.063 A 
HETATM   18  H   UNL     1     -42.470  57.470 -50.513  1.00  0.00     0.171 HD
HETATM   19  C   UNL     1     -41.784  54.607 -51.851  1.00  0.00     0.066 A 
HETATM   20  C   UNL     1     -40.531  55.435 -49.933  1.00  0.00     0.032 A 
HETATM   21  C   UNL     1     -41.019  53.464 -51.941  1.00  0.00     0.032 A 
HETATM   22  C   UNL     1     -39.987  53.308 -51.005  1.00  0.00     0.002 A 
HETATM   23  C   UNL     1     -39.746  54.282 -50.014  1.00  0.00     0.002 A 
ENDBRANCH  12  13
ENDBRANCH   9  12
ENDBRANCH   1   8
BRANCH   1  24
HETATM   24  C   UNL     1     -43.837  58.092 -56.548  1.00  0.00     0.013 A 
HETATM   25  C   UNL     1     -44.896  58.215 -55.627  1.00  0.00     0.075 A 
HETATM   26  C   UNL     1     -45.183  59.418 -54.998  1.00  0.00     0.038 A 
HETATM   27  C   UNL     1     -44.450  60.553 -55.316  1.00  0.00     0.015 A 
HETATM   28  C   UNL     1     -43.439  60.505 -56.284  1.00  0.00    -0.025 A 
HETATM   29  C   UNL     1     -43.123  59.278 -56.929  1.00  0.00    -0.015 A 
HETATM   30  C   UNL     1     -42.745  61.683 -56.609  1.00  0.00     0.012 A 
HETATM   31  C   UNL     1     -42.107  59.328 -57.916  1.00  0.00     0.013 A 
HETATM   32  C   UNL     1     -41.431  60.510 -58.237  1.00  0.00     0.001 A 
HETATM   33  C   UNL     1     -41.746  61.687 -57.579  1.00  0.00     0.001 A 
BRANCH  25  34
HETATM   34  O   UNL     1     -45.719  57.169 -55.307  1.00  0.00    -0.360 OA
HETATM   35  H   UNL     1     -46.642  57.436 -55.521  1.00  0.00     0.217 HD
ENDBRANCH  25  34
ENDBRANCH   1  24
TORSDOF 6
ENDMDL
MODEL 9
REMARK VINA RESULT:      -7.6      2.694      7.082
REMARK  6 active torsions:
REMARK  status: ('A' for Active; 'I' for Inactive)
REMARK    1  A    between atoms: C_4  and  C_5 
REMARK    2  A    between atoms: C_5  and  N_6 
REMARK    3  A    between atoms: C_5  and  C_20 
REMARK       I    between atoms: N_6  and  C_7 
REMARK    4  A    between atoms: C_7  and  C_8 
REMARK    5  A    between atoms: C_8  and  N_9 
REMARK    6  A    between atoms: C_21  and  O_22 
ROOT
HETATM    1  C   UNL     1     -42.821  55.754 -55.134  1.00  0.00     0.154 C 
ENDROOT
BRANCH   1   2
HETATM    2  C   UNL     1     -41.865  54.707 -54.557  1.00  0.00    -0.031 A 
HETATM    3  C   UNL     1     -40.764  54.212 -55.278  1.00  0.00     0.009 A 
HETATM    4  C   UNL     1     -39.923  53.241 -54.726  1.00  0.00     0.001 A 
HETATM    5  C   UNL     1     -40.177  52.734 -53.454  1.00  0.00     0.000 A 
HETATM    6  C   UNL     1     -41.279  53.186 -52.736  1.00  0.00     0.001 A 
HETATM    7  C   UNL     1     -42.120  54.155 -53.286  1.00  0.00     0.009 A 
ENDBRANCH   1   2
BRANCH   1   8
HETATM    8  N   UNL     1     -42.378  56.334 -56.393  1.00  0.00    -0.347 N 
HETATM    9  C   UNL     1     -42.843  55.865 -57.601  1.00  0.00     0.236 C 
HETATM   10  O   UNL     1     -43.585  54.881 -57.674  1.00  0.00    -0.272 OA
HETATM   11  H   UNL     1     -42.061  57.301 -56.363  1.00  0.00     0.163 HD
BRANCH   9  12
HETATM   12  C   UNL     1     -42.567  56.753 -58.821  1.00  0.00     0.236 C 
BRANCH  12  13
HETATM   13  N   UNL     1     -43.645  57.634 -59.213  1.00  0.00    -0.289 N 
HETATM   14  C   UNL     1     -43.847  58.924 -58.689  1.00  0.00     0.328 A 
HETATM   15  O   UNL     1     -43.060  59.570 -58.016  1.00  0.00    -0.247 OA
HETATM   16  N   UNL     1     -45.120  59.338 -59.092  1.00  0.00    -0.306 N 
HETATM   17  C   UNL     1     -45.726  58.303 -59.792  1.00  0.00     0.063 A 
HETATM   18  H   UNL     1     -45.531  60.223 -58.841  1.00  0.00     0.171 HD
HETATM   19  C   UNL     1     -44.825  57.238 -59.868  1.00  0.00     0.066 A 
HETATM   20  C   UNL     1     -46.999  58.243 -60.312  1.00  0.00     0.032 A 
HETATM   21  C   UNL     1     -45.175  56.053 -60.480  1.00  0.00     0.032 A 
HETATM   22  C   UNL     1     -46.467  55.966 -61.016  1.00  0.00     0.002 A 
HETATM   23  C   UNL     1     -47.369  57.047 -60.932  1.00  0.00     0.002 A 
ENDBRANCH  12  13
ENDBRANCH   9  12
ENDBRANCH   1   8
BRANCH   1  24
HETATM   24  C   UNL     1     -43.210  56.881 -54.165  1.00  0.00     0.013 A 
HETATM   25  C   UNL     1     -44.577  57.136 -53.943  1.00  0.00     0.075 A 
HETATM   26  C   UNL     1     -45.006  58.036 -52.977  1.00  0.00     0.038 A 
HETATM   27  C   UNL     1     -44.072  58.752 -52.241  1.00  0.00     0.015 A 
HETATM   28  C   UNL     1     -42.700  58.598 -52.478  1.00  0.00    -0.025 A 
HETATM   29  C   UNL     1     -42.243  57.670 -53.455  1.00  0.00    -0.015 A 
HETATM   30  C   UNL     1     -41.786  59.370 -51.742  1.00  0.00     0.012 A 
HETATM   31  C   UNL     1     -40.841  57.601 -53.650  1.00  0.00     0.013 A 
HETATM   32  C   UNL     1     -39.943  58.382 -52.917  1.00  0.00     0.001 A 
HETATM   33  C   UNL     1     -40.415  59.263 -51.958  1.00  0.00     0.001 A 
BRANCH  25  34
HETATM   34  O   UNL     1     -45.567  56.532 -54.670  1.00  0.00    -0.360 OA
HETATM   35  H   UNL     1     -45.413  56.740 -55.620  1.00  0.00     0.217 HD
ENDBRANCH  25  34
ENDBRANCH   1  24
TORSDOF 6
ENDMDL
MODEL 10
REMARK VINA RESULT:      -7.4      1.904      2.267
REMARK  6 active torsions:
REMARK  status: ('A' for Active; 'I' for Inactive)
REMARK    1  A    between atoms: C_4  and  C_5 
REMARK    2  A    between atoms: C_5  and  N_6 
REMARK    3  A    between atoms: C_5  and  C_20 
REMARK       I    between atoms: N_6  and  C_7 
REMARK    4  A    between atoms: C_7  and  C_8 
REMARK    5  A    between atoms: C_8  and  N_9 
REMARK    6  A    between atoms: C_21  and  O_22 
ROOT
HETATM    1  C   UNL     1     -43.069  56.324 -56.535  1.00  0.00     0.154 C 
ENDROOT
BRANCH   1   2
HETATM    2  C   UNL     1     -43.777  56.265 -57.892  1.00  0.00    -0.031 A 
HETATM    3  C   UNL     1     -43.468  55.295 -58.862  1.00  0.00     0.009 A 
HETATM    4  C   UNL     1     -44.122  55.284 -60.098  1.00  0.00     0.001 A 
HETATM    5  C   UNL     1     -45.078  56.251 -60.395  1.00  0.00     0.000 A 
HETATM    6  C   UNL     1     -45.376  57.239 -59.462  1.00  0.00     0.001 A 
HETATM    7  C   UNL     1     -44.724  57.252 -58.228  1.00  0.00     0.009 A 
ENDBRANCH   1   2
BRANCH   1   8
HETATM    8  N   UNL     1     -42.959  55.037 -55.866  1.00  0.00    -0.347 N 
HETATM    9  C   UNL     1     -41.809  54.670 -55.204  1.00  0.00     0.236 C 
HETATM   10  O   UNL     1     -40.796  55.374 -55.221  1.00  0.00    -0.272 OA
HETATM   11  H   UNL     1     -43.829  54.608 -55.556  1.00  0.00     0.163 HD
BRANCH   9  12
HETATM   12  C   UNL     1     -41.925  53.455 -54.274  1.00  0.00     0.236 C 
BRANCH  12  13
HETATM   13  N   UNL     1     -41.055  53.464 -53.119  1.00  0.00    -0.289 N 
HETATM   14  C   UNL     1     -40.096  52.472 -52.839  1.00  0.00     0.328 A 
HETATM   15  O   UNL     1     -39.704  51.602 -53.599  1.00  0.00    -0.247 OA
HETATM   16  N   UNL     1     -39.665  52.676 -51.525  1.00  0.00    -0.306 N 
HETATM   17  C   UNL     1     -40.388  53.726 -50.974  1.00  0.00     0.063 A 
HETATM   18  H   UNL     1     -38.988  52.095 -51.057  1.00  0.00     0.171 HD
HETATM   19  C   UNL     1     -41.258  54.218 -51.949  1.00  0.00     0.066 A 
HETATM   20  C   UNL     1     -40.345  54.222 -49.691  1.00  0.00     0.032 A 
HETATM   21  C   UNL     1     -42.133  55.247 -51.668  1.00  0.00     0.032 A 
HETATM   22  C   UNL     1     -42.110  55.769 -50.368  1.00  0.00     0.002 A 
HETATM   23  C   UNL     1     -41.228  55.262 -49.390  1.00  0.00     0.002 A 
ENDBRANCH  12  13
ENDBRANCH   9  12
ENDBRANCH   1   8
BRANCH   1  24
HETATM   24  C   UNL     1     -43.636  57.360 -55.553  1.00  0.00     0.013 A 
HETATM   25  C   UNL     1     -44.519  56.922 -54.546  1.00  0.00     0.075 A 
HETATM   26  C   UNL     1     -44.957  57.769 -53.538  1.00  0.00     0.038 A 
HETATM   27  C   UNL     1     -44.566  59.101 -53.540  1.00  0.00     0.015 A 
HETATM   28  C   UNL     1     -43.756  59.609 -54.563  1.00  0.00    -0.025 A 
HETATM   29  C   UNL     1     -43.287  58.752 -55.597  1.00  0.00    -0.015 A 
HETATM   30  C   UNL     1     -43.415  60.972 -54.555  1.00  0.00     0.012 A 
HETATM   31  C   UNL     1     -42.498  59.357 -56.607  1.00  0.00     0.013 A 
HETATM   32  C   UNL     1     -42.174  60.717 -56.591  1.00  0.00     0.001 A 
HETATM   33  C   UNL     1     -42.628  61.524 -55.561  1.00  0.00     0.001 A 
BRANCH  25  34
HETATM   34  O   UNL     1     -45.014  55.646 -54.505  1.00  0.00    -0.360 OA
HETATM   35  H   UNL     1     -44.268  55.040 -54.293  1.00  0.00     0.217 HD
ENDBRANCH  25  34
ENDBRANCH   1  24
TORSDOF 6
ENDMDL
