MODEL 1
REMARK VINA RESULT:      -8.3      0.000      0.000
REMARK  6 active torsions:
REMARK  status: ('A' for Active; 'I' for Inactive)
REMARK    1  A    between atoms: C_5  and  C_6 
REMARK    2  A    between atoms: C_6  and  O_7 
REMARK    3  A    between atoms: C_6  and  C_8 
REMARK    4  A    between atoms: C_8  and  N_9 
REMARK       I    between atoms: N_9  and  C_10 
REMARK    5  A    between atoms: C_10  and  C_11 
REMARK    6  A    between atoms: C_11  and  C_12 
ROOT
HETATM    1  N   UNL     1     -41.793  56.868 -54.198  1.00  0.00    -0.358 N 
HETATM    2  C   UNL     1     -42.089  55.788 -55.003  1.00  0.00     0.222 C 
HETATM    3  O   UNL     1     -43.215  55.581 -55.446  1.00  0.00    -0.273 OA
HETATM    4  H   UNL     1     -40.817  57.118 -54.080  1.00  0.00     0.162 HD
ENDROOT
BRANCH   1   5
HETATM    5  C   UNL     1     -42.776  57.929 -53.985  1.00  0.00     0.159 C 
BRANCH   5   6
HETATM    6  C   UNL     1     -43.737  57.657 -52.808  1.00  0.00     0.169 C 
BRANCH   6   7
HETATM    7  C   UNL     1     -43.042  56.876 -51.711  1.00  0.00    -0.028 A 
HETATM    8  C   UNL     1     -43.493  55.619 -51.288  1.00  0.00     0.010 A 
HETATM    9  C   UNL     1     -42.813  54.913 -50.291  1.00  0.00     0.007 A 
HETATM   10  C   UNL     1     -41.670  55.453 -49.692  1.00  0.00    -0.062 A 
HETATM   11  C   UNL     1     -40.919  54.686 -48.645  1.00  0.00     0.048 C 
HETATM   12  C   UNL     1     -41.206  56.701 -50.120  1.00  0.00     0.007 A 
HETATM   13  C   UNL     1     -41.887  57.407 -51.115  1.00  0.00     0.010 A 
ENDBRANCH   6   7
BRANCH   6  14
HETATM   14  O   UNL     1     -44.877  56.940 -53.300  1.00  0.00    -0.389 OA
HETATM   15  H   UNL     1     -45.643  57.363 -52.874  1.00  0.00     0.210 HD
ENDBRANCH   6  14
ENDBRANCH   5   6
ENDBRANCH   1   5
BRANCH   2  16
HETATM   16  C   UNL     1     -40.914  54.881 -55.317  1.00  0.00     0.142 C 
BRANCH  16  17
HETATM   17  C   UNL     1     -40.618  53.850 -54.259  1.00  0.00    -0.031 A 
HETATM   18  C   UNL     1     -40.454  54.164 -52.916  1.00  0.00     0.125 A 
HETATM   19  N   UNL     1     -40.152  53.265 -51.951  1.00  0.00    -0.260 NA
HETATM   20  C   UNL     1     -39.961  51.985 -52.311  1.00  0.00     0.066 A 
HETATM   21  C   UNL     1     -40.076  51.557 -53.648  1.00  0.00    -0.007 A 
HETATM   22  C   UNL     1     -39.633  51.045 -51.344  1.00  0.00     0.032 A 
HETATM   23  C   UNL     1     -40.408  52.515 -54.620  1.00  0.00     0.022 A 
HETATM   24  C   UNL     1     -39.851  50.209 -53.980  1.00  0.00     0.014 A 
HETATM   25  C   UNL     1     -39.517  49.286 -52.990  1.00  0.00     0.001 A 
HETATM   26  C   UNL     1     -39.409  49.704 -51.669  1.00  0.00     0.002 A 
ENDBRANCH  16  17
ENDBRANCH   2  16
TORSDOF 6
ENDMDL
MODEL 2
REMARK VINA RESULT:      -8.2      4.141      6.535
REMARK  6 active torsions:
REMARK  status: ('A' for Active; 'I' for Inactive)
REMARK    1  A    between atoms: C_5  and  C_6 
REMARK    2  A    between atoms: C_6  and  O_7 
REMARK    3  A    between atoms: C_6  and  C_8 
REMARK    4  A    between atoms: C_8  and  N_9 
REMARK       I    between atoms: N_9  and  C_10 
REMARK    5  A    between atoms: C_10  and  C_11 
REMARK    6  A    between atoms: C_11  and  C_12 
ROOT
HETATM    1  N   UNL     1     -42.023  55.727 -56.860  1.00  0.00    -0.358 N 
HETATM    2  C   UNL     1     -41.990  55.003 -55.687  1.00  0.00     0.222 C 
HETATM    3  O   UNL     1     -42.943  54.339 -55.290  1.00  0.00    -0.273 OA
HETATM    4  H   UNL     1     -41.141  56.037 -57.251  1.00  0.00     0.162 HD
ENDROOT
BRANCH   1   5
HETATM    5  C   UNL     1     -43.144  55.585 -57.789  1.00  0.00     0.159 C 
BRANCH   5   6
HETATM    6  C   UNL     1     -43.069  56.540 -59.000  1.00  0.00     0.169 C 
BRANCH   6   7
HETATM    7  C   UNL     1     -44.413  56.640 -59.693  1.00  0.00    -0.028 A 
HETATM    8  C   UNL     1     -45.165  57.822 -59.696  1.00  0.00     0.010 A 
HETATM    9  C   UNL     1     -46.390  57.889 -60.366  1.00  0.00     0.007 A 
HETATM   10  C   UNL     1     -46.891  56.773 -61.044  1.00  0.00    -0.062 A 
HETATM   11  C   UNL     1     -48.188  56.849 -61.792  1.00  0.00     0.048 C 
HETATM   12  C   UNL     1     -46.138  55.595 -61.058  1.00  0.00     0.007 A 
HETATM   13  C   UNL     1     -44.915  55.527 -60.385  1.00  0.00     0.010 A 
ENDBRANCH   6   7
BRANCH   6  14
HETATM   14  O   UNL     1     -42.064  56.062 -59.903  1.00  0.00    -0.389 OA
HETATM   15  H   UNL     1     -41.219  56.232 -59.452  1.00  0.00     0.210 HD
ENDBRANCH   6  14
ENDBRANCH   5   6
ENDBRANCH   1   5
BRANCH   2  16
HETATM   16  C   UNL     1     -40.677  55.074 -54.927  1.00  0.00     0.142 C 
BRANCH  16  17
HETATM   17  C   UNL     1     -40.502  54.007 -53.878  1.00  0.00    -0.031 A 
HETATM   18  C   UNL     1     -40.529  54.270 -52.514  1.00  0.00     0.125 A 
HETATM   19  N   UNL     1     -40.338  53.339 -51.551  1.00  0.00    -0.260 NA
HETATM   20  C   UNL     1     -40.069  52.079 -51.930  1.00  0.00     0.066 A 
HETATM   21  C   UNL     1     -39.991  51.703 -53.285  1.00  0.00    -0.007 A 
HETATM   22  C   UNL     1     -39.851  51.106 -50.963  1.00  0.00     0.032 A 
HETATM   23  C   UNL     1     -40.212  52.692 -54.256  1.00  0.00     0.022 A 
HETATM   24  C   UNL     1     -39.689  50.373 -53.633  1.00  0.00     0.014 A 
HETATM   25  C   UNL     1     -39.469  49.418 -52.642  1.00  0.00     0.001 A 
HETATM   26  C   UNL     1     -39.552  49.785 -51.304  1.00  0.00     0.002 A 
ENDBRANCH  16  17
ENDBRANCH   2  16
TORSDOF 6
ENDMDL
MODEL 3
REMARK VINA RESULT:      -8.2      1.471      1.992
REMARK  6 active torsions:
REMARK  status: ('A' for Active; 'I' for Inactive)
REMARK    1  A    between atoms: C_5  and  C_6 
REMARK    2  A    between atoms: C_6  and  O_7 
REMARK    3  A    between atoms: C_6  and  C_8 
REMARK    4  A    between atoms: C_8  and  N_9 
REMARK       I    between atoms: N_9  and  C_10 
REMARK    5  A    between atoms: C_10  and  C_11 
REMARK    6  A    between atoms: C_11  and  C_12 
ROOT
HETATM    1  N   UNL     1     -42.208  56.446 -55.615  1.00  0.00    -0.358 N 
HETATM    2  C   UNL     1     -42.122  55.071 -55.655  1.00  0.00     0.222 C 
HETATM    3  O   UNL     1     -43.100  54.350 -55.827  1.00  0.00    -0.273 OA
HETATM    4  H   UNL     1     -41.353  56.979 -55.725  1.00  0.00     0.162 HD
ENDROOT
BRANCH   1   5
HETATM    5  C   UNL     1     -43.457  57.124 -55.964  1.00  0.00     0.159 C 
BRANCH   5   6
HETATM    6  C   UNL     1     -44.355  57.435 -54.748  1.00  0.00     0.169 C 
BRANCH   6   7
HETATM    7  C   UNL     1     -43.523  57.871 -53.559  1.00  0.00    -0.028 A 
HETATM    8  C   UNL     1     -43.307  57.037 -52.454  1.00  0.00     0.010 A 
HETATM    9  C   UNL     1     -42.513  57.460 -51.383  1.00  0.00     0.007 A 
HETATM   10  C   UNL     1     -41.923  58.728 -51.394  1.00  0.00    -0.062 A 
HETATM   11  C   UNL     1     -41.045  59.173 -50.264  1.00  0.00     0.048 C 
HETATM   12  C   UNL     1     -42.123  59.559 -52.501  1.00  0.00     0.007 A 
HETATM   13  C   UNL     1     -42.919  59.137 -53.569  1.00  0.00     0.010 A 
ENDBRANCH   6   7
BRANCH   6  14
HETATM   14  O   UNL     1     -45.125  56.268 -54.433  1.00  0.00    -0.389 OA
HETATM   15  H   UNL     1     -44.526  55.704 -53.913  1.00  0.00     0.210 HD
ENDBRANCH   6  14
ENDBRANCH   5   6
ENDBRANCH   1   5
BRANCH   2  16
HETATM   16  C   UNL     1     -40.720  54.512 -55.488  1.00  0.00     0.142 C 
BRANCH  16  17
HETATM   17  C   UNL     1     -40.535  53.637 -54.275  1.00  0.00    -0.031 A 
HETATM   18  C   UNL     1     -40.549  54.128 -52.976  1.00  0.00     0.125 A 
HETATM   19  N   UNL     1     -40.349  53.373 -51.870  1.00  0.00    -0.260 NA
HETATM   20  C   UNL     1     -40.083  52.067 -52.032  1.00  0.00     0.066 A 
HETATM   21  C   UNL     1     -40.017  51.466 -53.305  1.00  0.00    -0.007 A 
HETATM   22  C   UNL     1     -39.856  51.272 -50.917  1.00  0.00     0.032 A 
HETATM   23  C   UNL     1     -40.248  52.277 -54.428  1.00  0.00     0.022 A 
HETATM   24  C   UNL     1     -39.719  50.097 -53.426  1.00  0.00     0.014 A 
HETATM   25  C   UNL     1     -39.489  49.323 -52.289  1.00  0.00     0.001 A 
HETATM   26  C   UNL     1     -39.559  49.911 -51.032  1.00  0.00     0.002 A 
ENDBRANCH  16  17
ENDBRANCH   2  16
TORSDOF 6
ENDMDL
MODEL 4
REMARK VINA RESULT:      -8.1      2.420      6.416
REMARK  6 active torsions:
REMARK  status: ('A' for Active; 'I' for Inactive)
REMARK    1  A    between atoms: C_5  and  C_6 
REMARK    2  A    between atoms: C_6  and  O_7 
REMARK    3  A    between atoms: C_6  and  C_8 
REMARK    4  A    between atoms: C_8  and  N_9 
REMARK       I    between atoms: N_9  and  C_10 
REMARK    5  A    between atoms: C_10  and  C_11 
REMARK    6  A    between atoms: C_11  and  C_12 
ROOT
HETATM    1  N   UNL     1     -39.751  52.641 -51.805  1.00  0.00    -0.358 N 
HETATM    2  C   UNL     1     -40.170  52.435 -50.508  1.00  0.00     0.222 C 
HETATM    3  O   UNL     1     -40.432  51.320 -50.066  1.00  0.00    -0.273 OA
HETATM    4  H   UNL     1     -39.315  53.529 -52.027  1.00  0.00     0.162 HD
ENDROOT
BRANCH   1   5
HETATM    5  C   UNL     1     -39.420  51.509 -52.670  1.00  0.00     0.159 C 
BRANCH   5   6
HETATM    6  C   UNL     1     -39.923  51.668 -54.121  1.00  0.00     0.169 C 
BRANCH   6   7
HETATM    7  C   UNL     1     -40.655  52.983 -54.298  1.00  0.00    -0.028 A 
HETATM    8  C   UNL     1     -41.970  53.171 -53.852  1.00  0.00     0.010 A 
HETATM    9  C   UNL     1     -42.608  54.405 -54.009  1.00  0.00     0.007 A 
HETATM   10  C   UNL     1     -41.947  55.475 -54.620  1.00  0.00    -0.062 A 
HETATM   11  C   UNL     1     -42.615  56.810 -54.761  1.00  0.00     0.048 C 
HETATM   12  C   UNL     1     -40.629  55.297 -55.054  1.00  0.00     0.007 A 
HETATM   13  C   UNL     1     -39.992  54.063 -54.900  1.00  0.00     0.010 A 
ENDBRANCH   6   7
BRANCH   6  14
HETATM   14  O   UNL     1     -40.778  50.561 -54.436  1.00  0.00    -0.389 OA
HETATM   15  H   UNL     1     -40.956  50.645 -55.389  1.00  0.00     0.210 HD
ENDBRANCH   6  14
ENDBRANCH   5   6
ENDBRANCH   1   5
BRANCH   2  16
HETATM   16  C   UNL     1     -40.265  53.689 -49.657  1.00  0.00     0.142 C 
BRANCH  16  17
HETATM   17  C   UNL     1     -41.347  54.649 -50.076  1.00  0.00    -0.031 A 
HETATM   18  C   UNL     1     -42.683  54.286 -50.190  1.00  0.00     0.125 A 
HETATM   19  N   UNL     1     -43.670  55.116 -50.600  1.00  0.00    -0.260 NA
HETATM   20  C   UNL     1     -43.340  56.369 -50.955  1.00  0.00     0.066 A 
HETATM   21  C   UNL     1     -42.013  56.838 -50.905  1.00  0.00    -0.007 A 
HETATM   22  C   UNL     1     -44.329  57.237 -51.396  1.00  0.00     0.032 A 
HETATM   23  C   UNL     1     -41.018  55.954 -50.458  1.00  0.00     0.022 A 
HETATM   24  C   UNL     1     -41.713  58.154 -51.304  1.00  0.00     0.014 A 
HETATM   25  C   UNL     1     -42.725  59.004 -51.747  1.00  0.00     0.001 A 
HETATM   26  C   UNL     1     -44.036  58.545 -51.792  1.00  0.00     0.002 A 
ENDBRANCH  16  17
ENDBRANCH   2  16
TORSDOF 6
ENDMDL
MODEL 5
REMARK VINA RESULT:      -7.9      2.290      4.877
REMARK  6 active torsions:
REMARK  status: ('A' for Active; 'I' for Inactive)
REMARK    1  A    between atoms: C_5  and  C_6 
REMARK    2  A    between atoms: C_6  and  O_7 
REMARK    3  A    between atoms: C_6  and  C_8 
REMARK    4  A    between atoms: C_8  and  N_9 
REMARK       I    between atoms: N_9  and  C_10 
REMARK    5  A    between atoms: C_10  and  C_11 
REMARK    6  A    between atoms: C_11  and  C_12 
ROOT
HETATM    1  N   UNL     1     -41.874  56.800 -52.809  1.00  0.00    -0.358 N 
HETATM    2  C   UNL     1     -42.231  55.905 -51.822  1.00  0.00     0.222 C 
HETATM    3  O   UNL     1     -43.393  55.555 -51.633  1.00  0.00    -0.273 OA
HETATM    4  H   UNL     1     -40.897  56.849 -53.073  1.00  0.00     0.162 HD
ENDROOT
BRANCH   1   5
HETATM    5  C   UNL     1     -42.851  57.236 -53.806  1.00  0.00     0.159 C 
BRANCH   5   6
HETATM    6  C   UNL     1     -43.254  56.129 -54.804  1.00  0.00     0.169 C 
BRANCH   6   7
HETATM    7  C   UNL     1     -42.997  56.568 -56.232  1.00  0.00    -0.028 A 
HETATM    8  C   UNL     1     -42.592  57.870 -56.550  1.00  0.00     0.010 A 
HETATM    9  C   UNL     1     -42.339  58.236 -57.876  1.00  0.00     0.007 A 
HETATM   10  C   UNL     1     -42.491  57.307 -58.911  1.00  0.00    -0.062 A 
HETATM   11  C   UNL     1     -42.189  57.685 -60.330  1.00  0.00     0.048 C 
HETATM   12  C   UNL     1     -42.881  56.001 -58.597  1.00  0.00     0.007 A 
HETATM   13  C   UNL     1     -43.137  55.637 -57.273  1.00  0.00     0.010 A 
ENDBRANCH   6   7
BRANCH   6  14
HETATM   14  O   UNL     1     -44.639  55.814 -54.608  1.00  0.00    -0.389 OA
HETATM   15  H   UNL     1     -45.125  56.515 -55.076  1.00  0.00     0.210 HD
ENDBRANCH   6  14
ENDBRANCH   5   6
ENDBRANCH   1   5
BRANCH   2  16
HETATM   16  C   UNL     1     -41.077  55.369 -50.995  1.00  0.00     0.142 C 
BRANCH  16  17
HETATM   17  C   UNL     1     -40.728  53.928 -51.265  1.00  0.00    -0.031 A 
HETATM   18  C   UNL     1     -40.417  53.020 -50.261  1.00  0.00     0.125 A 
HETATM   19  N   UNL     1     -40.064  51.732 -50.477  1.00  0.00    -0.260 NA
HETATM   20  C   UNL     1     -39.972  51.302 -51.746  1.00  0.00     0.066 A 
HETATM   21  C   UNL     1     -40.239  52.143 -52.845  1.00  0.00    -0.007 A 
HETATM   22  C   UNL     1     -39.596  49.990 -51.998  1.00  0.00     0.032 A 
HETATM   23  C   UNL     1     -40.619  53.468 -52.582  1.00  0.00     0.022 A 
HETATM   24  C   UNL     1     -40.113  51.652 -54.157  1.00  0.00     0.014 A 
HETATM   25  C   UNL     1     -39.728  50.331 -54.382  1.00  0.00     0.001 A 
HETATM   26  C   UNL     1     -39.470  49.498 -53.300  1.00  0.00     0.002 A 
ENDBRANCH  16  17
ENDBRANCH   2  16
TORSDOF 6
ENDMDL
MODEL 6
REMARK VINA RESULT:      -7.9      1.523      2.214
REMARK  6 active torsions:
REMARK  status: ('A' for Active; 'I' for Inactive)
REMARK    1  A    between atoms: C_5  and  C_6 
REMARK    2  A    between atoms: C_6  and  O_7 
REMARK    3  A    between atoms: C_6  and  C_8 
REMARK    4  A    between atoms: C_8  and  N_9 
REMARK       I    between atoms: N_9  and  C_10 
REMARK    5  A    between atoms: C_10  and  C_11 
REMARK    6  A    between atoms: C_11  and  C_12 
ROOT
HETATM    1  N   UNL     1     -43.747  56.369 -54.385  1.00  0.00    -0.358 N 
HETATM    2  C   UNL     1     -42.459  56.528 -54.852  1.00  0.00     0.222 C 
HETATM    3  O   UNL     1     -41.851  57.591 -54.772  1.00  0.00    -0.273 OA
HETATM    4  H   UNL     1     -44.090  55.425 -54.251  1.00  0.00     0.162 HD
ENDROOT
BRANCH   1   5
HETATM    5  C   UNL     1     -44.387  57.422 -53.596  1.00  0.00     0.159 C 
BRANCH   5   6
HETATM    6  C   UNL     1     -44.190  57.262 -52.073  1.00  0.00     0.169 C 
BRANCH   6   7
HETATM    7  C   UNL     1     -42.914  57.942 -51.618  1.00  0.00    -0.028 A 
HETATM    8  C   UNL     1     -42.720  59.324 -51.740  1.00  0.00     0.010 A 
HETATM    9  C   UNL     1     -41.541  59.923 -51.287  1.00  0.00     0.007 A 
HETATM   10  C   UNL     1     -40.529  59.151 -50.708  1.00  0.00    -0.062 A 
HETATM   11  C   UNL     1     -39.276  59.793 -50.191  1.00  0.00     0.048 C 
HETATM   12  C   UNL     1     -40.723  57.772 -50.571  1.00  0.00     0.007 A 
HETATM   13  C   UNL     1     -41.900  57.173 -51.026  1.00  0.00     0.010 A 
ENDBRANCH   6   7
BRANCH   6  14
HETATM   14  O   UNL     1     -44.166  55.865 -51.756  1.00  0.00    -0.389 OA
HETATM   15  H   UNL     1     -43.458  55.769 -51.095  1.00  0.00     0.210 HD
ENDBRANCH   6  14
ENDBRANCH   5   6
ENDBRANCH   1   5
BRANCH   2  16
HETATM   16  C   UNL     1     -41.840  55.282 -55.459  1.00  0.00     0.142 C 
BRANCH  16  17
HETATM   17  C   UNL     1     -41.300  54.297 -54.454  1.00  0.00    -0.031 A 
HETATM   18  C   UNL     1     -40.929  54.654 -53.164  1.00  0.00     0.125 A 
HETATM   19  N   UNL     1     -40.407  53.800 -52.253  1.00  0.00    -0.260 NA
HETATM   20  C   UNL     1     -40.197  52.526 -52.624  1.00  0.00     0.066 A 
HETATM   21  C   UNL     1     -40.510  52.059 -53.915  1.00  0.00    -0.007 A 
HETATM   22  C   UNL     1     -39.647  51.632 -51.716  1.00  0.00     0.032 A 
HETATM   23  C   UNL     1     -41.067  52.970 -54.827  1.00  0.00     0.022 A 
HETATM   24  C   UNL     1     -40.257  50.720 -54.263  1.00  0.00     0.014 A 
HETATM   25  C   UNL     1     -39.698  49.844 -53.333  1.00  0.00     0.001 A 
HETATM   26  C   UNL     1     -39.394  50.301 -52.056  1.00  0.00     0.002 A 
ENDBRANCH  16  17
ENDBRANCH   2  16
TORSDOF 6
ENDMDL
MODEL 7
REMARK VINA RESULT:      -7.8      3.398      5.758
REMARK  6 active torsions:
REMARK  status: ('A' for Active; 'I' for Inactive)
REMARK    1  A    between atoms: C_5  and  C_6 
REMARK    2  A    between atoms: C_6  and  O_7 
REMARK    3  A    between atoms: C_6  and  C_8 
REMARK    4  A    between atoms: C_8  and  N_9 
REMARK       I    between atoms: N_9  and  C_10 
REMARK    5  A    between atoms: C_10  and  C_11 
REMARK    6  A    between atoms: C_11  and  C_12 
ROOT
HETATM    1  N   UNL     1     -42.390  56.961 -54.858  1.00  0.00    -0.358 N 
HETATM    2  C   UNL     1     -42.455  56.030 -53.843  1.00  0.00     0.222 C 
HETATM    3  O   UNL     1     -43.458  55.357 -53.624  1.00  0.00    -0.273 OA
HETATM    4  H   UNL     1     -41.474  57.290 -55.142  1.00  0.00     0.162 HD
ENDROOT
BRANCH   1   5
HETATM    5  C   UNL     1     -43.462  57.057 -55.848  1.00  0.00     0.159 C 
BRANCH   5   6
HETATM    6  C   UNL     1     -42.976  56.906 -57.305  1.00  0.00     0.169 C 
BRANCH   6   7
HETATM    7  C   UNL     1     -44.149  56.793 -58.258  1.00  0.00    -0.028 A 
HETATM    8  C   UNL     1     -45.214  57.704 -58.242  1.00  0.00     0.010 A 
HETATM    9  C   UNL     1     -46.269  57.586 -59.151  1.00  0.00     0.007 A 
HETATM   10  C   UNL     1     -46.284  56.552 -60.093  1.00  0.00    -0.062 A 
HETATM   11  C   UNL     1     -47.397  56.441 -61.091  1.00  0.00     0.048 C 
HETATM   12  C   UNL     1     -45.217  55.648 -60.123  1.00  0.00     0.007 A 
HETATM   13  C   UNL     1     -44.164  55.764 -59.212  1.00  0.00     0.010 A 
ENDBRANCH   6   7
BRANCH   6  14
HETATM   14  O   UNL     1     -42.135  55.749 -57.393  1.00  0.00    -0.389 OA
HETATM   15  H   UNL     1     -41.503  55.841 -56.659  1.00  0.00     0.210 HD
ENDBRANCH   6  14
ENDBRANCH   5   6
ENDBRANCH   1   5
BRANCH   2  16
HETATM   16  C   UNL     1     -41.185  55.885 -53.024  1.00  0.00     0.142 C 
BRANCH  16  17
HETATM   17  C   UNL     1     -40.812  54.463 -52.691  1.00  0.00    -0.031 A 
HETATM   18  C   UNL     1     -40.496  54.042 -51.406  1.00  0.00     0.125 A 
HETATM   19  N   UNL     1     -40.122  52.781 -51.084  1.00  0.00    -0.260 NA
HETATM   20  C   UNL     1     -40.014  51.878 -52.073  1.00  0.00     0.066 A 
HETATM   21  C   UNL     1     -40.285  52.201 -53.417  1.00  0.00    -0.007 A 
HETATM   22  C   UNL     1     -39.616  50.582 -51.774  1.00  0.00     0.032 A 
HETATM   23  C   UNL     1     -40.687  53.514 -53.710  1.00  0.00     0.022 A 
HETATM   24  C   UNL     1     -40.142  51.226 -54.420  1.00  0.00     0.014 A 
HETATM   25  C   UNL     1     -39.735  49.933 -54.094  1.00  0.00     0.001 A 
HETATM   26  C   UNL     1     -39.473  49.610 -52.767  1.00  0.00     0.002 A 
ENDBRANCH  16  17
ENDBRANCH   2  16
TORSDOF 6
ENDMDL
MODEL 8
REMARK VINA RESULT:      -7.8      1.625      3.502
REMARK  6 active torsions:
REMARK  status: ('A' for Active; 'I' for Inactive)
REMARK    1  A    between atoms: C_5  and  C_6 
REMARK    2  A    between atoms: C_6  and  O_7 
REMARK    3  A    between atoms: C_6  and  C_8 
REMARK    4  A    between atoms: C_8  and  N_9 
REMARK       I    between atoms: N_9  and  C_10 
REMARK    5  A    between atoms: C_10  and  C_11 
REMARK    6  A    between atoms: C_11  and  C_12 
ROOT
HETATM    1  N   UNL     1     -42.133  56.036 -55.648  1.00  0.00    -0.358 N 
HETATM    2  C   UNL     1     -42.159  54.675 -55.431  1.00  0.00     0.222 C 
HETATM    3  O   UNL     1     -43.185  54.008 -55.527  1.00  0.00    -0.273 OA
HETATM    4  H   UNL     1     -41.232  56.475 -55.802  1.00  0.00     0.162 HD
ENDROOT
BRANCH   1   5
HETATM    5  C   UNL     1     -43.303  56.726 -56.190  1.00  0.00     0.159 C 
BRANCH   5   6
HETATM    6  C   UNL     1     -44.237  57.307 -55.106  1.00  0.00     0.169 C 
BRANCH   6   7
HETATM    7  C   UNL     1     -43.437  57.901 -53.965  1.00  0.00    -0.028 A 
HETATM    8  C   UNL     1     -42.512  58.935 -54.160  1.00  0.00     0.010 A 
HETATM    9  C   UNL     1     -41.808  59.478 -53.081  1.00  0.00     0.007 A 
HETATM   10  C   UNL     1     -42.011  58.995 -51.785  1.00  0.00    -0.062 A 
HETATM   11  C   UNL     1     -41.283  59.595 -50.620  1.00  0.00     0.048 C 
HETATM   12  C   UNL     1     -42.944  57.972 -51.581  1.00  0.00     0.007 A 
HETATM   13  C   UNL     1     -43.645  57.428 -52.660  1.00  0.00     0.010 A 
ENDBRANCH   6   7
BRANCH   6  14
HETATM   14  O   UNL     1     -45.102  56.266 -54.636  1.00  0.00    -0.389 OA
HETATM   15  H   UNL     1     -45.783  56.721 -54.112  1.00  0.00     0.210 HD
ENDBRANCH   6  14
ENDBRANCH   5   6
ENDBRANCH   1   5
BRANCH   2  16
HETATM   16  C   UNL     1     -40.818  54.056 -55.081  1.00  0.00     0.142 C 
BRANCH  16  17
HETATM   17  C   UNL     1     -40.631  53.751 -53.617  1.00  0.00    -0.031 A 
HETATM   18  C   UNL     1     -40.200  52.517 -53.147  1.00  0.00     0.125 A 
HETATM   19  N   UNL     1     -40.060  52.203 -51.838  1.00  0.00    -0.260 NA
HETATM   20  C   UNL     1     -40.390  53.130 -50.923  1.00  0.00     0.066 A 
HETATM   21  C   UNL     1     -40.863  54.406 -51.285  1.00  0.00    -0.007 A 
HETATM   22  C   UNL     1     -40.272  52.830 -49.573  1.00  0.00     0.032 A 
HETATM   23  C   UNL     1     -40.979  54.702 -52.653  1.00  0.00     0.022 A 
HETATM   24  C   UNL     1     -41.213  55.338 -50.291  1.00  0.00     0.014 A 
HETATM   25  C   UNL     1     -41.090  55.009 -48.942  1.00  0.00     0.001 A 
HETATM   26  C   UNL     1     -40.617  53.752 -48.582  1.00  0.00     0.002 A 
ENDBRANCH  16  17
ENDBRANCH   2  16
TORSDOF 6
ENDMDL
MODEL 9
REMARK VINA RESULT:      -7.7      1.749      4.534
REMARK  6 active torsions:
REMARK  status: ('A' for Active; 'I' for Inactive)
REMARK    1  A    between atoms: C_5  and  C_6 
REMARK    2  A    between atoms: C_6  and  O_7 
REMARK    3  A    between atoms: C_6  and  C_8 
REMARK    4  A    between atoms: C_8  and  N_9 
REMARK       I    between atoms: N_9  and  C_10 
REMARK    5  A    between atoms: C_10  and  C_11 
REMARK    6  A    between atoms: C_11  and  C_12 
ROOT
HETATM    1  N   UNL     1     -42.982  57.602 -54.518  1.00  0.00    -0.358 N 
HETATM    2  C   UNL     1     -44.304  57.605 -54.123  1.00  0.00     0.222 C 
HETATM    3  O   UNL     1     -45.234  57.625 -54.923  1.00  0.00    -0.273 OA
HETATM    4  H   UNL     1     -42.284  57.333 -53.835  1.00  0.00     0.162 HD
ENDROOT
BRANCH   1   5
HETATM    5  C   UNL     1     -42.627  57.433 -55.927  1.00  0.00     0.159 C 
BRANCH   5   6
HETATM    6  C   UNL     1     -42.932  56.023 -56.478  1.00  0.00     0.169 C 
BRANCH   6   7
HETATM    7  C   UNL     1     -42.164  54.965 -55.711  1.00  0.00    -0.028 A 
HETATM    8  C   UNL     1     -42.792  53.841 -55.160  1.00  0.00     0.010 A 
HETATM    9  C   UNL     1     -42.051  52.870 -54.479  1.00  0.00     0.007 A 
HETATM   10  C   UNL     1     -40.667  53.006 -54.331  1.00  0.00    -0.062 A 
HETATM   11  C   UNL     1     -39.863  51.953 -53.631  1.00  0.00     0.048 C 
HETATM   12  C   UNL     1     -40.033  54.120 -54.892  1.00  0.00     0.007 A 
HETATM   13  C   UNL     1     -40.774  55.092 -55.570  1.00  0.00     0.010 A 
ENDBRANCH   6   7
BRANCH   6  14
HETATM   14  O   UNL     1     -42.594  55.990 -57.871  1.00  0.00    -0.389 OA
HETATM   15  H   UNL     1     -41.626  56.081 -57.897  1.00  0.00     0.210 HD
ENDBRANCH   6  14
ENDBRANCH   5   6
ENDBRANCH   1   5
BRANCH   2  16
HETATM   16  C   UNL     1     -44.524  57.565 -52.622  1.00  0.00     0.142 C 
BRANCH  16  17
HETATM   17  C   UNL     1     -43.393  56.949 -51.839  1.00  0.00    -0.031 A 
HETATM   18  C   UNL     1     -42.408  57.699 -51.209  1.00  0.00     0.125 A 
HETATM   19  N   UNL     1     -41.362  57.173 -50.532  1.00  0.00    -0.260 NA
HETATM   20  C   UNL     1     -41.239  55.836 -50.489  1.00  0.00     0.066 A 
HETATM   21  C   UNL     1     -42.164  54.978 -51.115  1.00  0.00    -0.007 A 
HETATM   22  C   UNL     1     -40.165  55.270 -49.816  1.00  0.00     0.032 A 
HETATM   23  C   UNL     1     -43.247  55.559 -51.793  1.00  0.00     0.022 A 
HETATM   24  C   UNL     1     -41.985  53.584 -51.057  1.00  0.00     0.014 A 
HETATM   25  C   UNL     1     -40.894  53.041 -50.379  1.00  0.00     0.001 A 
HETATM   26  C   UNL     1     -39.983  53.885 -49.756  1.00  0.00     0.002 A 
ENDBRANCH  16  17
ENDBRANCH   2  16
TORSDOF 6
ENDMDL
MODEL 10
REMARK VINA RESULT:      -7.5      1.933      4.610
REMARK  6 active torsions:
REMARK  status: ('A' for Active; 'I' for Inactive)
REMARK    1  A    between atoms: C_5  and  C_6 
REMARK    2  A    between atoms: C_6  and  O_7 
REMARK    3  A    between atoms: C_6  and  C_8 
REMARK    4  A    between atoms: C_8  and  N_9 
REMARK       I    between atoms: N_9  and  C_10 
REMARK    5  A    between atoms: C_10  and  C_11 
REMARK    6  A    between atoms: C_11  and  C_12 
ROOT
HETATM    1  N   UNL     1     -42.849  58.097 -52.043  1.00  0.00    -0.358 N 
HETATM    2  C   UNL     1     -43.869  57.170 -52.086  1.00  0.00     0.222 C 
HETATM    3  O   UNL     1     -44.746  57.188 -52.945  1.00  0.00    -0.273 OA
HETATM    4  H   UNL     1     -42.035  57.881 -51.479  1.00  0.00     0.162 HD
ENDROOT
BRANCH   1   5
HETATM    5  C   UNL     1     -42.660  59.045 -53.140  1.00  0.00     0.159 C 
BRANCH   5   6
HETATM    6  C   UNL     1     -41.531  58.647 -54.116  1.00  0.00     0.169 C 
BRANCH   6   7
HETATM    7  C   UNL     1     -42.085  57.876 -55.297  1.00  0.00    -0.028 A 
HETATM    8  C   UNL     1     -42.641  58.517 -56.411  1.00  0.00     0.010 A 
HETATM    9  C   UNL     1     -43.121  57.778 -57.497  1.00  0.00     0.007 A 
HETATM   10  C   UNL     1     -43.058  56.381 -57.488  1.00  0.00    -0.062 A 
HETATM   11  C   UNL     1     -43.540  55.584 -58.663  1.00  0.00     0.048 C 
HETATM   12  C   UNL     1     -42.490  55.735 -56.384  1.00  0.00     0.007 A 
HETATM   13  C   UNL     1     -42.013  56.475 -55.299  1.00  0.00     0.010 A 
ENDBRANCH   6   7
BRANCH   6  14
HETATM   14  O   UNL     1     -40.562  57.865 -53.405  1.00  0.00    -0.389 OA
HETATM   15  H   UNL     1     -40.429  58.334 -52.563  1.00  0.00     0.210 HD
ENDBRANCH   6  14
ENDBRANCH   5   6
ENDBRANCH   1   5
BRANCH   2  16
HETATM   16  C   UNL     1     -43.818  56.110 -51.000  1.00  0.00     0.142 C 
BRANCH  16  17
HETATM   17  C   UNL     1     -42.789  55.033 -51.224  1.00  0.00    -0.031 A 
HETATM   18  C   UNL     1     -41.939  54.574 -50.226  1.00  0.00     0.125 A 
HETATM   19  N   UNL     1     -40.981  53.636 -50.408  1.00  0.00    -0.260 NA
HETATM   20  C   UNL     1     -40.810  53.132 -51.641  1.00  0.00     0.066 A 
HETATM   21  C   UNL     1     -41.597  53.542 -52.735  1.00  0.00    -0.007 A 
HETATM   22  C   UNL     1     -39.824  52.180 -51.860  1.00  0.00     0.032 A 
HETATM   23  C   UNL     1     -42.593  54.505 -52.505  1.00  0.00     0.022 A 
HETATM   24  C   UNL     1     -41.371  52.998 -54.012  1.00  0.00     0.014 A 
HETATM   25  C   UNL     1     -40.369  52.048 -54.206  1.00  0.00     0.001 A 
HETATM   26  C   UNL     1     -39.595  51.637 -53.127  1.00  0.00     0.002 A 
ENDBRANCH  16  17
ENDBRANCH   2  16
TORSDOF 6
ENDMDL
