MODEL 1
REMARK VINA RESULT:      -8.5      0.000      0.000
REMARK  6 active torsions:
REMARK  status: ('A' for Active; 'I' for Inactive)
REMARK    1  A    between atoms: C_9  and  C_10 
REMARK    2  A    between atoms: C_10  and  N_11 
REMARK       I    between atoms: N_11  and  C_12 
REMARK    3  A    between atoms: N_11  and  C_22 
REMARK    4  A    between atoms: C_12  and  C_13 
REMARK    5  A    between atoms: C_16  and  O_17 
REMARK    6  A    between atoms: C_22  and  C_23 
ROOT
HETATM    1  N   UNL     1     -42.306  57.450 -53.466  1.00  0.00    -0.341 N 
HETATM    2  C   UNL     1     -43.087  57.563 -54.619  1.00  0.00     0.254 C 
HETATM    3  O   UNL     1     -44.161  56.983 -54.769  1.00  0.00    -0.267 OA
ENDROOT
BRANCH   1   4
HETATM    4  C   UNL     1     -42.802  56.568 -52.397  1.00  0.00     0.170 C 
BRANCH   4   5
HETATM    5  C   UNL     1     -42.038  55.276 -52.255  1.00  0.00     0.029 A 
HETATM    6  C   UNL     1     -41.464  55.074 -50.884  1.00  0.00     0.253 A 
HETATM    7  N   UNL     1     -40.749  53.929 -50.660  1.00  0.00    -0.322 N 
HETATM    8  O   UNL     1     -41.614  55.900 -49.987  1.00  0.00    -0.268 OA
HETATM    9  C   UNL     1     -40.494  52.969 -51.644  1.00  0.00     0.045 A 
HETATM   10  H   UNL     1     -40.370  53.823 -49.731  1.00  0.00     0.169 HD
HETATM   11  C   UNL     1     -41.014  53.155 -52.928  1.00  0.00    -0.008 A 
HETATM   12  C   UNL     1     -39.717  51.854 -51.340  1.00  0.00     0.031 A 
HETATM   13  C   UNL     1     -40.730  52.214 -53.923  1.00  0.00     0.020 A 
HETATM   14  C   UNL     1     -41.823  54.344 -53.202  1.00  0.00     0.028 A 
HETATM   15  C   UNL     1     -39.926  51.099 -53.640  1.00  0.00    -0.061 A 
HETATM   16  C   UNL     1     -39.623  50.084 -54.703  1.00  0.00     0.048 C 
HETATM   17  C   UNL     1     -39.438  50.919 -52.338  1.00  0.00     0.009 A 
ENDBRANCH   4   5
ENDBRANCH   1   4
BRANCH   1  18
HETATM   18  C   UNL     1     -40.886  57.841 -53.380  1.00  0.00     0.158 C 
BRANCH  18  19
HETATM   19  C   UNL     1     -40.630  59.026 -52.440  1.00  0.00     0.139 C 
HETATM   20  O   UNL     1     -41.846  59.718 -52.108  1.00  0.00    -0.384 OA
HETATM   21  C   UNL     1     -41.757  60.182 -50.753  1.00  0.00     0.168 C 
HETATM   22  C   UNL     1     -40.397  59.772 -50.227  1.00  0.00     0.029 C 
HETATM   23  C   UNL     1     -40.053  58.593 -51.102  1.00  0.00     0.035 C 
ENDBRANCH  18  19
ENDBRANCH   1  18
BRANCH   2  24
HETATM   24  C   UNL     1     -42.636  58.429 -55.733  1.00  0.00     0.032 A 
HETATM   25  C   UNL     1     -42.400  57.841 -56.977  1.00  0.00     0.020 A 
HETATM   26  C   UNL     1     -42.003  58.636 -58.054  1.00  0.00     0.038 A 
HETATM   27  C   UNL     1     -41.854  60.017 -57.903  1.00  0.00     0.068 A 
HETATM   28  C   UNL     1     -42.120  60.605 -56.664  1.00  0.00     0.038 A 
HETATM   29  C   UNL     1     -42.525  59.814 -55.582  1.00  0.00     0.020 A 
BRANCH  27  30
HETATM   30  O   UNL     1     -41.457  60.672 -59.037  1.00  0.00    -0.356 OA
HETATM   31  C   UNL     1     -40.846  61.945 -58.870  1.00  0.00     0.210 C 
ENDBRANCH  27  30
ENDBRANCH   2  24
TORSDOF 6
ENDMDL
MODEL 2
REMARK VINA RESULT:      -8.2      2.956      4.024
REMARK  6 active torsions:
REMARK  status: ('A' for Active; 'I' for Inactive)
REMARK    1  A    between atoms: C_9  and  C_10 
REMARK    2  A    between atoms: C_10  and  N_11 
REMARK       I    between atoms: N_11  and  C_12 
REMARK    3  A    between atoms: N_11  and  C_22 
REMARK    4  A    between atoms: C_12  and  C_13 
REMARK    5  A    between atoms: C_16  and  O_17 
REMARK    6  A    between atoms: C_22  and  C_23 
ROOT
HETATM    1  N   UNL     1     -43.065  56.664 -56.010  1.00  0.00    -0.341 N 
HETATM    2  C   UNL     1     -42.824  57.083 -57.320  1.00  0.00     0.254 C 
HETATM    3  O   UNL     1     -41.801  57.669 -57.667  1.00  0.00    -0.267 OA
ENDROOT
BRANCH   1   4
HETATM    4  C   UNL     1     -42.037  56.970 -55.002  1.00  0.00     0.170 C 
BRANCH   4   5
HETATM    5  C   UNL     1     -41.543  55.771 -54.236  1.00  0.00     0.029 A 
HETATM    6  C   UNL     1     -41.356  56.038 -52.771  1.00  0.00     0.253 A 
HETATM    7  N   UNL     1     -40.904  55.007 -51.993  1.00  0.00    -0.322 N 
HETATM    8  O   UNL     1     -41.587  57.138 -52.276  1.00  0.00    -0.268 OA
HETATM    9  C   UNL     1     -40.573  53.745 -52.494  1.00  0.00     0.045 A 
HETATM   10  H   UNL     1     -40.783  55.217 -51.014  1.00  0.00     0.169 HD
HETATM   11  C   UNL     1     -40.731  53.491 -53.859  1.00  0.00    -0.008 A 
HETATM   12  C   UNL     1     -40.076  52.766 -51.635  1.00  0.00     0.031 A 
HETATM   13  C   UNL     1     -40.366  52.240 -54.368  1.00  0.00     0.020 A 
HETATM   14  C   UNL     1     -41.254  54.549 -54.723  1.00  0.00     0.028 A 
HETATM   15  C   UNL     1     -39.838  51.253 -53.520  1.00  0.00    -0.061 A 
HETATM   16  C   UNL     1     -39.449  49.908 -54.061  1.00  0.00     0.048 C 
HETATM   17  C   UNL     1     -39.713  51.521 -52.149  1.00  0.00     0.009 A 
ENDBRANCH   4   5
ENDBRANCH   1   4
BRANCH   1  18
HETATM   18  C   UNL     1     -44.390  56.274 -55.489  1.00  0.00     0.158 C 
BRANCH  18  19
HETATM   19  C   UNL     1     -45.088  57.382 -54.691  1.00  0.00     0.139 C 
HETATM   20  O   UNL     1     -44.737  57.339 -53.297  1.00  0.00    -0.384 OA
HETATM   21  C   UNL     1     -44.677  58.682 -52.796  1.00  0.00     0.168 C 
HETATM   22  C   UNL     1     -45.033  59.605 -53.943  1.00  0.00     0.029 C 
HETATM   23  C   UNL     1     -44.683  58.773 -55.151  1.00  0.00     0.035 C 
ENDBRANCH  18  19
ENDBRANCH   1  18
BRANCH   2  24
HETATM   24  C   UNL     1     -43.826  56.811 -58.377  1.00  0.00     0.032 A 
HETATM   25  C   UNL     1     -43.723  55.621 -59.101  1.00  0.00     0.020 A 
HETATM   26  C   UNL     1     -44.670  55.323 -60.082  1.00  0.00     0.038 A 
HETATM   27  C   UNL     1     -45.729  56.197 -60.339  1.00  0.00     0.068 A 
HETATM   28  C   UNL     1     -45.846  57.372 -59.593  1.00  0.00     0.038 A 
HETATM   29  C   UNL     1     -44.903  57.674 -58.602  1.00  0.00     0.020 A 
BRANCH  27  30
HETATM   30  O   UNL     1     -46.580  55.783 -61.328  1.00  0.00    -0.356 OA
HETATM   31  C   UNL     1     -47.776  56.529 -61.508  1.00  0.00     0.210 C 
ENDBRANCH  27  30
ENDBRANCH   2  24
TORSDOF 6
ENDMDL
MODEL 3
REMARK VINA RESULT:      -8.2      2.110      3.800
REMARK  6 active torsions:
REMARK  status: ('A' for Active; 'I' for Inactive)
REMARK    1  A    between atoms: C_9  and  C_10 
REMARK    2  A    between atoms: C_10  and  N_11 
REMARK       I    between atoms: N_11  and  C_12 
REMARK    3  A    between atoms: N_11  and  C_22 
REMARK    4  A    between atoms: C_12  and  C_13 
REMARK    5  A    between atoms: C_16  and  O_17 
REMARK    6  A    between atoms: C_22  and  C_23 
ROOT
HETATM    1  N   UNL     1     -41.431  56.750 -50.869  1.00  0.00    -0.341 N 
HETATM    2  C   UNL     1     -40.878  58.013 -51.095  1.00  0.00     0.254 C 
HETATM    3  O   UNL     1     -39.911  58.450 -50.475  1.00  0.00    -0.267 OA
ENDROOT
BRANCH   1   4
HETATM    4  C   UNL     1     -40.823  55.925 -49.814  1.00  0.00     0.170 C 
BRANCH   4   5
HETATM    5  C   UNL     1     -40.616  54.482 -50.196  1.00  0.00     0.029 A 
HETATM    6  C   UNL     1     -40.623  53.550 -49.020  1.00  0.00     0.253 A 
HETATM    7  N   UNL     1     -40.438  52.217 -49.269  1.00  0.00    -0.322 N 
HETATM    8  O   UNL     1     -40.780  53.953 -47.871  1.00  0.00    -0.268 OA
HETATM    9  C   UNL     1     -40.203  51.691 -50.543  1.00  0.00     0.045 A 
HETATM   10  H   UNL     1     -40.441  51.615 -48.460  1.00  0.00     0.169 HD
HETATM   11  C   UNL     1     -40.181  52.554 -51.642  1.00  0.00    -0.008 A 
HETATM   12  C   UNL     1     -39.979  50.325 -50.699  1.00  0.00     0.031 A 
HETATM   13  C   UNL     1     -39.912  52.035 -52.913  1.00  0.00     0.020 A 
HETATM   14  C   UNL     1     -40.420  53.982 -51.431  1.00  0.00     0.028 A 
HETATM   15  C   UNL     1     -39.656  50.664 -53.082  1.00  0.00    -0.061 A 
HETATM   16  C   UNL     1     -39.371  50.103 -54.445  1.00  0.00     0.048 C 
HETATM   17  C   UNL     1     -39.710  49.814 -51.970  1.00  0.00     0.009 A 
ENDBRANCH   4   5
ENDBRANCH   1   4
BRANCH   1  18
HETATM   18  C   UNL     1     -42.767  56.329 -51.335  1.00  0.00     0.158 C 
BRANCH  18  19
HETATM   19  C   UNL     1     -42.851  56.118 -52.852  1.00  0.00     0.139 C 
HETATM   20  O   UNL     1     -43.085  54.739 -53.186  1.00  0.00    -0.384 OA
HETATM   21  C   UNL     1     -43.924  54.683 -54.349  1.00  0.00     0.168 C 
HETATM   22  C   UNL     1     -44.205  56.111 -54.768  1.00  0.00     0.029 C 
HETATM   23  C   UNL     1     -44.012  56.872 -53.480  1.00  0.00     0.035 C 
ENDBRANCH  18  19
ENDBRANCH   1  18
BRANCH   2  24
HETATM   24  C   UNL     1     -41.453  58.894 -52.138  1.00  0.00     0.032 A 
HETATM   25  C   UNL     1     -42.432  59.817 -51.764  1.00  0.00     0.020 A 
HETATM   26  C   UNL     1     -42.971  60.680 -52.719  1.00  0.00     0.038 A 
HETATM   27  C   UNL     1     -42.531  60.641 -54.044  1.00  0.00     0.068 A 
HETATM   28  C   UNL     1     -41.530  59.737 -54.409  1.00  0.00     0.038 A 
HETATM   29  C   UNL     1     -40.981  58.872 -53.454  1.00  0.00     0.020 A 
BRANCH  27  30
HETATM   30  O   UNL     1     -43.146  61.539 -54.873  1.00  0.00    -0.356 OA
HETATM   31  C   UNL     1     -42.946  61.374 -56.271  1.00  0.00     0.210 C 
ENDBRANCH  27  30
ENDBRANCH   2  24
TORSDOF 6
ENDMDL
MODEL 4
REMARK VINA RESULT:      -8.1      1.849      2.594
REMARK  6 active torsions:
REMARK  status: ('A' for Active; 'I' for Inactive)
REMARK    1  A    between atoms: C_9  and  C_10 
REMARK    2  A    between atoms: C_10  and  N_11 
REMARK       I    between atoms: N_11  and  C_12 
REMARK    3  A    between atoms: N_11  and  C_22 
REMARK    4  A    between atoms: C_12  and  C_13 
REMARK    5  A    between atoms: C_16  and  O_17 
REMARK    6  A    between atoms: C_22  and  C_23 
ROOT
HETATM    1  N   UNL     1     -42.300  57.046 -52.712  1.00  0.00    -0.341 N 
HETATM    2  C   UNL     1     -41.468  57.609 -53.683  1.00  0.00     0.254 C 
HETATM    3  O   UNL     1     -40.253  57.737 -53.542  1.00  0.00    -0.267 OA
ENDROOT
BRANCH   1   4
HETATM    4  C   UNL     1     -41.674  56.612 -51.454  1.00  0.00     0.170 C 
BRANCH   4   5
HETATM    5  C   UNL     1     -41.229  55.172 -51.446  1.00  0.00     0.029 A 
HETATM    6  C   UNL     1     -41.013  54.625 -50.066  1.00  0.00     0.253 A 
HETATM    7  N   UNL     1     -40.603  53.324 -49.959  1.00  0.00    -0.322 N 
HETATM    8  O   UNL     1     -41.186  55.308 -49.061  1.00  0.00    -0.268 OA
HETATM    9  C   UNL     1     -40.338  52.501 -51.058  1.00  0.00     0.045 A 
HETATM   10  H   UNL     1     -40.460  52.985 -49.020  1.00  0.00     0.169 HD
HETATM   11  C   UNL     1     -40.523  53.007 -52.347  1.00  0.00    -0.008 A 
HETATM   12  C   UNL     1     -39.879  51.201 -50.857  1.00  0.00     0.031 A 
HETATM   13  C   UNL     1     -40.224  52.197 -53.448  1.00  0.00     0.020 A 
HETATM   14  C   UNL     1     -41.004  54.379 -52.511  1.00  0.00     0.028 A 
HETATM   15  C   UNL     1     -39.734  50.895 -53.262  1.00  0.00    -0.061 A 
HETATM   16  C   UNL     1     -39.417  50.021 -54.440  1.00  0.00     0.048 C 
HETATM   17  C   UNL     1     -39.582  50.399 -51.959  1.00  0.00     0.009 A 
ENDBRANCH   4   5
ENDBRANCH   1   4
BRANCH   1  18
HETATM   18  C   UNL     1     -43.770  57.182 -52.694  1.00  0.00     0.158 C 
BRANCH  18  19
HETATM   19  C   UNL     1     -44.261  58.478 -52.037  1.00  0.00     0.139 C 
HETATM   20  O   UNL     1     -44.857  59.370 -52.995  1.00  0.00    -0.384 OA
HETATM   21  C   UNL     1     -45.944  60.063 -52.363  1.00  0.00     0.168 C 
HETATM   22  C   UNL     1     -46.005  59.586 -50.927  1.00  0.00     0.029 C 
HETATM   23  C   UNL     1     -45.350  58.230 -51.006  1.00  0.00     0.035 C 
ENDBRANCH  18  19
ENDBRANCH   1  18
BRANCH   2  24
HETATM   24  C   UNL     1     -42.042  58.073 -54.967  1.00  0.00     0.032 A 
HETATM   25  C   UNL     1     -42.165  59.448 -55.182  1.00  0.00     0.020 A 
HETATM   26  C   UNL     1     -42.674  59.916 -56.394  1.00  0.00     0.038 A 
HETATM   27  C   UNL     1     -43.050  59.024 -57.402  1.00  0.00     0.068 A 
HETATM   28  C   UNL     1     -42.898  57.651 -57.195  1.00  0.00     0.038 A 
HETATM   29  C   UNL     1     -42.381  57.175 -55.983  1.00  0.00     0.020 A 
BRANCH  27  30
HETATM   30  O   UNL     1     -43.536  59.618 -58.534  1.00  0.00    -0.356 OA
HETATM   31  C   UNL     1     -43.766  58.781 -59.659  1.00  0.00     0.210 C 
ENDBRANCH  27  30
ENDBRANCH   2  24
TORSDOF 6
ENDMDL
MODEL 5
REMARK VINA RESULT:      -8.0      1.919      7.907
REMARK  6 active torsions:
REMARK  status: ('A' for Active; 'I' for Inactive)
REMARK    1  A    between atoms: C_9  and  C_10 
REMARK    2  A    between atoms: C_10  and  N_11 
REMARK       I    between atoms: N_11  and  C_12 
REMARK    3  A    between atoms: N_11  and  C_22 
REMARK    4  A    between atoms: C_12  and  C_13 
REMARK    5  A    between atoms: C_16  and  O_17 
REMARK    6  A    between atoms: C_22  and  C_23 
ROOT
HETATM    1  N   UNL     1     -42.370  56.111 -54.481  1.00  0.00    -0.341 N 
HETATM    2  C   UNL     1     -42.734  54.800 -54.165  1.00  0.00     0.254 C 
HETATM    3  O   UNL     1     -43.874  54.362 -54.304  1.00  0.00    -0.267 OA
ENDROOT
BRANCH   1   4
HETATM    4  C   UNL     1     -43.426  57.004 -54.983  1.00  0.00     0.170 C 
BRANCH   4   5
HETATM    5  C   UNL     1     -43.041  57.795 -56.206  1.00  0.00     0.029 A 
HETATM    6  C   UNL     1     -43.125  57.002 -57.476  1.00  0.00     0.253 A 
HETATM    7  N   UNL     1     -42.788  57.637 -58.641  1.00  0.00    -0.322 N 
HETATM    8  O   UNL     1     -43.472  55.824 -57.487  1.00  0.00    -0.268 OA
HETATM    9  C   UNL     1     -42.337  58.958 -58.702  1.00  0.00     0.045 A 
HETATM   10  H   UNL     1     -42.848  57.077 -59.479  1.00  0.00     0.169 HD
HETATM   11  C   UNL     1     -42.243  59.701 -57.522  1.00  0.00    -0.008 A 
HETATM   12  C   UNL     1     -41.972  59.511 -59.928  1.00  0.00     0.031 A 
HETATM   13  C   UNL     1     -41.757  61.012 -57.576  1.00  0.00     0.020 A 
HETATM   14  C   UNL     1     -42.635  59.078 -56.257  1.00  0.00     0.028 A 
HETATM   15  C   UNL     1     -41.359  61.573 -58.800  1.00  0.00    -0.061 A 
HETATM   16  C   UNL     1     -40.842  62.981 -58.863  1.00  0.00     0.048 C 
HETATM   17  C   UNL     1     -41.488  60.819 -59.975  1.00  0.00     0.009 A 
ENDBRANCH   4   5
ENDBRANCH   1   4
BRANCH   1  18
HETATM   18  C   UNL     1     -41.129  56.765 -54.021  1.00  0.00     0.158 C 
BRANCH  18  19
HETATM   19  C   UNL     1     -41.353  57.794 -52.906  1.00  0.00     0.139 C 
HETATM   20  O   UNL     1     -41.426  57.171 -51.612  1.00  0.00    -0.384 OA
HETATM   21  C   UNL     1     -40.829  58.047 -50.645  1.00  0.00     0.168 C 
HETATM   22  C   UNL     1     -40.382  59.292 -51.383  1.00  0.00     0.029 C 
HETATM   23  C   UNL     1     -40.208  58.788 -52.794  1.00  0.00     0.035 C 
ENDBRANCH  18  19
ENDBRANCH   1  18
BRANCH   2  24
HETATM   24  C   UNL     1     -41.716  53.856 -53.648  1.00  0.00     0.032 A 
HETATM   25  C   UNL     1     -41.574  53.725 -52.264  1.00  0.00     0.020 A 
HETATM   26  C   UNL     1     -40.644  52.822 -51.747  1.00  0.00     0.038 A 
HETATM   27  C   UNL     1     -39.863  52.037 -52.598  1.00  0.00     0.068 A 
HETATM   28  C   UNL     1     -40.029  52.149 -53.980  1.00  0.00     0.038 A 
HETATM   29  C   UNL     1     -40.965  53.049 -54.506  1.00  0.00     0.020 A 
BRANCH  27  30
HETATM   30  O   UNL     1     -38.992  51.199 -51.957  1.00  0.00    -0.356 OA
HETATM   31  C   UNL     1     -39.554  50.163 -51.163  1.00  0.00     0.210 C 
ENDBRANCH  27  30
ENDBRANCH   2  24
TORSDOF 6
ENDMDL
MODEL 6
REMARK VINA RESULT:      -8.0      1.920      2.369
REMARK  6 active torsions:
REMARK  status: ('A' for Active; 'I' for Inactive)
REMARK    1  A    between atoms: C_9  and  C_10 
REMARK    2  A    between atoms: C_10  and  N_11 
REMARK       I    between atoms: N_11  and  C_12 
REMARK    3  A    between atoms: N_11  and  C_22 
REMARK    4  A    between atoms: C_12  and  C_13 
REMARK    5  A    between atoms: C_16  and  O_17 
REMARK    6  A    between atoms: C_22  and  C_23 
ROOT
HETATM    1  N   UNL     1     -42.682  57.123 -53.963  1.00  0.00    -0.341 N 
HETATM    2  C   UNL     1     -43.662  56.595 -54.808  1.00  0.00     0.254 C 
HETATM    3  O   UNL     1     -44.500  55.774 -54.442  1.00  0.00    -0.267 OA
ENDROOT
BRANCH   1   4
HETATM    4  C   UNL     1     -42.656  56.640 -52.573  1.00  0.00     0.170 C 
BRANCH   4   5
HETATM    5  C   UNL     1     -41.904  55.349 -52.379  1.00  0.00     0.029 A 
HETATM    6  C   UNL     1     -41.291  55.218 -51.016  1.00  0.00     0.253 A 
HETATM    7  N   UNL     1     -40.583  54.078 -50.748  1.00  0.00    -0.322 N 
HETATM    8  O   UNL     1     -41.404  56.096 -50.165  1.00  0.00    -0.268 OA
HETATM    9  C   UNL     1     -40.370  53.060 -51.682  1.00  0.00     0.045 A 
HETATM   10  H   UNL     1     -40.177  54.020 -49.826  1.00  0.00     0.169 HD
HETATM   11  C   UNL     1     -40.925  53.179 -52.959  1.00  0.00    -0.008 A 
HETATM   12  C   UNL     1     -39.596  51.953 -51.338  1.00  0.00     0.031 A 
HETATM   13  C   UNL     1     -40.683  52.179 -53.906  1.00  0.00     0.020 A 
HETATM   14  C   UNL     1     -41.729  54.361 -53.277  1.00  0.00     0.028 A 
HETATM   15  C   UNL     1     -39.883  51.071 -53.582  1.00  0.00    -0.061 A 
HETATM   16  C   UNL     1     -39.625  49.993 -54.594  1.00  0.00     0.048 C 
HETATM   17  C   UNL     1     -39.358  50.959 -52.287  1.00  0.00     0.009 A 
ENDBRANCH   4   5
ENDBRANCH   1   4
BRANCH   1  18
HETATM   18  C   UNL     1     -41.474  57.832 -54.428  1.00  0.00     0.158 C 
BRANCH  18  19
HETATM   19  C   UNL     1     -41.615  59.359 -54.423  1.00  0.00     0.139 C 
HETATM   20  O   UNL     1     -41.682  59.893 -55.757  1.00  0.00    -0.384 OA
HETATM   21  C   UNL     1     -42.571  61.020 -55.758  1.00  0.00     0.168 C 
HETATM   22  C   UNL     1     -43.063  61.204 -54.337  1.00  0.00     0.029 C 
HETATM   23  C   UNL     1     -42.900  59.822 -53.756  1.00  0.00     0.035 C 
ENDBRANCH  18  19
ENDBRANCH   1  18
BRANCH   2  24
HETATM   24  C   UNL     1     -43.733  57.036 -56.220  1.00  0.00     0.032 A 
HETATM   25  C   UNL     1     -43.011  56.319 -57.177  1.00  0.00     0.020 A 
HETATM   26  C   UNL     1     -43.083  56.693 -58.520  1.00  0.00     0.038 A 
HETATM   27  C   UNL     1     -43.879  57.769 -58.920  1.00  0.00     0.068 A 
HETATM   28  C   UNL     1     -44.623  58.465 -57.964  1.00  0.00     0.038 A 
HETATM   29  C   UNL     1     -44.560  58.091 -56.615  1.00  0.00     0.020 A 
BRANCH  27  30
HETATM   30  O   UNL     1     -43.853  58.026 -60.263  1.00  0.00    -0.356 OA
HETATM   31  C   UNL     1     -43.897  59.389 -60.663  1.00  0.00     0.210 C 
ENDBRANCH  27  30
ENDBRANCH   2  24
TORSDOF 6
ENDMDL
MODEL 7
REMARK VINA RESULT:      -7.7     16.022     18.177
REMARK  6 active torsions:
REMARK  status: ('A' for Active; 'I' for Inactive)
REMARK    1  A    between atoms: C_9  and  C_10 
REMARK    2  A    between atoms: C_10  and  N_11 
REMARK       I    between atoms: N_11  and  C_12 
REMARK    3  A    between atoms: N_11  and  C_22 
REMARK    4  A    between atoms: C_12  and  C_13 
REMARK    5  A    between atoms: C_16  and  O_17 
REMARK    6  A    between atoms: C_22  and  C_23 
ROOT
HETATM    1  N   UNL     1     -34.599  41.245 -53.227  1.00  0.00    -0.341 N 
HETATM    2  C   UNL     1     -35.766  41.923 -53.587  1.00  0.00     0.254 C 
HETATM    3  O   UNL     1     -36.342  42.720 -52.850  1.00  0.00    -0.267 OA
ENDROOT
BRANCH   1   4
HETATM    4  C   UNL     1     -34.061  41.495 -51.880  1.00  0.00     0.170 C 
BRANCH   4   5
HETATM    5  C   UNL     1     -34.513  40.505 -50.837  1.00  0.00     0.029 A 
HETATM    6  C   UNL     1     -33.392  39.676 -50.282  1.00  0.00     0.253 A 
HETATM    7  N   UNL     1     -33.708  38.745 -49.330  1.00  0.00    -0.322 N 
HETATM    8  O   UNL     1     -32.233  39.811 -50.661  1.00  0.00    -0.268 OA
HETATM    9  C   UNL     1     -35.010  38.501 -48.885  1.00  0.00     0.045 A 
HETATM   10  H   UNL     1     -32.936  38.198 -48.978  1.00  0.00     0.169 HD
HETATM   11  C   UNL     1     -36.062  39.259 -49.407  1.00  0.00    -0.008 A 
HETATM   12  C   UNL     1     -35.246  37.499 -47.944  1.00  0.00     0.031 A 
HETATM   13  C   UNL     1     -37.370  38.991 -48.989  1.00  0.00     0.020 A 
HETATM   14  C   UNL     1     -35.767  40.298 -50.394  1.00  0.00     0.028 A 
HETATM   15  C   UNL     1     -37.626  37.968 -48.063  1.00  0.00    -0.061 A 
HETATM   16  C   UNL     1     -39.028  37.681 -47.609  1.00  0.00     0.048 C 
HETATM   17  C   UNL     1     -36.553  37.238 -47.533  1.00  0.00     0.009 A 
ENDBRANCH   4   5
ENDBRANCH   1   4
BRANCH   1  18
HETATM   18  C   UNL     1     -34.078  40.054 -53.924  1.00  0.00     0.158 C 
BRANCH  18  19
HETATM   19  C   UNL     1     -32.747  40.297 -54.648  1.00  0.00     0.139 C 
HETATM   20  O   UNL     1     -31.728  39.381 -54.214  1.00  0.00    -0.384 OA
HETATM   21  C   UNL     1     -30.890  39.059 -55.334  1.00  0.00     0.168 C 
HETATM   22  C   UNL     1     -31.412  39.841 -56.522  1.00  0.00     0.029 C 
HETATM   23  C   UNL     1     -32.853  40.077 -56.148  1.00  0.00     0.035 C 
ENDBRANCH  18  19
ENDBRANCH   1  18
BRANCH   2  24
HETATM   24  C   UNL     1     -36.361  41.706 -54.926  1.00  0.00     0.032 A 
HETATM   25  C   UNL     1     -35.754  42.311 -56.029  1.00  0.00     0.020 A 
HETATM   26  C   UNL     1     -36.274  42.100 -57.308  1.00  0.00     0.038 A 
HETATM   27  C   UNL     1     -37.387  41.278 -57.498  1.00  0.00     0.068 A 
HETATM   28  C   UNL     1     -37.973  40.650 -56.396  1.00  0.00     0.038 A 
HETATM   29  C   UNL     1     -37.452  40.852 -55.111  1.00  0.00     0.020 A 
BRANCH  27  30
HETATM   30  O   UNL     1     -37.792  41.163 -58.799  1.00  0.00    -0.356 OA
HETATM   31  C   UNL     1     -37.255  42.093 -59.730  1.00  0.00     0.210 C 
ENDBRANCH  27  30
ENDBRANCH   2  24
TORSDOF 6
ENDMDL
MODEL 8
REMARK VINA RESULT:      -7.6      2.269      4.663
REMARK  6 active torsions:
REMARK  status: ('A' for Active; 'I' for Inactive)
REMARK    1  A    between atoms: C_9  and  C_10 
REMARK    2  A    between atoms: C_10  and  N_11 
REMARK       I    between atoms: N_11  and  C_12 
REMARK    3  A    between atoms: N_11  and  C_22 
REMARK    4  A    between atoms: C_12  and  C_13 
REMARK    5  A    between atoms: C_16  and  O_17 
REMARK    6  A    between atoms: C_22  and  C_23 
ROOT
HETATM    1  N   UNL     1     -43.371  57.704 -56.577  1.00  0.00    -0.341 N 
HETATM    2  C   UNL     1     -43.572  59.086 -56.571  1.00  0.00     0.254 C 
HETATM    3  O   UNL     1     -44.274  59.665 -55.744  1.00  0.00    -0.267 OA
ENDROOT
BRANCH   1   4
HETATM    4  C   UNL     1     -44.063  56.915 -55.545  1.00  0.00     0.170 C 
BRANCH   4   5
HETATM    5  C   UNL     1     -43.165  55.992 -54.764  1.00  0.00     0.029 A 
HETATM    6  C   UNL     1     -42.647  56.602 -53.494  1.00  0.00     0.253 A 
HETATM    7  N   UNL     1     -41.818  55.838 -52.718  1.00  0.00    -0.322 N 
HETATM    8  O   UNL     1     -42.941  57.744 -53.154  1.00  0.00    -0.268 OA
HETATM    9  C   UNL     1     -41.400  54.550 -53.065  1.00  0.00     0.045 A 
HETATM   10  H   UNL     1     -41.480  56.275 -51.874  1.00  0.00     0.169 HD
HETATM   11  C   UNL     1     -41.866  53.979 -54.252  1.00  0.00    -0.008 A 
HETATM   12  C   UNL     1     -40.517  53.860 -52.237  1.00  0.00     0.031 A 
HETATM   13  C   UNL     1     -41.422  52.704 -54.618  1.00  0.00     0.020 A 
HETATM   14  C   UNL     1     -42.792  54.741 -55.092  1.00  0.00     0.028 A 
HETATM   15  C   UNL     1     -40.510  52.008 -53.808  1.00  0.00    -0.061 A 
HETATM   16  C   UNL     1     -40.034  50.638 -54.195  1.00  0.00     0.048 C 
HETATM   17  C   UNL     1     -40.077  52.589 -52.608  1.00  0.00     0.009 A 
ENDBRANCH   4   5
ENDBRANCH   1   4
BRANCH   1  18
HETATM   18  C   UNL     1     -42.832  56.945 -57.722  1.00  0.00     0.158 C 
BRANCH  18  19
HETATM   19  C   UNL     1     -43.892  56.136 -58.479  1.00  0.00     0.139 C 
HETATM   20  O   UNL     1     -44.978  56.965 -58.928  1.00  0.00    -0.384 OA
HETATM   21  C   UNL     1     -45.440  56.474 -60.194  1.00  0.00     0.168 C 
HETATM   22  C   UNL     1     -44.604  55.257 -60.535  1.00  0.00     0.029 C 
HETATM   23  C   UNL     1     -43.343  55.498 -59.745  1.00  0.00     0.035 C 
ENDBRANCH  18  19
ENDBRANCH   1  18
BRANCH   2  24
HETATM   24  C   UNL     1     -42.910  59.932 -57.591  1.00  0.00     0.032 A 
HETATM   25  C   UNL     1     -43.597  60.206 -58.775  1.00  0.00     0.020 A 
HETATM   26  C   UNL     1     -43.010  61.024 -59.742  1.00  0.00     0.038 A 
HETATM   27  C   UNL     1     -41.748  61.585 -59.531  1.00  0.00     0.068 A 
HETATM   28  C   UNL     1     -41.077  61.333 -58.332  1.00  0.00     0.038 A 
HETATM   29  C   UNL     1     -41.662  60.517 -57.356  1.00  0.00     0.020 A 
BRANCH  27  30
HETATM   30  O   UNL     1     -41.293  62.362 -60.561  1.00  0.00    -0.356 OA
HETATM   31  C   UNL     1     -40.038  63.004 -60.383  1.00  0.00     0.210 C 
ENDBRANCH  27  30
ENDBRANCH   2  24
TORSDOF 6
ENDMDL
MODEL 9
REMARK VINA RESULT:      -7.5      2.750      3.385
REMARK  6 active torsions:
REMARK  status: ('A' for Active; 'I' for Inactive)
REMARK    1  A    between atoms: C_9  and  C_10 
REMARK    2  A    between atoms: C_10  and  N_11 
REMARK       I    between atoms: N_11  and  C_12 
REMARK    3  A    between atoms: N_11  and  C_22 
REMARK    4  A    between atoms: C_12  and  C_13 
REMARK    5  A    between atoms: C_16  and  O_17 
REMARK    6  A    between atoms: C_22  and  C_23 
ROOT
HETATM    1  N   UNL     1     -42.882  57.695 -54.973  1.00  0.00    -0.341 N 
HETATM    2  C   UNL     1     -42.849  58.280 -56.241  1.00  0.00     0.254 C 
HETATM    3  O   UNL     1     -41.826  58.732 -56.751  1.00  0.00    -0.267 OA
ENDROOT
BRANCH   1   4
HETATM    4  C   UNL     1     -41.621  57.649 -54.217  1.00  0.00     0.170 C 
BRANCH   4   5
HETATM    5  C   UNL     1     -41.276  56.288 -53.667  1.00  0.00     0.029 A 
HETATM    6  C   UNL     1     -41.175  56.261 -52.171  1.00  0.00     0.253 A 
HETATM    7  N   UNL     1     -40.861  55.067 -51.580  1.00  0.00    -0.322 N 
HETATM    8  O   UNL     1     -41.356  57.265 -51.488  1.00  0.00    -0.268 OA
HETATM    9  C   UNL     1     -40.592  53.895 -52.294  1.00  0.00     0.045 A 
HETATM   10  H   UNL     1     -40.794  55.079 -50.574  1.00  0.00     0.169 HD
HETATM   11  C   UNL     1     -40.671  53.915 -53.689  1.00  0.00    -0.008 A 
HETATM   12  C   UNL     1     -40.235  52.734 -51.612  1.00  0.00     0.031 A 
HETATM   13  C   UNL     1     -40.368  52.753 -54.407  1.00  0.00     0.020 A 
HETATM   14  C   UNL     1     -41.048  55.158 -54.363  1.00  0.00     0.028 A 
HETATM   15  C   UNL     1     -39.980  51.583 -53.736  1.00  0.00    -0.061 A 
HETATM   16  C   UNL     1     -39.658  50.332 -54.502  1.00  0.00     0.048 C 
HETATM   17  C   UNL     1     -39.934  51.578 -52.335  1.00  0.00     0.009 A 
ENDBRANCH   4   5
ENDBRANCH   1   4
BRANCH   1  18
HETATM   18  C   UNL     1     -44.115  57.456 -54.196  1.00  0.00     0.158 C 
BRANCH  18  19
HETATM   19  C   UNL     1     -44.283  58.402 -53.001  1.00  0.00     0.139 C 
HETATM   20  O   UNL     1     -45.217  59.458 -53.284  1.00  0.00    -0.384 OA
HETATM   21  C   UNL     1     -45.942  59.765 -52.084  1.00  0.00     0.168 C 
HETATM   22  C   UNL     1     -45.407  58.860 -50.993  1.00  0.00     0.029 C 
HETATM   23  C   UNL     1     -44.850  57.699 -51.779  1.00  0.00     0.035 C 
ENDBRANCH  18  19
ENDBRANCH   1  18
BRANCH   2  24
HETATM   24  C   UNL     1     -44.089  58.364 -57.046  1.00  0.00     0.032 A 
HETATM   25  C   UNL     1     -44.891  59.500 -56.915  1.00  0.00     0.020 A 
HETATM   26  C   UNL     1     -46.050  59.622 -57.683  1.00  0.00     0.038 A 
HETATM   27  C   UNL     1     -46.410  58.624 -58.593  1.00  0.00     0.068 A 
HETATM   28  C   UNL     1     -45.590  57.504 -58.743  1.00  0.00     0.038 A 
HETATM   29  C   UNL     1     -44.422  57.379 -57.980  1.00  0.00     0.020 A 
BRANCH  27  30
HETATM   30  O   UNL     1     -47.570  58.870 -59.276  1.00  0.00    -0.356 OA
HETATM   31  C   UNL     1     -48.023  60.217 -59.320  1.00  0.00     0.210 C 
ENDBRANCH  27  30
ENDBRANCH   2  24
TORSDOF 6
ENDMDL
MODEL 10
REMARK VINA RESULT:      -7.2     15.880     18.033
REMARK  6 active torsions:
REMARK  status: ('A' for Active; 'I' for Inactive)
REMARK    1  A    between atoms: C_9  and  C_10 
REMARK    2  A    between atoms: C_10  and  N_11 
REMARK       I    between atoms: N_11  and  C_12 
REMARK    3  A    between atoms: N_11  and  C_22 
REMARK    4  A    between atoms: C_12  and  C_13 
REMARK    5  A    between atoms: C_16  and  O_17 
REMARK    6  A    between atoms: C_22  and  C_23 
ROOT
HETATM    1  N   UNL     1     -36.053  41.470 -55.289  1.00  0.00    -0.341 N 
HETATM    2  C   UNL     1     -37.128  41.793 -56.120  1.00  0.00     0.254 C 
HETATM    3  O   UNL     1     -37.949  42.668 -55.855  1.00  0.00    -0.267 OA
ENDROOT
BRANCH   1   4
HETATM    4  C   UNL     1     -35.928  42.213 -54.025  1.00  0.00     0.170 C 
BRANCH   4   5
HETATM    5  C   UNL     1     -35.616  41.353 -52.827  1.00  0.00     0.029 A 
HETATM    6  C   UNL     1     -36.803  40.588 -52.320  1.00  0.00     0.253 A 
HETATM    7  N   UNL     1     -36.617  39.782 -51.231  1.00  0.00    -0.322 N 
HETATM    8  O   UNL     1     -37.908  40.679 -52.847  1.00  0.00    -0.268 OA
HETATM    9  C   UNL     1     -35.402  39.667 -50.549  1.00  0.00     0.045 A 
HETATM   10  H   UNL     1     -37.434  39.285 -50.908  1.00  0.00     0.169 HD
HETATM   11  C   UNL     1     -34.294  40.386 -51.006  1.00  0.00    -0.008 A 
HETATM   12  C   UNL     1     -35.314  38.856 -49.419  1.00  0.00     0.031 A 
HETATM   13  C   UNL     1     -33.087  40.300 -50.304  1.00  0.00     0.020 A 
HETATM   14  C   UNL     1     -34.434  41.227 -52.196  1.00  0.00     0.028 A 
HETATM   15  C   UNL     1     -32.990  39.509 -49.148  1.00  0.00    -0.061 A 
HETATM   16  C   UNL     1     -31.695  39.410 -48.395  1.00  0.00     0.048 C 
HETATM   17  C   UNL     1     -34.107  38.775 -48.724  1.00  0.00     0.009 A 
ENDBRANCH   4   5
ENDBRANCH   1   4
BRANCH   1  18
HETATM   18  C   UNL     1     -35.261  40.229 -55.394  1.00  0.00     0.158 C 
BRANCH  18  19
HETATM   19  C   UNL     1     -33.883  40.430 -56.038  1.00  0.00     0.139 C 
HETATM   20  O   UNL     1     -32.845  40.549 -55.050  1.00  0.00    -0.384 OA
HETATM   21  C   UNL     1     -31.652  39.934 -55.560  1.00  0.00     0.168 C 
HETATM   22  C   UNL     1     -31.970  39.425 -56.951  1.00  0.00     0.029 C 
HETATM   23  C   UNL     1     -33.466  39.249 -56.899  1.00  0.00     0.035 C 
ENDBRANCH  18  19
ENDBRANCH   1  18
BRANCH   2  24
HETATM   24  C   UNL     1     -37.312  41.073 -57.401  1.00  0.00     0.032 A 
HETATM   25  C   UNL     1     -36.836  41.668 -58.572  1.00  0.00     0.020 A 
HETATM   26  C   UNL     1     -36.967  41.000 -59.790  1.00  0.00     0.038 A 
HETATM   27  C   UNL     1     -37.558  39.735 -59.850  1.00  0.00     0.068 A 
HETATM   28  C   UNL     1     -38.005  39.130 -58.673  1.00  0.00     0.038 A 
HETATM   29  C   UNL     1     -37.871  39.793 -57.446  1.00  0.00     0.020 A 
BRANCH  27  30
HETATM   30  O   UNL     1     -37.625  39.199 -61.107  1.00  0.00    -0.356 OA
HETATM   31  C   UNL     1     -38.807  38.487 -61.445  1.00  0.00     0.210 C 
ENDBRANCH  27  30
ENDBRANCH   2  24
TORSDOF 6
ENDMDL
