MODEL 1
REMARK VINA RESULT:      -8.9      0.000      0.000
REMARK  7 active torsions:
REMARK  status: ('A' for Active; 'I' for Inactive)
REMARK    1  A    between atoms: C_2  and  C_3 
REMARK    2  A    between atoms: C_6  and  C_7 
REMARK    3  A    between atoms: N_9  and  C_10 
REMARK    4  A    between atoms: C_10  and  C_11 
REMARK    5  A    between atoms: C_18  and  C_19 
REMARK       I    between atoms: C_19  and  N_20 
REMARK    6  A    between atoms: N_20  and  C_21 
REMARK    7  A    between atoms: C_24  and  O_25 
ROOT
HETATM    1  C   UNL     1     -42.831  56.018 -55.630  1.00  0.00     0.104 A 
HETATM    2  N   UNL     1     -42.859  56.387 -56.927  1.00  0.00    -0.171 NA
HETATM    3  N   UNL     1     -43.680  57.442 -56.968  1.00  0.00    -0.275 N 
HETATM    4  C   UNL     1     -44.208  57.761 -55.754  1.00  0.00     0.132 A 
HETATM    5  C   UNL     1     -43.648  56.890 -54.830  1.00  0.00     0.080 A 
ENDROOT
BRANCH   5   6
HETATM    6  C   UNL     1     -43.863  56.900 -53.382  1.00  0.00     0.255 C 
HETATM    7  N   UNL     1     -42.989  56.106 -52.673  1.00  0.00    -0.352 N 
HETATM    8  H   UNL     1     -42.380  55.507 -53.210  1.00  0.00     0.163 HD
HETATM    9  O   UNL     1     -44.751  57.553 -52.850  1.00  0.00    -0.268 OA
BRANCH   7  10
HETATM   10  C   UNL     1     -42.954  55.892 -51.227  1.00  0.00     0.084 C 
HETATM   11  C   UNL     1     -43.003  54.417 -50.810  1.00  0.00     0.028 C 
HETATM   12  C   UNL     1     -41.646  53.761 -50.566  1.00  0.00     0.034 C 
HETATM   13  C   UNL     1     -40.725  54.624 -49.712  1.00  0.00     0.118 C 
HETATM   14  C   UNL     1     -40.548  56.020 -50.301  1.00  0.00     0.034 C 
HETATM   15  C   UNL     1     -41.885  56.729 -50.512  1.00  0.00     0.028 C 
BRANCH  13  16
HETATM   16  O   UNL     1     -41.288  54.732 -48.403  1.00  0.00    -0.396 OA
HETATM   17  H   UNL     1     -41.093  55.629 -48.081  1.00  0.00     0.210 HD
ENDBRANCH  13  16
ENDBRANCH   7  10
ENDBRANCH   5   6
BRANCH   1  18
HETATM   18  C   UNL     1     -41.996  54.875 -55.255  1.00  0.00    -0.005 A 
HETATM   19  C   UNL     1     -42.606  53.660 -54.912  1.00  0.00     0.014 A 
HETATM   20  C   UNL     1     -41.846  52.565 -54.482  1.00  0.00     0.008 A 
HETATM   21  C   UNL     1     -40.455  52.663 -54.374  1.00  0.00    -0.059 A 
HETATM   22  C   UNL     1     -39.847  53.880 -54.723  1.00  0.00     0.008 A 
HETATM   23  C   UNL     1     -40.608  54.976 -55.148  1.00  0.00     0.014 A 
BRANCH  21  24
HETATM   24  C   UNL     1     -39.571  51.528 -53.909  1.00  0.00     0.034 C 
HETATM   25  C   UNL     1     -39.937  50.130 -54.393  1.00  0.00     0.010 C 
ENDBRANCH  21  24
ENDBRANCH   1  18
BRANCH   3  26
HETATM   26  C   UNL     1     -43.915  58.128 -58.234  1.00  0.00     0.189 C 
BRANCH  26  27
HETATM   27  C   UNL     1     -44.776  57.311 -59.169  1.00  0.00    -0.038 A 
HETATM   28  C   UNL     1     -44.199  56.426 -60.095  1.00  0.00     0.009 A 
HETATM   29  C   UNL     1     -45.000  55.667 -60.948  1.00  0.00     0.001 A 
HETATM   30  C   UNL     1     -46.388  55.770 -60.876  1.00  0.00     0.000 A 
HETATM   31  C   UNL     1     -46.975  56.630 -59.949  1.00  0.00     0.001 A 
HETATM   32  C   UNL     1     -46.174  57.394 -59.098  1.00  0.00     0.009 A 
ENDBRANCH  26  27
ENDBRANCH   3  26
TORSDOF 7
ENDMDL
MODEL 2
REMARK VINA RESULT:      -8.6      2.906      7.178
REMARK  7 active torsions:
REMARK  status: ('A' for Active; 'I' for Inactive)
REMARK    1  A    between atoms: C_2  and  C_3 
REMARK    2  A    between atoms: C_6  and  C_7 
REMARK    3  A    between atoms: N_9  and  C_10 
REMARK    4  A    between atoms: C_10  and  C_11 
REMARK    5  A    between atoms: C_18  and  C_19 
REMARK       I    between atoms: C_19  and  N_20 
REMARK    6  A    between atoms: N_20  and  C_21 
REMARK    7  A    between atoms: C_24  and  O_25 
ROOT
HETATM    1  C   UNL     1     -43.049  55.924 -53.566  1.00  0.00     0.104 A 
HETATM    2  N   UNL     1     -43.718  56.237 -52.438  1.00  0.00    -0.171 NA
HETATM    3  N   UNL     1     -44.388  57.356 -52.732  1.00  0.00    -0.275 N 
HETATM    4  C   UNL     1     -44.163  57.801 -53.999  1.00  0.00     0.132 A 
HETATM    5  C   UNL     1     -43.330  56.874 -54.609  1.00  0.00     0.080 A 
ENDROOT
BRANCH   5   6
HETATM    6  C   UNL     1     -42.876  56.896 -56.001  1.00  0.00     0.255 C 
HETATM    7  N   UNL     1     -43.890  56.815 -56.930  1.00  0.00    -0.352 N 
HETATM    8  H   UNL     1     -44.816  56.624 -56.577  1.00  0.00     0.163 HD
HETATM    9  O   UNL     1     -41.695  56.970 -56.310  1.00  0.00    -0.268 OA
BRANCH   7  10
HETATM   10  C   UNL     1     -43.763  56.796 -58.387  1.00  0.00     0.084 C 
HETATM   11  C   UNL     1     -43.300  55.450 -58.957  1.00  0.00     0.028 C 
HETATM   12  C   UNL     1     -44.417  54.515 -59.415  1.00  0.00     0.034 C 
HETATM   13  C   UNL     1     -45.467  55.228 -60.259  1.00  0.00     0.118 C 
HETATM   14  C   UNL     1     -46.045  56.442 -59.540  1.00  0.00     0.034 C 
HETATM   15  C   UNL     1     -44.958  57.427 -59.111  1.00  0.00     0.028 C 
BRANCH  13  16
HETATM   16  O   UNL     1     -44.857  55.648 -61.481  1.00  0.00    -0.396 OA
HETATM   17  H   UNL     1     -44.141  55.018 -61.675  1.00  0.00     0.210 HD
ENDBRANCH  13  16
ENDBRANCH   7  10
ENDBRANCH   5   6
BRANCH   1  18
HETATM   18  C   UNL     1     -42.216  54.720 -53.566  1.00  0.00    -0.005 A 
HETATM   19  C   UNL     1     -41.282  54.530 -52.537  1.00  0.00     0.014 A 
HETATM   20  C   UNL     1     -40.420  53.426 -52.539  1.00  0.00     0.008 A 
HETATM   21  C   UNL     1     -40.464  52.490 -53.576  1.00  0.00    -0.059 A 
HETATM   22  C   UNL     1     -41.404  52.681 -54.602  1.00  0.00     0.008 A 
HETATM   23  C   UNL     1     -42.262  53.788 -54.603  1.00  0.00     0.014 A 
BRANCH  21  24
HETATM   24  C   UNL     1     -39.561  51.280 -53.649  1.00  0.00     0.034 C 
HETATM   25  C   UNL     1     -40.114  50.053 -54.363  1.00  0.00     0.010 C 
ENDBRANCH  21  24
ENDBRANCH   1  18
BRANCH   3  26
HETATM   26  C   UNL     1     -45.261  57.962 -51.731  1.00  0.00     0.189 C 
BRANCH  26  27
HETATM   27  C   UNL     1     -44.673  59.231 -51.161  1.00  0.00    -0.038 A 
HETATM   28  C   UNL     1     -43.283  59.396 -51.045  1.00  0.00     0.009 A 
HETATM   29  C   UNL     1     -42.747  60.575 -50.527  1.00  0.00     0.001 A 
HETATM   30  C   UNL     1     -43.592  61.612 -50.136  1.00  0.00     0.000 A 
HETATM   31  C   UNL     1     -44.973  61.470 -50.264  1.00  0.00     0.001 A 
HETATM   32  C   UNL     1     -45.511  60.288 -50.777  1.00  0.00     0.009 A 
ENDBRANCH  26  27
ENDBRANCH   3  26
TORSDOF 7
ENDMDL
MODEL 3
REMARK VINA RESULT:      -8.5      1.532      2.139
REMARK  7 active torsions:
REMARK  status: ('A' for Active; 'I' for Inactive)
REMARK    1  A    between atoms: C_2  and  C_3 
REMARK    2  A    between atoms: C_6  and  C_7 
REMARK    3  A    between atoms: N_9  and  C_10 
REMARK    4  A    between atoms: C_10  and  C_11 
REMARK    5  A    between atoms: C_18  and  C_19 
REMARK       I    between atoms: C_19  and  N_20 
REMARK    6  A    between atoms: N_20  and  C_21 
REMARK    7  A    between atoms: C_24  and  O_25 
ROOT
HETATM    1  C   UNL     1     -42.759  56.088 -56.061  1.00  0.00     0.104 A 
HETATM    2  N   UNL     1     -42.702  56.293 -57.392  1.00  0.00    -0.171 NA
HETATM    3  N   UNL     1     -43.456  57.376 -57.608  1.00  0.00    -0.275 N 
HETATM    4  C   UNL     1     -44.023  57.872 -56.474  1.00  0.00     0.132 A 
HETATM    5  C   UNL     1     -43.562  57.095 -55.421  1.00  0.00     0.080 A 
ENDROOT
BRANCH   5   6
HETATM    6  C   UNL     1     -43.848  57.299 -53.999  1.00  0.00     0.255 C 
HETATM    7  N   UNL     1     -42.731  57.514 -53.221  1.00  0.00    -0.352 N 
HETATM    8  H   UNL     1     -41.835  57.389 -53.668  1.00  0.00     0.163 HD
HETATM    9  O   UNL     1     -44.982  57.270 -53.542  1.00  0.00    -0.268 OA
BRANCH   7  10
HETATM   10  C   UNL     1     -42.681  57.733 -51.777  1.00  0.00     0.084 C 
HETATM   11  C   UNL     1     -41.441  57.141 -51.096  1.00  0.00     0.028 C 
HETATM   12  C   UNL     1     -40.274  58.107 -50.907  1.00  0.00     0.034 C 
HETATM   13  C   UNL     1     -40.715  59.454 -50.347  1.00  0.00     0.118 C 
HETATM   14  C   UNL     1     -41.808  60.092 -51.198  1.00  0.00     0.034 C 
HETATM   15  C   UNL     1     -43.017  59.173 -51.366  1.00  0.00     0.028 C 
BRANCH  13  16
HETATM   16  O   UNL     1     -41.205  59.255 -49.020  1.00  0.00    -0.396 OA
HETATM   17  H   UNL     1     -41.076  58.314 -48.806  1.00  0.00     0.210 HD
ENDBRANCH  13  16
ENDBRANCH   7  10
ENDBRANCH   5   6
BRANCH   1  18
HETATM   18  C   UNL     1     -42.013  54.959 -55.501  1.00  0.00    -0.005 A 
HETATM   19  C   UNL     1     -42.713  53.860 -54.984  1.00  0.00     0.014 A 
HETATM   20  C   UNL     1     -42.038  52.792 -54.379  1.00  0.00     0.008 A 
HETATM   21  C   UNL     1     -40.645  52.803 -54.268  1.00  0.00    -0.059 A 
HETATM   22  C   UNL     1     -39.946  53.904 -54.792  1.00  0.00     0.008 A 
HETATM   23  C   UNL     1     -40.622  54.974 -55.392  1.00  0.00     0.014 A 
BRANCH  21  24
HETATM   24  C   UNL     1     -39.849  51.692 -53.622  1.00  0.00     0.034 C 
HETATM   25  C   UNL     1     -39.873  50.336 -54.317  1.00  0.00     0.010 C 
ENDBRANCH  21  24
ENDBRANCH   1  18
BRANCH   3  26
HETATM   26  C   UNL     1     -43.587  57.909 -58.960  1.00  0.00     0.189 C 
BRANCH  26  27
HETATM   27  C   UNL     1     -44.880  57.482 -59.615  1.00  0.00    -0.038 A 
HETATM   28  C   UNL     1     -45.923  58.399 -59.821  1.00  0.00     0.009 A 
HETATM   29  C   UNL     1     -47.110  58.000 -60.435  1.00  0.00     0.001 A 
HETATM   30  C   UNL     1     -47.264  56.684 -60.867  1.00  0.00     0.000 A 
HETATM   31  C   UNL     1     -46.229  55.768 -60.687  1.00  0.00     0.001 A 
HETATM   32  C   UNL     1     -45.042  56.164 -60.067  1.00  0.00     0.009 A 
ENDBRANCH  26  27
ENDBRANCH   3  26
TORSDOF 7
ENDMDL
MODEL 4
REMARK VINA RESULT:      -8.4      2.128      2.938
REMARK  7 active torsions:
REMARK  status: ('A' for Active; 'I' for Inactive)
REMARK    1  A    between atoms: C_2  and  C_3 
REMARK    2  A    between atoms: C_6  and  C_7 
REMARK    3  A    between atoms: N_9  and  C_10 
REMARK    4  A    between atoms: C_10  and  C_11 
REMARK    5  A    between atoms: C_18  and  C_19 
REMARK       I    between atoms: C_19  and  N_20 
REMARK    6  A    between atoms: N_20  and  C_21 
REMARK    7  A    between atoms: C_24  and  O_25 
ROOT
HETATM    1  C   UNL     1     -42.887  55.706 -56.169  1.00  0.00     0.104 A 
HETATM    2  N   UNL     1     -42.831  55.401 -57.481  1.00  0.00    -0.171 NA
HETATM    3  N   UNL     1     -43.541  56.357 -58.088  1.00  0.00    -0.275 N 
HETATM    4  C   UNL     1     -44.079  57.261 -57.223  1.00  0.00     0.132 A 
HETATM    5  C   UNL     1     -43.643  56.910 -55.953  1.00  0.00     0.080 A 
ENDROOT
BRANCH   5   6
HETATM    6  C   UNL     1     -43.909  57.637 -54.710  1.00  0.00     0.255 C 
HETATM    7  N   UNL     1     -42.781  57.942 -53.979  1.00  0.00    -0.352 N 
HETATM    8  H   UNL     1     -41.912  57.537 -54.294  1.00  0.00     0.163 HD
HETATM    9  O   UNL     1     -45.038  57.938 -54.349  1.00  0.00    -0.268 OA
BRANCH   7  10
HETATM   10  C   UNL     1     -42.714  58.642 -52.697  1.00  0.00     0.084 C 
HETATM   11  C   UNL     1     -42.964  57.742 -51.480  1.00  0.00     0.028 C 
HETATM   12  C   UNL     1     -41.709  57.179 -50.815  1.00  0.00     0.034 C 
HETATM   13  C   UNL     1     -40.634  58.238 -50.604  1.00  0.00     0.118 C 
HETATM   14  C   UNL     1     -40.278  58.953 -51.904  1.00  0.00     0.034 C 
HETATM   15  C   UNL     1     -41.503  59.574 -52.573  1.00  0.00     0.028 C 
BRANCH  13  16
HETATM   16  O   UNL     1     -41.117  59.193 -49.658  1.00  0.00    -0.396 OA
HETATM   17  H   UNL     1     -41.010  60.073 -50.058  1.00  0.00     0.210 HD
ENDBRANCH  13  16
ENDBRANCH   7  10
ENDBRANCH   5   6
BRANCH   1  18
HETATM   18  C   UNL     1     -42.184  54.834 -55.225  1.00  0.00    -0.005 A 
HETATM   19  C   UNL     1     -42.804  54.484 -54.017  1.00  0.00     0.014 A 
HETATM   20  C   UNL     1     -42.138  53.709 -53.060  1.00  0.00     0.008 A 
HETATM   21  C   UNL     1     -40.829  53.273 -53.284  1.00  0.00    -0.059 A 
HETATM   22  C   UNL     1     -40.212  53.621 -54.497  1.00  0.00     0.008 A 
HETATM   23  C   UNL     1     -40.877  54.401 -55.452  1.00  0.00     0.014 A 
BRANCH  21  24
HETATM   24  C   UNL     1     -40.044  52.442 -52.294  1.00  0.00     0.034 C 
HETATM   25  C   UNL     1     -40.139  52.848 -50.829  1.00  0.00     0.010 C 
ENDBRANCH  21  24
ENDBRANCH   1  18
BRANCH   3  26
HETATM   26  C   UNL     1     -43.661  56.357 -59.543  1.00  0.00     0.189 C 
BRANCH  26  27
HETATM   27  C   UNL     1     -43.393  57.722 -60.133  1.00  0.00    -0.038 A 
HETATM   28  C   UNL     1     -44.449  58.598 -60.434  1.00  0.00     0.009 A 
HETATM   29  C   UNL     1     -44.194  59.861 -60.969  1.00  0.00     0.001 A 
HETATM   30  C   UNL     1     -42.882  60.271 -61.194  1.00  0.00     0.000 A 
HETATM   31  C   UNL     1     -41.823  59.419 -60.881  1.00  0.00     0.001 A 
HETATM   32  C   UNL     1     -42.077  58.153 -60.351  1.00  0.00     0.009 A 
ENDBRANCH  26  27
ENDBRANCH   3  26
TORSDOF 7
ENDMDL
MODEL 5
REMARK VINA RESULT:      -8.2      2.243      3.044
REMARK  7 active torsions:
REMARK  status: ('A' for Active; 'I' for Inactive)
REMARK    1  A    between atoms: C_2  and  C_3 
REMARK    2  A    between atoms: C_6  and  C_7 
REMARK    3  A    between atoms: N_9  and  C_10 
REMARK    4  A    between atoms: C_10  and  C_11 
REMARK    5  A    between atoms: C_18  and  C_19 
REMARK       I    between atoms: C_19  and  N_20 
REMARK    6  A    between atoms: N_20  and  C_21 
REMARK    7  A    between atoms: C_24  and  O_25 
ROOT
HETATM    1  C   UNL     1     -42.119  56.331 -55.778  1.00  0.00     0.104 A 
HETATM    2  N   UNL     1     -42.373  56.460 -57.095  1.00  0.00    -0.171 NA
HETATM    3  N   UNL     1     -42.798  57.719 -57.244  1.00  0.00    -0.275 N 
HETATM    4  C   UNL     1     -42.856  58.410 -56.072  1.00  0.00     0.132 A 
HETATM    5  C   UNL     1     -42.376  57.564 -55.083  1.00  0.00     0.080 A 
ENDROOT
BRANCH   5   6
HETATM    6  C   UNL     1     -42.184  57.898 -53.670  1.00  0.00     0.255 C 
HETATM    7  N   UNL     1     -43.355  58.088 -52.968  1.00  0.00    -0.352 N 
HETATM    8  H   UNL     1     -44.209  58.105 -53.505  1.00  0.00     0.163 HD
HETATM    9  O   UNL     1     -41.078  58.007 -53.161  1.00  0.00    -0.268 OA
BRANCH   7  10
HETATM   10  C   UNL     1     -43.498  58.444 -51.557  1.00  0.00     0.084 C 
HETATM   11  C   UNL     1     -43.099  59.889 -51.233  1.00  0.00     0.028 C 
HETATM   12  C   UNL     1     -44.246  60.897 -51.220  1.00  0.00     0.034 C 
HETATM   13  C   UNL     1     -45.459  60.392 -50.448  1.00  0.00     0.118 C 
HETATM   14  C   UNL     1     -45.939  59.040 -50.966  1.00  0.00     0.034 C 
HETATM   15  C   UNL     1     -44.830  57.990 -50.946  1.00  0.00     0.028 C 
BRANCH  13  16
HETATM   16  O   UNL     1     -45.102  60.270 -49.070  1.00  0.00    -0.396 OA
HETATM   17  H   UNL     1     -44.346  60.864 -48.917  1.00  0.00     0.210 HD
ENDBRANCH  13  16
ENDBRANCH   7  10
ENDBRANCH   5   6
BRANCH   1  18
HETATM   18  C   UNL     1     -41.619  55.043 -55.292  1.00  0.00    -0.005 A 
HETATM   19  C   UNL     1     -42.533  54.050 -54.909  1.00  0.00     0.014 A 
HETATM   20  C   UNL     1     -42.095  52.832 -54.376  1.00  0.00     0.008 A 
HETATM   21  C   UNL     1     -40.731  52.580 -54.203  1.00  0.00    -0.059 A 
HETATM   22  C   UNL     1     -39.818  53.575 -54.592  1.00  0.00     0.008 A 
HETATM   23  C   UNL     1     -40.257  54.796 -55.120  1.00  0.00     0.014 A 
BRANCH  21  24
HETATM   24  C   UNL     1     -40.184  51.294 -53.626  1.00  0.00     0.034 C 
HETATM   25  C   UNL     1     -39.892  50.169 -54.612  1.00  0.00     0.010 C 
ENDBRANCH  21  24
ENDBRANCH   1  18
BRANCH   3  26
HETATM   26  C   UNL     1     -43.132  58.218 -58.574  1.00  0.00     0.189 C 
BRANCH  26  27
HETATM   27  C   UNL     1     -44.223  57.403 -59.228  1.00  0.00    -0.038 A 
HETATM   28  C   UNL     1     -43.917  56.422 -60.186  1.00  0.00     0.009 A 
HETATM   29  C   UNL     1     -44.928  55.665 -60.778  1.00  0.00     0.001 A 
HETATM   30  C   UNL     1     -46.256  55.866 -60.408  1.00  0.00     0.000 A 
HETATM   31  C   UNL     1     -46.573  56.822 -59.444  1.00  0.00     0.001 A 
HETATM   32  C   UNL     1     -45.563  57.584 -58.855  1.00  0.00     0.009 A 
ENDBRANCH  26  27
ENDBRANCH   3  26
TORSDOF 7
ENDMDL
MODEL 6
REMARK VINA RESULT:      -8.0      2.203      4.242
REMARK  7 active torsions:
REMARK  status: ('A' for Active; 'I' for Inactive)
REMARK    1  A    between atoms: C_2  and  C_3 
REMARK    2  A    between atoms: C_6  and  C_7 
REMARK    3  A    between atoms: N_9  and  C_10 
REMARK    4  A    between atoms: C_10  and  C_11 
REMARK    5  A    between atoms: C_18  and  C_19 
REMARK       I    between atoms: C_19  and  N_20 
REMARK    6  A    between atoms: N_20  and  C_21 
REMARK    7  A    between atoms: C_24  and  O_25 
ROOT
HETATM    1  C   UNL     1     -42.359  57.098 -55.469  1.00  0.00     0.104 A 
HETATM    2  N   UNL     1     -42.370  57.821 -56.607  1.00  0.00    -0.171 NA
HETATM    3  N   UNL     1     -42.770  56.968 -57.555  1.00  0.00    -0.275 N 
HETATM    4  C   UNL     1     -42.997  55.710 -57.086  1.00  0.00     0.132 A 
HETATM    5  C   UNL     1     -42.790  55.748 -55.715  1.00  0.00     0.080 A 
ENDROOT
BRANCH   5   6
HETATM    6  C   UNL     1     -42.986  54.644 -54.773  1.00  0.00     0.255 C 
HETATM    7  N   UNL     1     -41.829  53.980 -54.429  1.00  0.00    -0.352 N 
HETATM    8  H   UNL     1     -40.994  54.225 -54.940  1.00  0.00     0.163 HD
HETATM    9  O   UNL     1     -44.086  54.334 -54.339  1.00  0.00    -0.268 OA
BRANCH   7  10
HETATM   10  C   UNL     1     -41.695  52.834 -53.531  1.00  0.00     0.084 C 
HETATM   11  C   UNL     1     -40.815  51.705 -54.083  1.00  0.00     0.028 C 
HETATM   12  C   UNL     1     -39.351  51.745 -53.648  1.00  0.00     0.034 C 
HETATM   13  C   UNL     1     -39.192  51.991 -52.153  1.00  0.00     0.118 C 
HETATM   14  C   UNL     1     -39.919  53.254 -51.705  1.00  0.00     0.034 C 
HETATM   15  C   UNL     1     -41.401  53.228 -52.078  1.00  0.00     0.028 C 
BRANCH  13  16
HETATM   16  O   UNL     1     -39.723  50.866 -51.449  1.00  0.00    -0.396 OA
HETATM   17  H   UNL     1     -39.078  50.143 -51.538  1.00  0.00     0.210 HD
ENDBRANCH  13  16
ENDBRANCH   7  10
ENDBRANCH   5   6
BRANCH   1  18
HETATM   18  C   UNL     1     -41.966  57.768 -54.227  1.00  0.00    -0.005 A 
HETATM   19  C   UNL     1     -42.595  58.967 -53.863  1.00  0.00     0.014 A 
HETATM   20  C   UNL     1     -42.199  59.673 -52.720  1.00  0.00     0.008 A 
HETATM   21  C   UNL     1     -41.158  59.199 -51.917  1.00  0.00    -0.059 A 
HETATM   22  C   UNL     1     -40.534  57.995 -52.282  1.00  0.00     0.008 A 
HETATM   23  C   UNL     1     -40.925  57.293 -53.428  1.00  0.00     0.014 A 
BRANCH  21  24
HETATM   24  C   UNL     1     -40.671  59.910 -50.674  1.00  0.00     0.034 C 
HETATM   25  C   UNL     1     -39.189  59.778 -50.344  1.00  0.00     0.010 C 
ENDBRANCH  21  24
ENDBRANCH   1  18
BRANCH   3  26
HETATM   26  C   UNL     1     -42.932  57.434 -58.928  1.00  0.00     0.189 C 
BRANCH  26  27
HETATM   27  C   UNL     1     -44.243  56.983 -59.529  1.00  0.00    -0.038 A 
HETATM   28  C   UNL     1     -44.282  55.967 -60.498  1.00  0.00     0.009 A 
HETATM   29  C   UNL     1     -45.497  55.549 -61.041  1.00  0.00     0.001 A 
HETATM   30  C   UNL     1     -46.689  56.127 -60.611  1.00  0.00     0.000 A 
HETATM   31  C   UNL     1     -46.667  57.122 -59.634  1.00  0.00     0.001 A 
HETATM   32  C   UNL     1     -45.452  57.546 -59.094  1.00  0.00     0.009 A 
ENDBRANCH  26  27
ENDBRANCH   3  26
TORSDOF 7
ENDMDL
MODEL 7
REMARK VINA RESULT:      -7.9      2.474      3.702
REMARK  7 active torsions:
REMARK  status: ('A' for Active; 'I' for Inactive)
REMARK    1  A    between atoms: C_2  and  C_3 
REMARK    2  A    between atoms: C_6  and  C_7 
REMARK    3  A    between atoms: N_9  and  C_10 
REMARK    4  A    between atoms: C_10  and  C_11 
REMARK    5  A    between atoms: C_18  and  C_19 
REMARK       I    between atoms: C_19  and  N_20 
REMARK    6  A    between atoms: N_20  and  C_21 
REMARK    7  A    between atoms: C_24  and  O_25 
ROOT
HETATM    1  C   UNL     1     -42.656  55.990 -56.322  1.00  0.00     0.104 A 
HETATM    2  N   UNL     1     -43.093  55.720 -57.568  1.00  0.00    -0.171 NA
HETATM    3  N   UNL     1     -43.635  56.864 -57.999  1.00  0.00    -0.275 N 
HETATM    4  C   UNL     1     -43.592  57.862 -57.075  1.00  0.00     0.132 A 
HETATM    5  C   UNL     1     -42.917  57.360 -55.971  1.00  0.00     0.080 A 
ENDROOT
BRANCH   5   6
HETATM    6  C   UNL     1     -42.566  58.097 -54.756  1.00  0.00     0.255 C 
HETATM    7  N   UNL     1     -43.595  58.214 -53.847  1.00  0.00    -0.352 N 
HETATM    8  H   UNL     1     -44.506  57.901 -54.148  1.00  0.00     0.163 HD
HETATM    9  O   UNL     1     -41.456  58.575 -54.570  1.00  0.00    -0.268 OA
BRANCH   7  10
HETATM   10  C   UNL     1     -43.567  58.899 -52.555  1.00  0.00     0.084 C 
HETATM   11  C   UNL     1     -44.413  60.178 -52.507  1.00  0.00     0.028 C 
HETATM   12  C   UNL     1     -45.830  60.006 -51.966  1.00  0.00     0.034 C 
HETATM   13  C   UNL     1     -45.870  59.178 -50.687  1.00  0.00     0.118 C 
HETATM   14  C   UNL     1     -45.196  57.822 -50.867  1.00  0.00     0.034 C 
HETATM   15  C   UNL     1     -43.756  57.957 -51.360  1.00  0.00     0.028 C 
BRANCH  13  16
HETATM   16  O   UNL     1     -45.201  59.904 -49.655  1.00  0.00    -0.396 OA
HETATM   17  H   UNL     1     -44.643  59.269 -49.173  1.00  0.00     0.210 HD
ENDBRANCH  13  16
ENDBRANCH   7  10
ENDBRANCH   5   6
BRANCH   1  18
HETATM   18  C   UNL     1     -41.993  54.919 -55.574  1.00  0.00    -0.005 A 
HETATM   19  C   UNL     1     -40.595  54.927 -55.454  1.00  0.00     0.014 A 
HETATM   20  C   UNL     1     -39.920  53.885 -54.806  1.00  0.00     0.008 A 
HETATM   21  C   UNL     1     -40.626  52.805 -54.270  1.00  0.00    -0.059 A 
HETATM   22  C   UNL     1     -42.026  52.803 -54.387  1.00  0.00     0.008 A 
HETATM   23  C   UNL     1     -42.701  53.842 -55.041  1.00  0.00     0.014 A 
BRANCH  21  24
HETATM   24  C   UNL     1     -39.965  51.642 -53.565  1.00  0.00     0.034 C 
HETATM   25  C   UNL     1     -39.940  50.312 -54.310  1.00  0.00     0.010 C 
ENDBRANCH  21  24
ENDBRANCH   1  18
BRANCH   3  26
HETATM   26  C   UNL     1     -44.183  56.942 -59.350  1.00  0.00     0.189 C 
BRANCH  26  27
HETATM   27  C   UNL     1     -43.672  58.149 -60.100  1.00  0.00    -0.038 A 
HETATM   28  C   UNL     1     -44.545  59.170 -60.509  1.00  0.00     0.009 A 
HETATM   29  C   UNL     1     -44.065  60.287 -61.192  1.00  0.00     0.001 A 
HETATM   30  C   UNL     1     -42.703  60.407 -61.460  1.00  0.00     0.000 A 
HETATM   31  C   UNL     1     -41.821  59.411 -61.043  1.00  0.00     0.001 A 
HETATM   32  C   UNL     1     -42.301  58.290 -60.364  1.00  0.00     0.009 A 
ENDBRANCH  26  27
ENDBRANCH   3  26
TORSDOF 7
ENDMDL
MODEL 8
REMARK VINA RESULT:      -7.8      2.075      4.333
REMARK  7 active torsions:
REMARK  status: ('A' for Active; 'I' for Inactive)
REMARK    1  A    between atoms: C_2  and  C_3 
REMARK    2  A    between atoms: C_6  and  C_7 
REMARK    3  A    between atoms: N_9  and  C_10 
REMARK    4  A    between atoms: C_10  and  C_11 
REMARK    5  A    between atoms: C_18  and  C_19 
REMARK       I    between atoms: C_19  and  N_20 
REMARK    6  A    between atoms: N_20  and  C_21 
REMARK    7  A    between atoms: C_24  and  O_25 
ROOT
HETATM    1  C   UNL     1     -42.555  57.263 -55.024  1.00  0.00     0.104 A 
HETATM    2  N   UNL     1     -42.404  57.749 -56.272  1.00  0.00    -0.171 NA
HETATM    3  N   UNL     1     -42.578  56.695 -57.077  1.00  0.00    -0.275 N 
HETATM    4  C   UNL     1     -42.813  55.536 -56.403  1.00  0.00     0.132 A 
HETATM    5  C   UNL     1     -42.856  55.857 -55.053  1.00  0.00     0.080 A 
ENDROOT
BRANCH   5   6
HETATM    6  C   UNL     1     -43.154  54.942 -53.950  1.00  0.00     0.255 C 
HETATM    7  N   UNL     1     -42.202  54.925 -52.954  1.00  0.00    -0.352 N 
HETATM    8  H   UNL     1     -41.349  55.434 -53.132  1.00  0.00     0.163 HD
HETATM    9  O   UNL     1     -44.159  54.245 -53.922  1.00  0.00    -0.268 OA
BRANCH   7  10
HETATM   10  C   UNL     1     -42.201  54.113 -51.738  1.00  0.00     0.084 C 
HETATM   11  C   UNL     1     -40.910  53.314 -51.520  1.00  0.00     0.028 C 
HETATM   12  C   UNL     1     -39.868  53.987 -50.627  1.00  0.00     0.034 C 
HETATM   13  C   UNL     1     -40.475  54.561 -49.352  1.00  0.00     0.118 C 
HETATM   14  C   UNL     1     -41.623  55.519 -49.652  1.00  0.00     0.034 C 
HETATM   15  C   UNL     1     -42.711  54.865 -50.502  1.00  0.00     0.028 C 
BRANCH  13  16
HETATM   16  O   UNL     1     -40.958  53.481 -48.552  1.00  0.00    -0.396 OA
HETATM   17  H   UNL     1     -40.468  53.505 -47.712  1.00  0.00     0.210 HD
ENDBRANCH  13  16
ENDBRANCH   7  10
ENDBRANCH   5   6
BRANCH   1  18
HETATM   18  C   UNL     1     -42.429  58.192 -53.899  1.00  0.00    -0.005 A 
HETATM   19  C   UNL     1     -41.168  58.417 -53.329  1.00  0.00     0.014 A 
HETATM   20  C   UNL     1     -41.017  59.245 -52.211  1.00  0.00     0.008 A 
HETATM   21  C   UNL     1     -42.127  59.862 -51.627  1.00  0.00    -0.059 A 
HETATM   22  C   UNL     1     -43.389  59.639 -52.204  1.00  0.00     0.008 A 
HETATM   23  C   UNL     1     -43.540  58.806 -53.319  1.00  0.00     0.014 A 
BRANCH  21  24
HETATM   24  C   UNL     1     -42.043  60.761 -50.415  1.00  0.00     0.034 C 
HETATM   25  C   UNL     1     -43.202  61.726 -50.194  1.00  0.00     0.010 C 
ENDBRANCH  21  24
ENDBRANCH   1  18
BRANCH   3  26
HETATM   26  C   UNL     1     -42.518  56.872 -58.525  1.00  0.00     0.189 C 
BRANCH  26  27
HETATM   27  C   UNL     1     -43.822  56.505 -59.194  1.00  0.00    -0.038 A 
HETATM   28  C   UNL     1     -43.924  55.356 -59.997  1.00  0.00     0.009 A 
HETATM   29  C   UNL     1     -45.133  55.018 -60.604  1.00  0.00     0.001 A 
HETATM   30  C   UNL     1     -46.260  55.811 -60.403  1.00  0.00     0.000 A 
HETATM   31  C   UNL     1     -46.179  56.943 -59.592  1.00  0.00     0.001 A 
HETATM   32  C   UNL     1     -44.968  57.286 -58.989  1.00  0.00     0.009 A 
ENDBRANCH  26  27
ENDBRANCH   3  26
TORSDOF 7
ENDMDL
MODEL 9
REMARK VINA RESULT:      -7.6      2.997      8.857
REMARK  7 active torsions:
REMARK  status: ('A' for Active; 'I' for Inactive)
REMARK    1  A    between atoms: C_2  and  C_3 
REMARK    2  A    between atoms: C_6  and  C_7 
REMARK    3  A    between atoms: N_9  and  C_10 
REMARK    4  A    between atoms: C_10  and  C_11 
REMARK    5  A    between atoms: C_18  and  C_19 
REMARK       I    between atoms: C_19  and  N_20 
REMARK    6  A    between atoms: N_20  and  C_21 
REMARK    7  A    between atoms: C_24  and  O_25 
ROOT
HETATM    1  C   UNL     1     -43.410  57.184 -53.700  1.00  0.00     0.104 A 
HETATM    2  N   UNL     1     -43.507  56.436 -52.582  1.00  0.00    -0.171 NA
HETATM    3  N   UNL     1     -43.327  55.177 -52.993  1.00  0.00    -0.275 N 
HETATM    4  C   UNL     1     -43.139  55.070 -54.337  1.00  0.00     0.132 A 
HETATM    5  C   UNL     1     -43.136  56.361 -54.847  1.00  0.00     0.080 A 
ENDROOT
BRANCH   5   6
HETATM    6  C   UNL     1     -42.896  56.746 -56.238  1.00  0.00     0.255 C 
HETATM    7  N   UNL     1     -43.608  56.011 -57.162  1.00  0.00    -0.352 N 
HETATM    8  H   UNL     1     -44.117  55.214 -56.813  1.00  0.00     0.163 HD
HETATM    9  O   UNL     1     -42.121  57.639 -56.552  1.00  0.00    -0.268 OA
BRANCH   7  10
HETATM   10  C   UNL     1     -43.576  56.142 -58.618  1.00  0.00     0.084 C 
HETATM   11  C   UNL     1     -43.552  54.803 -59.365  1.00  0.00     0.028 C 
HETATM   12  C   UNL     1     -44.915  54.280 -59.814  1.00  0.00     0.034 C 
HETATM   13  C   UNL     1     -45.763  55.357 -60.480  1.00  0.00     0.118 C 
HETATM   14  C   UNL     1     -45.926  56.584 -59.589  1.00  0.00     0.034 C 
HETATM   15  C   UNL     1     -44.580  57.166 -59.161  1.00  0.00     0.028 C 
BRANCH  13  16
HETATM   16  O   UNL     1     -45.131  55.741 -61.702  1.00  0.00    -0.396 OA
HETATM   17  H   UNL     1     -45.825  55.785 -62.382  1.00  0.00     0.210 HD
ENDBRANCH  13  16
ENDBRANCH   7  10
ENDBRANCH   5   6
BRANCH   1  18
HETATM   18  C   UNL     1     -43.556  58.636 -53.576  1.00  0.00    -0.005 A 
HETATM   19  C   UNL     1     -42.502  59.390 -53.038  1.00  0.00     0.014 A 
HETATM   20  C   UNL     1     -42.629  60.771 -52.841  1.00  0.00     0.008 A 
HETATM   21  C   UNL     1     -43.818  61.430 -53.167  1.00  0.00    -0.059 A 
HETATM   22  C   UNL     1     -44.869  60.672 -53.709  1.00  0.00     0.008 A 
HETATM   23  C   UNL     1     -44.744  59.291 -53.902  1.00  0.00     0.014 A 
BRANCH  21  24
HETATM   24  C   UNL     1     -44.031  62.914 -52.973  1.00  0.00     0.034 C 
HETATM   25  C   UNL     1     -44.724  63.662 -54.106  1.00  0.00     0.010 C 
ENDBRANCH  21  24
ENDBRANCH   1  18
BRANCH   3  26
HETATM   26  C   UNL     1     -43.333  54.090 -52.019  1.00  0.00     0.189 C 
BRANCH  26  27
HETATM   27  C   UNL     1     -42.118  54.127 -51.121  1.00  0.00    -0.038 A 
HETATM   28  C   UNL     1     -40.890  53.591 -51.543  1.00  0.00     0.009 A 
HETATM   29  C   UNL     1     -39.770  53.639 -50.713  1.00  0.00     0.001 A 
HETATM   30  C   UNL     1     -39.858  54.237 -49.458  1.00  0.00     0.000 A 
HETATM   31  C   UNL     1     -41.065  54.791 -49.034  1.00  0.00     0.001 A 
HETATM   32  C   UNL     1     -42.188  54.740 -49.861  1.00  0.00     0.009 A 
ENDBRANCH  26  27
ENDBRANCH   3  26
TORSDOF 7
ENDMDL
MODEL 10
REMARK VINA RESULT:      -7.6      2.428      7.236
REMARK  7 active torsions:
REMARK  status: ('A' for Active; 'I' for Inactive)
REMARK    1  A    between atoms: C_2  and  C_3 
REMARK    2  A    between atoms: C_6  and  C_7 
REMARK    3  A    between atoms: N_9  and  C_10 
REMARK    4  A    between atoms: C_10  and  C_11 
REMARK    5  A    between atoms: C_18  and  C_19 
REMARK       I    between atoms: C_19  and  N_20 
REMARK    6  A    between atoms: N_20  and  C_21 
REMARK    7  A    between atoms: C_24  and  O_25 
ROOT
HETATM    1  C   UNL     1     -41.662  55.286 -53.011  1.00  0.00     0.104 A 
HETATM    2  N   UNL     1     -40.716  54.343 -52.827  1.00  0.00    -0.171 NA
HETATM    3  N   UNL     1     -40.607  54.217 -51.501  1.00  0.00    -0.275 N 
HETATM    4  C   UNL     1     -41.426  55.058 -50.811  1.00  0.00     0.132 A 
HETATM    5  C   UNL     1     -42.177  55.750 -51.751  1.00  0.00     0.080 A 
ENDROOT
BRANCH   5   6
HETATM    6  C   UNL     1     -43.244  56.713 -51.475  1.00  0.00     0.255 C 
HETATM    7  N   UNL     1     -42.957  58.004 -51.864  1.00  0.00    -0.352 N 
HETATM    8  H   UNL     1     -42.016  58.186 -52.179  1.00  0.00     0.163 HD
HETATM    9  O   UNL     1     -44.295  56.399 -50.935  1.00  0.00    -0.268 OA
BRANCH   7  10
HETATM   10  C   UNL     1     -43.803  59.187 -51.714  1.00  0.00     0.084 C 
HETATM   11  C   UNL     1     -43.026  60.508 -51.656  1.00  0.00     0.028 C 
HETATM   12  C   UNL     1     -42.881  61.240 -52.989  1.00  0.00     0.034 C 
HETATM   13  C   UNL     1     -44.193  61.315 -53.761  1.00  0.00     0.118 C 
HETATM   14  C   UNL     1     -44.808  59.936 -53.970  1.00  0.00     0.034 C 
HETATM   15  C   UNL     1     -45.017  59.192 -52.652  1.00  0.00     0.028 C 
BRANCH  13  16
HETATM   16  O   UNL     1     -45.105  62.133 -53.025  1.00  0.00    -0.396 OA
HETATM   17  H   UNL     1     -45.802  61.547 -52.683  1.00  0.00     0.210 HD
ENDBRANCH  13  16
ENDBRANCH   7  10
ENDBRANCH   5   6
BRANCH   1  18
HETATM   18  C   UNL     1     -42.022  55.646 -54.384  1.00  0.00    -0.005 A 
HETATM   19  C   UNL     1     -42.002  56.995 -54.770  1.00  0.00     0.014 A 
HETATM   20  C   UNL     1     -42.405  57.386 -56.052  1.00  0.00     0.008 A 
HETATM   21  C   UNL     1     -42.847  56.438 -56.979  1.00  0.00    -0.059 A 
HETATM   22  C   UNL     1     -42.861  55.088 -56.592  1.00  0.00     0.008 A 
HETATM   23  C   UNL     1     -42.463  54.697 -55.307  1.00  0.00     0.014 A 
BRANCH  21  24
HETATM   24  C   UNL     1     -43.305  56.786 -58.378  1.00  0.00     0.034 C 
HETATM   25  C   UNL     1     -43.962  55.671 -59.182  1.00  0.00     0.010 C 
ENDBRANCH  21  24
ENDBRANCH   1  18
BRANCH   3  26
HETATM   26  C   UNL     1     -39.682  53.238 -50.940  1.00  0.00     0.189 C 
BRANCH  26  27
HETATM   27  C   UNL     1     -39.677  51.948 -51.726  1.00  0.00    -0.038 A 
HETATM   28  C   UNL     1     -39.677  50.704 -51.074  1.00  0.00     0.009 A 
HETATM   29  C   UNL     1     -39.683  49.517 -51.807  1.00  0.00     0.001 A 
HETATM   30  C   UNL     1     -39.707  49.557 -53.199  1.00  0.00     0.000 A 
HETATM   31  C   UNL     1     -39.728  50.785 -53.860  1.00  0.00     0.001 A 
HETATM   32  C   UNL     1     -39.716  51.974 -53.128  1.00  0.00     0.009 A 
ENDBRANCH  26  27
ENDBRANCH   3  26
TORSDOF 7
ENDMDL
