MODEL 1
REMARK VINA RESULT:      -8.0      0.000      0.000
REMARK  8 active torsions:
REMARK  status: ('A' for Active; 'I' for Inactive)
REMARK    1  A    between atoms: C_2  and  N_3 
REMARK    2  A    between atoms: N_3  and  C_5 
REMARK    3  A    between atoms: N_3  and  C_29 
REMARK    4  A    between atoms: C_5  and  C_6 
REMARK    5  A    between atoms: C_6  and  N_7 
REMARK       I    between atoms: N_7  and  C_8 
REMARK    6  A    between atoms: C_8  and  C_9 
REMARK    7  A    between atoms: C_9  and  O_10 
REMARK    8  A    between atoms: N_11  and  C_12 
ROOT
HETATM    1  C   UNL     1     -41.637  55.950 -53.893  1.00  0.00     0.256 C 
HETATM    2  N   UNL     1     -41.902  54.796 -53.026  1.00  0.00    -0.254 N 
HETATM    3  C   UNL     1     -42.896  54.887 -52.065  1.00  0.00     0.330 C 
HETATM    4  O   UNL     1     -43.482  53.924 -51.572  1.00  0.00    -0.246 OA
HETATM    5  N   UNL     1     -43.251  56.139 -51.648  1.00  0.00    -0.308 N 
HETATM    6  C   UNL     1     -42.624  57.313 -52.049  1.00  0.00     0.048 A 
HETATM    7  C   UNL     1     -41.769  57.265 -53.149  1.00  0.00     0.034 A 
HETATM    8  C   UNL     1     -42.883  58.508 -51.382  1.00  0.00     0.030 A 
HETATM    9  C   UNL     1     -42.266  59.681 -51.813  1.00  0.00     0.002 A 
HETATM   10  C   UNL     1     -41.403  59.654 -52.907  1.00  0.00     0.001 A 
HETATM   11  C   UNL     1     -41.158  58.455 -53.577  1.00  0.00     0.015 A 
HETATM   12  H   UNL     1     -43.872  56.150 -50.846  1.00  0.00     0.170 HD
ENDROOT
BRANCH   1  13
HETATM   13  C   UNL     1     -42.651  55.903 -55.120  1.00  0.00     0.279 C 
HETATM   14  N   UNL     1     -42.133  55.811 -56.407  1.00  0.00    -0.355 N 
HETATM   15  H   UNL     1     -41.180  55.460 -56.473  1.00  0.00     0.162 HD
HETATM   16  O   UNL     1     -43.869  56.028 -54.962  1.00  0.00    -0.268 OA
BRANCH  14  17
HETATM   17  C   UNL     1     -43.016  55.459 -57.517  1.00  0.00     0.150 C 
BRANCH  17  18
HETATM   18  C   UNL     1     -43.397  56.646 -58.419  1.00  0.00     0.254 C 
BRANCH  18  19
HETATM   19  N   UNL     1     -44.912  56.818 -58.497  1.00  0.00    -0.070 N 
HETATM   20  H   UNL     1     -45.288  56.018 -57.965  1.00  0.00     0.279 HD
BRANCH  19  21
HETATM   21  C   UNL     1     -45.444  56.671 -59.911  1.00  0.00     0.230 C 
HETATM   22  C   UNL     1     -45.304  55.238 -60.394  1.00  0.00     0.034 C 
ENDBRANCH  19  21
BRANCH  19  23
HETATM   23  C   UNL     1     -45.460  58.044 -57.797  1.00  0.00     0.230 C 
HETATM   24  C   UNL     1     -46.978  58.069 -57.760  1.00  0.00     0.034 C 
ENDBRANCH  19  23
ENDBRANCH  18  19
ENDBRANCH  17  18
ENDBRANCH  14  17
ENDBRANCH   1  13
BRANCH   1  25
HETATM   25  O   UNL     1     -40.294  55.906 -54.368  1.00  0.00    -0.359 OA
HETATM   26  H   UNL     1     -40.126  56.750 -54.819  1.00  0.00     0.213 HD
ENDBRANCH   1  25
BRANCH   2  27
HETATM   27  C   UNL     1     -41.178  53.567 -53.152  1.00  0.00     0.043 A 
HETATM   28  C   UNL     1     -40.276  53.109 -52.184  1.00  0.00     0.031 A 
HETATM   29  C   UNL     1     -39.640  51.868 -52.328  1.00  0.00     0.026 A 
HETATM   30  C   UNL     1     -39.907  51.070 -53.437  1.00  0.00     0.034 A 
HETATM   31 CL   UNL     1     -39.142  49.540 -53.595  1.00  0.00    -0.084 Cl
HETATM   32  C   UNL     1     -40.790  51.511 -54.416  1.00  0.00     0.026 A 
HETATM   33  C   UNL     1     -41.410  52.757 -54.279  1.00  0.00     0.031 A 
ENDBRANCH   2  27
TORSDOF 8
ENDMDL
MODEL 2
REMARK VINA RESULT:      -7.2      3.485      6.009
REMARK  8 active torsions:
REMARK  status: ('A' for Active; 'I' for Inactive)
REMARK    1  A    between atoms: C_2  and  N_3 
REMARK    2  A    between atoms: N_3  and  C_5 
REMARK    3  A    between atoms: N_3  and  C_29 
REMARK    4  A    between atoms: C_5  and  C_6 
REMARK    5  A    between atoms: C_6  and  N_7 
REMARK       I    between atoms: N_7  and  C_8 
REMARK    6  A    between atoms: C_8  and  C_9 
REMARK    7  A    between atoms: C_9  and  O_10 
REMARK    8  A    between atoms: N_11  and  C_12 
ROOT
HETATM    1  C   UNL     1     -43.645  56.734 -54.755  1.00  0.00     0.256 C 
HETATM    2  N   UNL     1     -43.243  57.892 -53.949  1.00  0.00    -0.254 N 
HETATM    3  C   UNL     1     -41.895  58.173 -53.795  1.00  0.00     0.330 C 
HETATM    4  O   UNL     1     -41.439  59.281 -53.512  1.00  0.00    -0.246 OA
HETATM    5  N   UNL     1     -41.015  57.145 -53.984  1.00  0.00    -0.308 N 
HETATM    6  C   UNL     1     -41.382  55.825 -54.223  1.00  0.00     0.048 A 
HETATM    7  C   UNL     1     -42.703  55.559 -54.576  1.00  0.00     0.034 A 
HETATM    8  C   UNL     1     -40.431  54.811 -54.147  1.00  0.00     0.030 A 
HETATM    9  C   UNL     1     -40.809  53.496 -54.415  1.00  0.00     0.002 A 
HETATM   10  C   UNL     1     -42.127  53.207 -54.763  1.00  0.00     0.001 A 
HETATM   11  C   UNL     1     -43.070  54.231 -54.850  1.00  0.00     0.015 A 
HETATM   12  H   UNL     1     -40.060  57.361 -53.720  1.00  0.00     0.170 HD
ENDROOT
BRANCH   1  13
HETATM   13  C   UNL     1     -43.693  57.177 -56.285  1.00  0.00     0.279 C 
HETATM   14  N   UNL     1     -44.935  57.360 -56.884  1.00  0.00    -0.355 N 
HETATM   15  H   UNL     1     -45.712  57.515 -56.246  1.00  0.00     0.162 HD
HETATM   16  O   UNL     1     -42.668  57.279 -56.965  1.00  0.00    -0.268 OA
BRANCH  14  17
HETATM   17  C   UNL     1     -45.021  58.052 -58.168  1.00  0.00     0.150 C 
BRANCH  17  18
HETATM   18  C   UNL     1     -45.407  57.143 -59.349  1.00  0.00     0.254 C 
BRANCH  18  19
HETATM   19  N   UNL     1     -44.201  56.844 -60.236  1.00  0.00    -0.070 N 
HETATM   20  H   UNL     1     -44.606  56.701 -61.175  1.00  0.00     0.279 HD
BRANCH  19  21
HETATM   21  C   UNL     1     -43.515  55.542 -59.870  1.00  0.00     0.230 C 
HETATM   22  C   UNL     1     -44.534  54.437 -59.653  1.00  0.00     0.034 C 
ENDBRANCH  19  21
BRANCH  19  23
HETATM   23  C   UNL     1     -43.223  57.988 -60.404  1.00  0.00     0.230 C 
HETATM   24  C   UNL     1     -41.779  57.554 -60.230  1.00  0.00     0.034 C 
ENDBRANCH  19  23
ENDBRANCH  18  19
ENDBRANCH  17  18
ENDBRANCH  14  17
ENDBRANCH   1  13
BRANCH   1  25
HETATM   25  O   UNL     1     -44.928  56.271 -54.341  1.00  0.00    -0.359 OA
HETATM   26  H   UNL     1     -44.815  55.879 -53.459  1.00  0.00     0.213 HD
ENDBRANCH   1  25
BRANCH   2  27
HETATM   27  C   UNL     1     -44.201  58.757 -53.328  1.00  0.00     0.043 A 
HETATM   28  C   UNL     1     -44.507  58.702 -51.963  1.00  0.00     0.031 A 
HETATM   29  C   UNL     1     -45.408  59.612 -51.393  1.00  0.00     0.026 A 
HETATM   30  C   UNL     1     -46.003  60.592 -52.182  1.00  0.00     0.034 A 
HETATM   31 CL   UNL     1     -47.087  61.720 -51.473  1.00  0.00    -0.084 Cl
HETATM   32  C   UNL     1     -45.723  60.658 -53.542  1.00  0.00     0.026 A 
HETATM   33  C   UNL     1     -44.838  59.737 -54.112  1.00  0.00     0.031 A 
ENDBRANCH   2  27
TORSDOF 8
ENDMDL
MODEL 3
REMARK VINA RESULT:      -7.0      1.439      1.862
REMARK  8 active torsions:
REMARK  status: ('A' for Active; 'I' for Inactive)
REMARK    1  A    between atoms: C_2  and  N_3 
REMARK    2  A    between atoms: N_3  and  C_5 
REMARK    3  A    between atoms: N_3  and  C_29 
REMARK    4  A    between atoms: C_5  and  C_6 
REMARK    5  A    between atoms: C_6  and  N_7 
REMARK       I    between atoms: N_7  and  C_8 
REMARK    6  A    between atoms: C_8  and  C_9 
REMARK    7  A    between atoms: C_9  and  O_10 
REMARK    8  A    between atoms: N_11  and  C_12 
ROOT
HETATM    1  C   UNL     1     -42.277  57.155 -52.910  1.00  0.00     0.256 C 
HETATM    2  N   UNL     1     -42.513  56.073 -51.946  1.00  0.00    -0.254 N 
HETATM    3  C   UNL     1     -43.627  56.131 -51.125  1.00  0.00     0.330 C 
HETATM    4  O   UNL     1     -44.153  55.155 -50.590  1.00  0.00    -0.246 OA
HETATM    5  N   UNL     1     -44.181  57.361 -50.907  1.00  0.00    -0.308 N 
HETATM    6  C   UNL     1     -43.653  58.559 -51.372  1.00  0.00     0.048 A 
HETATM    7  C   UNL     1     -42.663  58.511 -52.351  1.00  0.00     0.034 A 
HETATM    8  C   UNL     1     -44.139  59.772 -50.889  1.00  0.00     0.030 A 
HETATM    9  C   UNL     1     -43.616  60.965 -51.385  1.00  0.00     0.002 A 
HETATM   10  C   UNL     1     -42.621  60.939 -52.360  1.00  0.00     0.001 A 
HETATM   11  C   UNL     1     -42.149  59.720 -52.847  1.00  0.00     0.015 A 
HETATM   12  H   UNL     1     -44.898  57.373 -50.190  1.00  0.00     0.170 HD
ENDROOT
BRANCH   1  13
HETATM   13  C   UNL     1     -43.111  56.842 -54.231  1.00  0.00     0.279 C 
HETATM   14  N   UNL     1     -42.417  56.618 -55.416  1.00  0.00    -0.355 N 
HETATM   15  H   UNL     1     -41.441  56.350 -55.310  1.00  0.00     0.162 HD
HETATM   16  O   UNL     1     -44.344  56.877 -54.246  1.00  0.00    -0.268 OA
BRANCH  14  17
HETATM   17  C   UNL     1     -43.114  56.034 -56.560  1.00  0.00     0.150 C 
BRANCH  17  18
HETATM   18  C   UNL     1     -43.427  57.035 -57.685  1.00  0.00     0.254 C 
BRANCH  18  19
HETATM   19  N   UNL     1     -44.454  56.469 -58.662  1.00  0.00    -0.070 N 
HETATM   20  H   UNL     1     -45.083  55.903 -58.071  1.00  0.00     0.279 HD
BRANCH  19  21
HETATM   21  C   UNL     1     -43.840  55.510 -59.665  1.00  0.00     0.230 C 
HETATM   22  C   UNL     1     -44.667  54.241 -59.773  1.00  0.00     0.034 C 
ENDBRANCH  19  21
BRANCH  19  23
HETATM   23  C   UNL     1     -45.356  57.494 -59.317  1.00  0.00     0.230 C 
HETATM   24  C   UNL     1     -44.586  58.514 -60.137  1.00  0.00     0.034 C 
ENDBRANCH  19  23
ENDBRANCH  18  19
ENDBRANCH  17  18
ENDBRANCH  14  17
ENDBRANCH   1  13
BRANCH   1  25
HETATM   25  O   UNL     1     -40.889  57.241 -53.218  1.00  0.00    -0.359 OA
HETATM   26  H   UNL     1     -40.506  57.899 -52.614  1.00  0.00     0.213 HD
ENDBRANCH   1  25
BRANCH   2  27
HETATM   27  C   UNL     1     -41.636  54.946 -51.838  1.00  0.00     0.043 A 
HETATM   28  C   UNL     1     -40.790  54.739 -50.742  1.00  0.00     0.031 A 
HETATM   29  C   UNL     1     -39.997  53.587 -50.657  1.00  0.00     0.026 A 
HETATM   30  C   UNL     1     -40.049  52.626 -51.663  1.00  0.00     0.034 A 
HETATM   31 CL   UNL     1     -39.093  51.204 -51.540  1.00  0.00    -0.084 Cl
HETATM   32  C   UNL     1     -40.874  52.817 -52.766  1.00  0.00     0.026 A 
HETATM   33  C   UNL     1     -41.651  53.976 -52.857  1.00  0.00     0.031 A 
ENDBRANCH   2  27
TORSDOF 8
ENDMDL
MODEL 4
REMARK VINA RESULT:      -7.0      4.186      8.507
REMARK  8 active torsions:
REMARK  status: ('A' for Active; 'I' for Inactive)
REMARK    1  A    between atoms: C_2  and  N_3 
REMARK    2  A    between atoms: N_3  and  C_5 
REMARK    3  A    between atoms: N_3  and  C_29 
REMARK    4  A    between atoms: C_5  and  C_6 
REMARK    5  A    between atoms: C_6  and  N_7 
REMARK       I    between atoms: N_7  and  C_8 
REMARK    6  A    between atoms: C_8  and  C_9 
REMARK    7  A    between atoms: C_9  and  O_10 
REMARK    8  A    between atoms: N_11  and  C_12 
ROOT
HETATM    1  C   UNL     1     -42.894  57.858 -58.624  1.00  0.00     0.256 C 
HETATM    2  N   UNL     1     -43.305  59.247 -58.863  1.00  0.00    -0.254 N 
HETATM    3  C   UNL     1     -44.656  59.554 -58.902  1.00  0.00     0.330 C 
HETATM    4  O   UNL     1     -45.125  60.671 -58.690  1.00  0.00    -0.246 OA
HETATM    5  N   UNL     1     -45.522  58.535 -59.184  1.00  0.00    -0.308 N 
HETATM    6  C   UNL     1     -45.138  57.244 -59.527  1.00  0.00     0.048 A 
HETATM    7  C   UNL     1     -43.816  56.864 -59.303  1.00  0.00     0.034 A 
HETATM    8  C   UNL     1     -46.073  56.350 -60.044  1.00  0.00     0.030 A 
HETATM    9  C   UNL     1     -45.678  55.051 -60.358  1.00  0.00     0.002 A 
HETATM   10  C   UNL     1     -44.359  54.653 -60.147  1.00  0.00     0.001 A 
HETATM   11  C   UNL     1     -43.432  55.551 -59.617  1.00  0.00     0.015 A 
HETATM   12  H   UNL     1     -46.477  58.835 -59.345  1.00  0.00     0.170 HD
ENDROOT
BRANCH   1  13
HETATM   13  C   UNL     1     -42.867  57.605 -57.051  1.00  0.00     0.279 C 
HETATM   14  N   UNL     1     -42.020  56.620 -56.552  1.00  0.00    -0.355 N 
HETATM   15  H   UNL     1     -41.252  56.351 -57.161  1.00  0.00     0.162 HD
HETATM   16  O   UNL     1     -43.631  58.197 -56.284  1.00  0.00    -0.268 OA
BRANCH  14  17
HETATM   17  C   UNL     1     -41.742  56.568 -55.118  1.00  0.00     0.150 C 
BRANCH  17  18
HETATM   18  C   UNL     1     -40.863  55.380 -54.690  1.00  0.00     0.254 C 
BRANCH  18  19
HETATM   19  N   UNL     1     -41.713  54.203 -54.217  1.00  0.00    -0.070 N 
HETATM   20  H   UNL     1     -41.969  53.708 -55.086  1.00  0.00     0.279 HD
BRANCH  19  21
HETATM   21  C   UNL     1     -43.020  54.645 -53.583  1.00  0.00     0.230 C 
HETATM   22  C   UNL     1     -43.109  54.167 -52.144  1.00  0.00     0.034 C 
ENDBRANCH  19  21
BRANCH  19  23
HETATM   23  C   UNL     1     -40.983  53.173 -53.382  1.00  0.00     0.230 C 
HETATM   24  C   UNL     1     -40.332  52.090 -54.224  1.00  0.00     0.034 C 
ENDBRANCH  19  23
ENDBRANCH  18  19
ENDBRANCH  17  18
ENDBRANCH  14  17
ENDBRANCH   1  13
BRANCH   1  25
HETATM   25  O   UNL     1     -41.600  57.629 -59.177  1.00  0.00    -0.359 OA
HETATM   26  H   UNL     1     -41.116  58.470 -59.119  1.00  0.00     0.213 HD
ENDBRANCH   1  25
BRANCH   2  27
HETATM   27  C   UNL     1     -42.354  60.303 -59.040  1.00  0.00     0.043 A 
HETATM   28  C   UNL     1     -41.621  60.855 -57.983  1.00  0.00     0.031 A 
HETATM   29  C   UNL     1     -40.657  61.845 -58.220  1.00  0.00     0.026 A 
HETATM   30  C   UNL     1     -40.412  62.285 -59.518  1.00  0.00     0.034 A 
HETATM   31 CL   UNL     1     -39.213  63.481 -59.804  1.00  0.00    -0.084 Cl
HETATM   32  C   UNL     1     -41.137  61.759 -60.580  1.00  0.00     0.026 A 
HETATM   33  C   UNL     1     -42.111  60.784 -60.339  1.00  0.00     0.031 A 
ENDBRANCH   2  27
TORSDOF 8
ENDMDL
MODEL 5
REMARK VINA RESULT:      -6.9      3.596      5.903
REMARK  8 active torsions:
REMARK  status: ('A' for Active; 'I' for Inactive)
REMARK    1  A    between atoms: C_2  and  N_3 
REMARK    2  A    between atoms: N_3  and  C_5 
REMARK    3  A    between atoms: N_3  and  C_29 
REMARK    4  A    between atoms: C_5  and  C_6 
REMARK    5  A    between atoms: C_6  and  N_7 
REMARK       I    between atoms: N_7  and  C_8 
REMARK    6  A    between atoms: C_8  and  C_9 
REMARK    7  A    between atoms: C_9  and  O_10 
REMARK    8  A    between atoms: N_11  and  C_12 
ROOT
HETATM    1  C   UNL     1     -43.145  56.816 -52.627  1.00  0.00     0.256 C 
HETATM    2  N   UNL     1     -43.092  58.186 -52.104  1.00  0.00    -0.254 N 
HETATM    3  C   UNL     1     -41.937  58.625 -51.476  1.00  0.00     0.330 C 
HETATM    4  O   UNL     1     -41.609  59.805 -51.362  1.00  0.00    -0.246 OA
HETATM    5  N   UNL     1     -41.105  57.672 -50.959  1.00  0.00    -0.308 N 
HETATM    6  C   UNL     1     -41.381  56.310 -50.936  1.00  0.00     0.048 A 
HETATM    7  C   UNL     1     -42.424  55.832 -51.727  1.00  0.00     0.034 A 
HETATM    8  C   UNL     1     -40.599  55.451 -50.167  1.00  0.00     0.030 A 
HETATM    9  C   UNL     1     -40.872  54.085 -50.175  1.00  0.00     0.002 A 
HETATM   10  C   UNL     1     -41.916  53.586 -50.954  1.00  0.00     0.001 A 
HETATM   11  C   UNL     1     -42.685  54.452 -51.731  1.00  0.00     0.015 A 
HETATM   12  H   UNL     1     -40.354  58.043 -50.387  1.00  0.00     0.170 HD
ENDROOT
BRANCH   1  13
HETATM   13  C   UNL     1     -42.502  56.808 -54.085  1.00  0.00     0.279 C 
HETATM   14  N   UNL     1     -43.222  56.230 -55.126  1.00  0.00    -0.355 N 
HETATM   15  H   UNL     1     -44.223  56.142 -54.971  1.00  0.00     0.162 HD
HETATM   16  O   UNL     1     -41.358  57.223 -54.293  1.00  0.00    -0.268 OA
BRANCH  14  17
HETATM   17  C   UNL     1     -42.812  56.474 -56.507  1.00  0.00     0.150 C 
BRANCH  17  18
HETATM   18  C   UNL     1     -43.777  57.372 -57.300  1.00  0.00     0.254 C 
BRANCH  18  19
HETATM   19  N   UNL     1     -44.545  56.572 -58.349  1.00  0.00    -0.070 N 
HETATM   20  H   UNL     1     -45.182  55.975 -57.798  1.00  0.00     0.279 HD
BRANCH  19  21
HETATM   21  C   UNL     1     -43.653  55.626 -59.132  1.00  0.00     0.230 C 
HETATM   22  C   UNL     1     -44.457  54.469 -59.697  1.00  0.00     0.034 C 
ENDBRANCH  19  21
BRANCH  19  23
HETATM   23  C   UNL     1     -45.454  57.386 -59.246  1.00  0.00     0.230 C 
HETATM   24  C   UNL     1     -46.806  57.665 -58.613  1.00  0.00     0.034 C 
ENDBRANCH  19  23
ENDBRANCH  18  19
ENDBRANCH  17  18
ENDBRANCH  14  17
ENDBRANCH   1  13
BRANCH   1  25
HETATM   25  O   UNL     1     -44.497  56.368 -52.689  1.00  0.00    -0.359 OA
HETATM   26  H   UNL     1     -44.578  55.826 -53.492  1.00  0.00     0.213 HD
ENDBRANCH   1  25
BRANCH   2  27
HETATM   27  C   UNL     1     -44.191  59.095 -52.237  1.00  0.00     0.043 A 
HETATM   28  C   UNL     1     -44.481  59.773 -53.427  1.00  0.00     0.031 A 
HETATM   29  C   UNL     1     -45.605  60.605 -53.521  1.00  0.00     0.026 A 
HETATM   30  C   UNL     1     -46.454  60.759 -52.429  1.00  0.00     0.034 A 
HETATM   31 CL   UNL     1     -47.844  61.761 -52.559  1.00  0.00    -0.084 Cl
HETATM   32  C   UNL     1     -46.178  60.105 -51.234  1.00  0.00     0.026 A 
HETATM   33  C   UNL     1     -45.045  59.289 -51.137  1.00  0.00     0.031 A 
ENDBRANCH   2  27
TORSDOF 8
ENDMDL
MODEL 6
REMARK VINA RESULT:      -6.7      1.951      2.834
REMARK  8 active torsions:
REMARK  status: ('A' for Active; 'I' for Inactive)
REMARK    1  A    between atoms: C_2  and  N_3 
REMARK    2  A    between atoms: N_3  and  C_5 
REMARK    3  A    between atoms: N_3  and  C_29 
REMARK    4  A    between atoms: C_5  and  C_6 
REMARK    5  A    between atoms: C_6  and  N_7 
REMARK       I    between atoms: N_7  and  C_8 
REMARK    6  A    between atoms: C_8  and  C_9 
REMARK    7  A    between atoms: C_9  and  O_10 
REMARK    8  A    between atoms: N_11  and  C_12 
ROOT
HETATM    1  C   UNL     1     -42.100  57.865 -52.855  1.00  0.00     0.256 C 
HETATM    2  N   UNL     1     -42.686  56.619 -53.364  1.00  0.00    -0.254 N 
HETATM    3  C   UNL     1     -44.025  56.598 -53.719  1.00  0.00     0.330 C 
HETATM    4  O   UNL     1     -44.528  55.795 -54.504  1.00  0.00    -0.246 OA
HETATM    5  N   UNL     1     -44.836  57.547 -53.161  1.00  0.00    -0.308 N 
HETATM    6  C   UNL     1     -44.432  58.463 -52.197  1.00  0.00     0.048 A 
HETATM    7  C   UNL     1     -43.067  58.633 -51.975  1.00  0.00     0.034 A 
HETATM    8  C   UNL     1     -45.381  59.215 -51.507  1.00  0.00     0.030 A 
HETATM    9  C   UNL     1     -44.958  60.149 -50.562  1.00  0.00     0.002 A 
HETATM   10  C   UNL     1     -43.597  60.330 -50.320  1.00  0.00     0.001 A 
HETATM   11  C   UNL     1     -42.654  59.582 -51.025  1.00  0.00     0.015 A 
HETATM   12  H   UNL     1     -45.825  57.403 -53.335  1.00  0.00     0.170 HD
ENDROOT
BRANCH   1  13
HETATM   13  C   UNL     1     -41.653  58.756 -54.098  1.00  0.00     0.279 C 
HETATM   14  N   UNL     1     -42.269  58.538 -55.326  1.00  0.00    -0.355 N 
HETATM   15  H   UNL     1     -43.169  58.066 -55.288  1.00  0.00     0.162 HD
HETATM   16  O   UNL     1     -40.726  59.567 -54.017  1.00  0.00    -0.268 OA
BRANCH  14  17
HETATM   17  C   UNL     1     -42.113  59.522 -56.395  1.00  0.00     0.150 C 
BRANCH  17  18
HETATM   18  C   UNL     1     -42.180  58.927 -57.813  1.00  0.00     0.254 C 
BRANCH  18  19
HETATM   19  N   UNL     1     -43.138  57.740 -57.871  1.00  0.00    -0.070 N 
HETATM   20  H   UNL     1     -42.997  57.254 -56.972  1.00  0.00     0.279 HD
BRANCH  19  21
HETATM   21  C   UNL     1     -42.766  56.742 -58.952  1.00  0.00     0.230 C 
HETATM   22  C   UNL     1     -43.592  55.474 -58.823  1.00  0.00     0.034 C 
ENDBRANCH  19  21
BRANCH  19  23
HETATM   23  C   UNL     1     -44.610  58.097 -57.895  1.00  0.00     0.230 C 
HETATM   24  C   UNL     1     -44.935  59.176 -58.912  1.00  0.00     0.034 C 
ENDBRANCH  19  23
ENDBRANCH  18  19
ENDBRANCH  17  18
ENDBRANCH  14  17
ENDBRANCH   1  13
BRANCH   1  25
HETATM   25  O   UNL     1     -40.973  57.575 -52.032  1.00  0.00    -0.359 OA
HETATM   26  H   UNL     1     -41.281  56.976 -51.332  1.00  0.00     0.213 HD
ENDBRANCH   1  25
BRANCH   2  27
HETATM   27  C   UNL     1     -41.913  55.424 -53.524  1.00  0.00     0.043 A 
HETATM   28  C   UNL     1     -41.072  55.200 -54.621  1.00  0.00     0.031 A 
HETATM   29  C   UNL     1     -40.290  54.040 -54.698  1.00  0.00     0.026 A 
HETATM   30  C   UNL     1     -40.335  53.097 -53.675  1.00  0.00     0.034 A 
HETATM   31 CL   UNL     1     -39.356  51.688 -53.764  1.00  0.00    -0.084 Cl
HETATM   32  C   UNL     1     -41.173  53.293 -52.583  1.00  0.00     0.026 A 
HETATM   33  C   UNL     1     -41.965  54.444 -52.516  1.00  0.00     0.031 A 
ENDBRANCH   2  27
TORSDOF 8
ENDMDL
MODEL 7
REMARK VINA RESULT:      -6.6      3.226      6.297
REMARK  8 active torsions:
REMARK  status: ('A' for Active; 'I' for Inactive)
REMARK    1  A    between atoms: C_2  and  N_3 
REMARK    2  A    between atoms: N_3  and  C_5 
REMARK    3  A    between atoms: N_3  and  C_29 
REMARK    4  A    between atoms: C_5  and  C_6 
REMARK    5  A    between atoms: C_6  and  N_7 
REMARK       I    between atoms: N_7  and  C_8 
REMARK    6  A    between atoms: C_8  and  C_9 
REMARK    7  A    between atoms: C_9  and  O_10 
REMARK    8  A    between atoms: N_11  and  C_12 
ROOT
HETATM    1  C   UNL     1     -41.587  56.367 -53.825  1.00  0.00     0.256 C 
HETATM    2  N   UNL     1     -42.782  56.584 -54.650  1.00  0.00    -0.254 N 
HETATM    3  C   UNL     1     -44.029  56.578 -54.047  1.00  0.00     0.330 C 
HETATM    4  O   UNL     1     -45.031  57.125 -54.507  1.00  0.00    -0.246 OA
HETATM    5  N   UNL     1     -44.143  55.926 -52.851  1.00  0.00    -0.308 N 
HETATM    6  C   UNL     1     -43.127  55.193 -52.251  1.00  0.00     0.048 A 
HETATM    7  C   UNL     1     -41.827  55.348 -52.729  1.00  0.00     0.034 A 
HETATM    8  C   UNL     1     -43.410  54.358 -51.172  1.00  0.00     0.030 A 
HETATM    9  C   UNL     1     -42.374  53.650 -50.564  1.00  0.00     0.002 A 
HETATM   10  C   UNL     1     -41.068  53.786 -51.031  1.00  0.00     0.001 A 
HETATM   11  C   UNL     1     -40.792  54.634 -52.104  1.00  0.00     0.015 A 
HETATM   12  H   UNL     1     -45.098  55.824 -52.523  1.00  0.00     0.170 HD
ENDROOT
BRANCH   1  13
HETATM   13  C   UNL     1     -41.149  57.765 -53.197  1.00  0.00     0.279 C 
HETATM   14  N   UNL     1     -41.453  58.017 -51.863  1.00  0.00    -0.355 N 
HETATM   15  H   UNL     1     -41.638  57.196 -51.292  1.00  0.00     0.162 HD
HETATM   16  O   UNL     1     -40.628  58.651 -53.881  1.00  0.00    -0.268 OA
BRANCH  14  17
HETATM   17  C   UNL     1     -40.810  59.135 -51.177  1.00  0.00     0.150 C 
BRANCH  17  18
HETATM   18  C   UNL     1     -41.788  60.208 -50.668  1.00  0.00     0.254 C 
BRANCH  18  19
HETATM   19  N   UNL     1     -43.068  60.231 -51.499  1.00  0.00    -0.070 N 
HETATM   20  H   UNL     1     -43.038  59.350 -52.037  1.00  0.00     0.279 HD
BRANCH  19  21
HETATM   21  C   UNL     1     -43.081  61.350 -52.523  1.00  0.00     0.230 C 
HETATM   22  C   UNL     1     -43.865  62.544 -52.008  1.00  0.00     0.034 C 
ENDBRANCH  19  21
BRANCH  19  23
HETATM   23  C   UNL     1     -44.356  60.158 -50.705  1.00  0.00     0.230 C 
HETATM   24  C   UNL     1     -45.132  58.879 -50.962  1.00  0.00     0.034 C 
ENDBRANCH  19  23
ENDBRANCH  18  19
ENDBRANCH  17  18
ENDBRANCH  14  17
ENDBRANCH   1  13
BRANCH   1  25
HETATM   25  O   UNL     1     -40.531  55.839 -54.624  1.00  0.00    -0.359 OA
HETATM   26  H   UNL     1     -40.406  56.453 -55.367  1.00  0.00     0.213 HD
ENDBRANCH   1  25
BRANCH   2  27
HETATM   27  C   UNL     1     -42.701  56.820 -56.060  1.00  0.00     0.043 A 
HETATM   28  C   UNL     1     -42.922  55.820 -57.016  1.00  0.00     0.031 A 
HETATM   29  C   UNL     1     -42.891  56.119 -58.385  1.00  0.00     0.026 A 
HETATM   30  C   UNL     1     -42.648  57.422 -58.810  1.00  0.00     0.034 A 
HETATM   31 CL   UNL     1     -42.635  57.785 -60.490  1.00  0.00    -0.084 Cl
HETATM   32  C   UNL     1     -42.414  58.427 -57.879  1.00  0.00     0.026 A 
HETATM   33  C   UNL     1     -42.427  58.123 -56.514  1.00  0.00     0.031 A 
ENDBRANCH   2  27
TORSDOF 8
ENDMDL
MODEL 8
REMARK VINA RESULT:      -6.5     15.480     18.248
REMARK  8 active torsions:
REMARK  status: ('A' for Active; 'I' for Inactive)
REMARK    1  A    between atoms: C_2  and  N_3 
REMARK    2  A    between atoms: N_3  and  C_5 
REMARK    3  A    between atoms: N_3  and  C_29 
REMARK    4  A    between atoms: C_5  and  C_6 
REMARK    5  A    between atoms: C_6  and  N_7 
REMARK       I    between atoms: N_7  and  C_8 
REMARK    6  A    between atoms: C_8  and  C_9 
REMARK    7  A    between atoms: C_9  and  O_10 
REMARK    8  A    between atoms: N_11  and  C_12 
ROOT
HETATM    1  C   UNL     1     -35.626  39.383 -53.369  1.00  0.00     0.256 C 
HETATM    2  N   UNL     1     -35.880  40.764 -53.797  1.00  0.00    -0.254 N 
HETATM    3  C   UNL     1     -35.760  41.790 -52.873  1.00  0.00     0.330 C 
HETATM    4  O   UNL     1     -35.548  42.968 -53.160  1.00  0.00    -0.246 OA
HETATM    5  N   UNL     1     -35.876  41.461 -51.552  1.00  0.00    -0.308 N 
HETATM    6  C   UNL     1     -36.199  40.194 -51.079  1.00  0.00     0.048 A 
HETATM    7  C   UNL     1     -36.128  39.120 -51.963  1.00  0.00     0.034 A 
HETATM    8  C   UNL     1     -36.544  40.014 -49.741  1.00  0.00     0.030 A 
HETATM    9  C   UNL     1     -36.839  38.734 -49.277  1.00  0.00     0.002 A 
HETATM   10  C   UNL     1     -36.781  37.646 -50.146  1.00  0.00     0.001 A 
HETATM   11  C   UNL     1     -36.422  37.834 -51.481  1.00  0.00     0.015 A 
HETATM   12  H   UNL     1     -35.927  42.258 -50.928  1.00  0.00     0.170 HD
ENDROOT
BRANCH   1  13
HETATM   13  C   UNL     1     -34.059  39.110 -53.459  1.00  0.00     0.279 C 
HETATM   14  N   UNL     1     -33.626  37.822 -53.757  1.00  0.00    -0.355 N 
HETATM   15  H   UNL     1     -34.312  37.222 -54.209  1.00  0.00     0.162 HD
HETATM   16  O   UNL     1     -33.229  39.983 -53.190  1.00  0.00    -0.268 OA
BRANCH  14  17
HETATM   17  C   UNL     1     -32.235  37.601 -54.146  1.00  0.00     0.150 C 
BRANCH  17  18
HETATM   18  C   UNL     1     -32.001  37.590 -55.667  1.00  0.00     0.254 C 
BRANCH  18  19
HETATM   19  N   UNL     1     -32.612  38.821 -56.332  1.00  0.00    -0.070 N 
HETATM   20  H   UNL     1     -33.302  39.165 -55.645  1.00  0.00     0.279 HD
BRANCH  19  21
HETATM   21  C   UNL     1     -33.399  38.479 -57.584  1.00  0.00     0.230 C 
HETATM   22  C   UNL     1     -34.743  37.868 -57.226  1.00  0.00     0.034 C 
ENDBRANCH  19  21
BRANCH  19  23
HETATM   23  C   UNL     1     -31.662  39.980 -56.544  1.00  0.00     0.230 C 
HETATM   24  C   UNL     1     -30.206  39.550 -56.554  1.00  0.00     0.034 C 
ENDBRANCH  19  23
ENDBRANCH  18  19
ENDBRANCH  17  18
ENDBRANCH  14  17
ENDBRANCH   1  13
BRANCH   1  25
HETATM   25  O   UNL     1     -36.329  38.473 -54.211  1.00  0.00    -0.359 OA
HETATM   26  H   UNL     1     -37.180  38.290 -53.779  1.00  0.00     0.213 HD
ENDBRANCH   1  25
BRANCH   2  27
HETATM   27  C   UNL     1     -36.233  41.091 -55.146  1.00  0.00     0.043 A 
HETATM   28  C   UNL     1     -37.558  41.155 -55.594  1.00  0.00     0.031 A 
HETATM   29  C   UNL     1     -37.851  41.540 -56.910  1.00  0.00     0.026 A 
HETATM   30  C   UNL     1     -36.821  41.872 -57.786  1.00  0.00     0.034 A 
HETATM   31 CL   UNL     1     -37.188  42.367 -59.390  1.00  0.00    -0.084 Cl
HETATM   32  C   UNL     1     -35.498  41.804 -57.365  1.00  0.00     0.026 A 
HETATM   33  C   UNL     1     -35.208  41.402 -56.057  1.00  0.00     0.031 A 
ENDBRANCH   2  27
TORSDOF 8
ENDMDL
MODEL 9
REMARK VINA RESULT:      -6.4      1.566      2.318
REMARK  8 active torsions:
REMARK  status: ('A' for Active; 'I' for Inactive)
REMARK    1  A    between atoms: C_2  and  N_3 
REMARK    2  A    between atoms: N_3  and  C_5 
REMARK    3  A    between atoms: N_3  and  C_29 
REMARK    4  A    between atoms: C_5  and  C_6 
REMARK    5  A    between atoms: C_6  and  N_7 
REMARK       I    between atoms: N_7  and  C_8 
REMARK    6  A    between atoms: C_8  and  C_9 
REMARK    7  A    between atoms: C_9  and  O_10 
REMARK    8  A    between atoms: N_11  and  C_12 
ROOT
HETATM    1  C   UNL     1     -41.484  55.912 -53.854  1.00  0.00     0.256 C 
HETATM    2  N   UNL     1     -41.891  54.738 -53.071  1.00  0.00    -0.254 N 
HETATM    3  C   UNL     1     -42.925  54.862 -52.157  1.00  0.00     0.330 C 
HETATM    4  O   UNL     1     -43.615  53.927 -51.751  1.00  0.00    -0.246 OA
HETATM    5  N   UNL     1     -43.197  56.115 -51.685  1.00  0.00    -0.308 N 
HETATM    6  C   UNL     1     -42.454  57.251 -51.984  1.00  0.00     0.048 A 
HETATM    7  C   UNL     1     -41.548  57.190 -53.041  1.00  0.00     0.034 A 
HETATM    8  C   UNL     1     -42.649  58.425 -51.260  1.00  0.00     0.030 A 
HETATM    9  C   UNL     1     -41.914  59.562 -51.590  1.00  0.00     0.002 A 
HETATM   10  C   UNL     1     -40.998  59.521 -52.639  1.00  0.00     0.001 A 
HETATM   11  C   UNL     1     -40.818  58.344 -53.367  1.00  0.00     0.015 A 
HETATM   12  H   UNL     1     -43.858  56.135 -50.915  1.00  0.00     0.170 HD
ENDROOT
BRANCH   1  13
HETATM   13  C   UNL     1     -42.432  56.019 -55.130  1.00  0.00     0.279 C 
HETATM   14  N   UNL     1     -43.474  56.940 -55.108  1.00  0.00    -0.355 N 
HETATM   15  H   UNL     1     -43.377  57.696 -54.435  1.00  0.00     0.162 HD
HETATM   16  O   UNL     1     -42.315  55.255 -56.093  1.00  0.00    -0.268 OA
BRANCH  14  17
HETATM   17  C   UNL     1     -44.161  57.280 -56.352  1.00  0.00     0.150 C 
BRANCH  17  18
HETATM   18  C   UNL     1     -45.372  58.212 -56.167  1.00  0.00     0.254 C 
BRANCH  18  19
HETATM   19  N   UNL     1     -45.235  59.474 -57.016  1.00  0.00    -0.070 N 
HETATM   20  H   UNL     1     -44.841  59.139 -57.909  1.00  0.00     0.279 HD
BRANCH  19  21
HETATM   21  C   UNL     1     -44.222  60.452 -56.449  1.00  0.00     0.230 C 
HETATM   22  C   UNL     1     -44.836  61.833 -56.293  1.00  0.00     0.034 C 
ENDBRANCH  19  21
BRANCH  19  23
HETATM   23  C   UNL     1     -46.539  60.144 -57.393  1.00  0.00     0.230 C 
HETATM   24  C   UNL     1     -47.533  59.182 -58.018  1.00  0.00     0.034 C 
ENDBRANCH  19  23
ENDBRANCH  18  19
ENDBRANCH  17  18
ENDBRANCH  14  17
ENDBRANCH   1  13
BRANCH   1  25
HETATM   25  O   UNL     1     -40.126  55.778 -54.264  1.00  0.00    -0.359 OA
HETATM   26  H   UNL     1     -40.022  56.308 -55.072  1.00  0.00     0.213 HD
ENDBRANCH   1  25
BRANCH   2  27
HETATM   27  C   UNL     1     -41.267  53.460 -53.235  1.00  0.00     0.043 A 
HETATM   28  C   UNL     1     -41.481  52.642 -54.351  1.00  0.00     0.031 A 
HETATM   29  C   UNL     1     -40.797  51.427 -54.491  1.00  0.00     0.026 A 
HETATM   30  C   UNL     1     -39.884  51.023 -53.520  1.00  0.00     0.034 A 
HETATM   31 CL   UNL     1     -39.031  49.545 -53.710  1.00  0.00    -0.084 Cl
HETATM   32  C   UNL     1     -39.665  51.814 -52.398  1.00  0.00     0.026 A 
HETATM   33  C   UNL     1     -40.363  53.017 -52.252  1.00  0.00     0.031 A 
ENDBRANCH   2  27
TORSDOF 8
ENDMDL
MODEL 10
REMARK VINA RESULT:      -6.4      3.617      6.912
REMARK  8 active torsions:
REMARK  status: ('A' for Active; 'I' for Inactive)
REMARK    1  A    between atoms: C_2  and  N_3 
REMARK    2  A    between atoms: N_3  and  C_5 
REMARK    3  A    between atoms: N_3  and  C_29 
REMARK    4  A    between atoms: C_5  and  C_6 
REMARK    5  A    between atoms: C_6  and  N_7 
REMARK       I    between atoms: N_7  and  C_8 
REMARK    6  A    between atoms: C_8  and  C_9 
REMARK    7  A    between atoms: C_9  and  O_10 
REMARK    8  A    between atoms: N_11  and  C_12 
ROOT
HETATM    1  C   UNL     1     -42.602  56.752 -52.089  1.00  0.00     0.256 C 
HETATM    2  N   UNL     1     -43.050  56.277 -53.403  1.00  0.00    -0.254 N 
HETATM    3  C   UNL     1     -43.401  54.945 -53.557  1.00  0.00     0.330 C 
HETATM    4  O   UNL     1     -44.147  54.515 -54.436  1.00  0.00    -0.246 OA
HETATM    5  N   UNL     1     -42.888  54.054 -52.656  1.00  0.00    -0.308 N 
HETATM    6  C   UNL     1     -41.969  54.375 -51.664  1.00  0.00     0.048 A 
HETATM    7  C   UNL     1     -41.757  55.720 -51.367  1.00  0.00     0.034 A 
HETATM    8  C   UNL     1     -41.312  53.364 -50.966  1.00  0.00     0.030 A 
HETATM    9  C   UNL     1     -40.413  53.702 -49.956  1.00  0.00     0.002 A 
HETATM   10  C   UNL     1     -40.182  55.042 -49.647  1.00  0.00     0.001 A 
HETATM   11  C   UNL     1     -40.854  56.047 -50.343  1.00  0.00     0.015 A 
HETATM   12  H   UNL     1     -43.052  53.082 -52.893  1.00  0.00     0.170 HD
ENDROOT
BRANCH   1  13
HETATM   13  C   UNL     1     -43.886  57.122 -51.222  1.00  0.00     0.279 C 
HETATM   14  N   UNL     1     -44.195  58.466 -51.034  1.00  0.00    -0.355 N 
HETATM   15  H   UNL     1     -43.788  59.108 -51.710  1.00  0.00     0.162 HD
HETATM   16  O   UNL     1     -44.557  56.258 -50.651  1.00  0.00    -0.268 OA
BRANCH  14  17
HETATM   17  C   UNL     1     -45.510  58.837 -50.518  1.00  0.00     0.150 C 
BRANCH  17  18
HETATM   18  C   UNL     1     -46.090  60.121 -51.137  1.00  0.00     0.254 C 
BRANCH  18  19
HETATM   19  N   UNL     1     -45.590  61.365 -50.406  1.00  0.00    -0.070 N 
HETATM   20  H   UNL     1     -46.401  62.003 -50.405  1.00  0.00     0.279 HD
BRANCH  19  21
HETATM   21  C   UNL     1     -44.489  62.084 -51.164  1.00  0.00     0.230 C 
HETATM   22  C   UNL     1     -43.232  62.188 -50.318  1.00  0.00     0.034 C 
ENDBRANCH  19  21
BRANCH  19  23
HETATM   23  C   UNL     1     -45.250  61.163 -48.944  1.00  0.00     0.230 C 
HETATM   24  C   UNL     1     -46.174  61.931 -48.016  1.00  0.00     0.034 C 
ENDBRANCH  19  23
ENDBRANCH  18  19
ENDBRANCH  17  18
ENDBRANCH  14  17
ENDBRANCH   1  13
BRANCH   1  25
HETATM   25  O   UNL     1     -41.769  57.898 -52.242  1.00  0.00    -0.359 OA
HETATM   26  H   UNL     1     -41.276  58.002 -51.411  1.00  0.00     0.213 HD
ENDBRANCH   1  25
BRANCH   2  27
HETATM   27  C   UNL     1     -43.156  57.150 -54.533  1.00  0.00     0.043 A 
HETATM   28  C   UNL     1     -42.210  57.179 -55.566  1.00  0.00     0.031 A 
HETATM   29  C   UNL     1     -42.393  58.010 -56.680  1.00  0.00     0.026 A 
HETATM   30  C   UNL     1     -43.527  58.811 -56.776  1.00  0.00     0.034 A 
HETATM   31 CL   UNL     1     -43.756  59.808 -58.157  1.00  0.00    -0.084 Cl
HETATM   32  C   UNL     1     -44.472  58.807 -55.757  1.00  0.00     0.026 A 
HETATM   33  C   UNL     1     -44.279  57.990 -54.638  1.00  0.00     0.031 A 
ENDBRANCH   2  27
TORSDOF 8
ENDMDL
