MODEL 1
REMARK VINA RESULT:      -8.6      0.000      0.000
REMARK  2 active torsions:
REMARK  status: ('A' for Active; 'I' for Inactive)
REMARK    1  A    between atoms: C_5  and  C_7 
REMARK    2  A    between atoms: C_5  and  O_6 
ROOT
HETATM    1  C   UNL     1     -42.533  60.109 -50.811  1.00  0.00     0.050 C 
HETATM    2  C   UNL     1     -42.088  58.991 -51.701  1.00  0.00    -0.035 A 
HETATM    3  C   UNL     1     -42.576  57.699 -51.581  1.00  0.00     0.051 A 
HETATM    4  C   UNL     1     -42.135  56.646 -52.391  1.00  0.00     0.018 A 
HETATM    5  C   UNL     1     -42.887  55.383 -52.036  1.00  0.00     0.198 A 
HETATM    6  C   UNL     1     -43.774  55.874 -50.838  1.00  0.00     0.266 A 
HETATM    7  O   UNL     1     -44.585  55.243 -50.176  1.00  0.00    -0.269 OA
HETATM    8  N   UNL     1     -43.527  57.238 -50.680  1.00  0.00    -0.323 N 
HETATM    9  C   UNL     1     -41.174  56.864 -53.366  1.00  0.00     0.013 A 
HETATM   10  C   UNL     1     -40.648  58.150 -53.495  1.00  0.00     0.001 A 
HETATM   11  C   UNL     1     -41.096  59.199 -52.671  1.00  0.00     0.009 A 
HETATM   12  H   UNL     1     -43.995  57.788 -49.975  1.00  0.00     0.169 HD
ENDROOT
BRANCH   5  13
HETATM   13  C   UNL     1     -41.893  54.326 -51.626  1.00  0.00     0.018 A 
HETATM   14  C   UNL     1     -41.140  53.407 -52.448  1.00  0.00     0.002 A 
HETATM   15  C   UNL     1     -40.337  52.641 -51.599  1.00  0.00     0.043 A 
HETATM   16  C   UNL     1     -41.062  53.146 -53.834  1.00  0.00     0.014 A 
HETATM   17  C   UNL     1     -39.474  51.639 -52.059  1.00  0.00     0.030 A 
HETATM   18  N   UNL     1     -40.570  53.075 -50.317  1.00  0.00    -0.365 N 
HETATM   19  C   UNL     1     -39.427  51.400 -53.433  1.00  0.00     0.002 A 
HETATM   20  C   UNL     1     -40.209  52.142 -54.312  1.00  0.00     0.001 A 
HETATM   21  H   UNL     1     -40.111  52.708 -49.495  1.00  0.00     0.165 HD
HETATM   22  C   UNL     1     -41.499  54.074 -50.320  1.00  0.00     0.100 A 
ENDBRANCH   5  13
BRANCH   5  23
HETATM   23  O   UNL     1     -43.678  54.989 -53.155  1.00  0.00    -0.371 OA
HETATM   24  H   UNL     1     -43.534  54.037 -53.274  1.00  0.00     0.212 HD
ENDBRANCH   5  23
TORSDOF 2
ENDMDL
MODEL 2
REMARK VINA RESULT:      -8.3      1.276      5.418
REMARK  2 active torsions:
REMARK  status: ('A' for Active; 'I' for Inactive)
REMARK    1  A    between atoms: C_5  and  C_7 
REMARK    2  A    between atoms: C_5  and  O_6 
ROOT
HETATM    1  C   UNL     1     -39.573  51.896 -53.960  1.00  0.00     0.050 C 
HETATM    2  C   UNL     1     -40.223  52.505 -52.758  1.00  0.00    -0.035 A 
HETATM    3  C   UNL     1     -41.400  53.235 -52.833  1.00  0.00     0.051 A 
HETATM    4  C   UNL     1     -41.990  53.834 -51.713  1.00  0.00     0.018 A 
HETATM    5  C   UNL     1     -43.275  54.518 -52.123  1.00  0.00     0.198 A 
HETATM    6  C   UNL     1     -43.278  54.275 -53.674  1.00  0.00     0.266 A 
HETATM    7  O   UNL     1     -44.108  54.620 -54.502  1.00  0.00    -0.269 OA
HETATM    8  N   UNL     1     -42.156  53.500 -53.967  1.00  0.00    -0.323 N 
HETATM    9  C   UNL     1     -41.407  53.713 -50.461  1.00  0.00     0.013 A 
HETATM   10  C   UNL     1     -40.211  53.002 -50.359  1.00  0.00     0.001 A 
HETATM   11  C   UNL     1     -39.624  52.409 -51.492  1.00  0.00     0.009 A 
HETATM   12  H   UNL     1     -41.945  53.198 -54.907  1.00  0.00     0.169 HD
ENDROOT
BRANCH   5  13
HETATM   13  C   UNL     1     -43.181  55.979 -51.766  1.00  0.00     0.018 A 
HETATM   14  C   UNL     1     -42.256  56.982 -52.240  1.00  0.00     0.002 A 
HETATM   15  C   UNL     1     -42.593  58.192 -51.628  1.00  0.00     0.043 A 
HETATM   16  C   UNL     1     -41.158  56.983 -53.130  1.00  0.00     0.014 A 
HETATM   17  C   UNL     1     -41.896  59.386 -51.854  1.00  0.00     0.030 A 
HETATM   18  N   UNL     1     -43.682  57.953 -50.826  1.00  0.00    -0.365 N 
HETATM   19  C   UNL     1     -40.812  59.350 -52.731  1.00  0.00     0.002 A 
HETATM   20  C   UNL     1     -40.445  58.166 -53.362  1.00  0.00     0.001 A 
HETATM   21  H   UNL     1     -44.153  58.656 -50.273  1.00  0.00     0.165 HD
HETATM   22  C   UNL     1     -44.039  56.638 -50.896  1.00  0.00     0.100 A 
ENDBRANCH   5  13
BRANCH   5  23
HETATM   23  O   UNL     1     -44.369  53.864 -51.482  1.00  0.00    -0.371 OA
HETATM   24  H   UNL     1     -45.007  54.557 -51.251  1.00  0.00     0.212 HD
ENDBRANCH   5  23
TORSDOF 2
ENDMDL
MODEL 3
REMARK VINA RESULT:      -8.2      1.969      5.830
REMARK  2 active torsions:
REMARK  status: ('A' for Active; 'I' for Inactive)
REMARK    1  A    between atoms: C_5  and  C_7 
REMARK    2  A    between atoms: C_5  and  O_6 
ROOT
HETATM    1  C   UNL     1     -39.522  50.235 -51.349  1.00  0.00     0.050 C 
HETATM    2  C   UNL     1     -39.876  51.588 -51.883  1.00  0.00    -0.035 A 
HETATM    3  C   UNL     1     -40.259  52.638 -51.064  1.00  0.00     0.051 A 
HETATM    4  C   UNL     1     -40.622  53.894 -51.566  1.00  0.00     0.018 A 
HETATM    5  C   UNL     1     -40.947  54.824 -50.419  1.00  0.00     0.198 A 
HETATM    6  C   UNL     1     -40.782  53.868 -49.185  1.00  0.00     0.266 A 
HETATM    7  O   UNL     1     -40.925  54.119 -47.998  1.00  0.00    -0.269 OA
HETATM    8  N   UNL     1     -40.358  52.634 -49.679  1.00  0.00    -0.323 N 
HETATM    9  C   UNL     1     -40.609  54.136 -52.931  1.00  0.00     0.013 A 
HETATM   10  C   UNL     1     -40.248  53.090 -53.781  1.00  0.00     0.001 A 
HETATM   11  C   UNL     1     -39.890  51.831 -53.265  1.00  0.00     0.009 A 
HETATM   12  H   UNL     1     -40.168  51.852 -49.071  1.00  0.00     0.169 HD
ENDROOT
BRANCH   5  13
HETATM   13  C   UNL     1     -42.361  55.321 -50.583  1.00  0.00     0.018 A 
HETATM   14  C   UNL     1     -42.835  56.636 -50.947  1.00  0.00     0.002 A 
HETATM   15  C   UNL     1     -44.230  56.587 -50.988  1.00  0.00     0.043 A 
HETATM   16  C   UNL     1     -42.215  57.871 -51.246  1.00  0.00     0.014 A 
HETATM   17  C   UNL     1     -45.028  57.694 -51.304  1.00  0.00     0.030 A 
HETATM   18  N   UNL     1     -44.601  55.301 -50.679  1.00  0.00    -0.365 N 
HETATM   19  C   UNL     1     -44.385  58.900 -51.584  1.00  0.00     0.002 A 
HETATM   20  C   UNL     1     -42.997  58.991 -51.557  1.00  0.00     0.001 A 
HETATM   21  H   UNL     1     -45.556  54.970 -50.649  1.00  0.00     0.165 HD
HETATM   22  C   UNL     1     -43.497  54.539 -50.430  1.00  0.00     0.100 A 
ENDBRANCH   5  13
BRANCH   5  23
HETATM   23  O   UNL     1     -39.991  55.883 -50.401  1.00  0.00    -0.371 OA
HETATM   24  H   UNL     1     -40.331  56.572 -50.993  1.00  0.00     0.212 HD
ENDBRANCH   5  23
TORSDOF 2
ENDMDL
MODEL 4
REMARK VINA RESULT:      -8.1      1.420      1.957
REMARK  2 active torsions:
REMARK  status: ('A' for Active; 'I' for Inactive)
REMARK    1  A    between atoms: C_5  and  C_7 
REMARK    2  A    between atoms: C_5  and  O_6 
ROOT
HETATM    1  C   UNL     1     -40.973  59.105 -49.784  1.00  0.00     0.050 C 
HETATM    2  C   UNL     1     -41.217  58.593 -51.169  1.00  0.00    -0.035 A 
HETATM    3  C   UNL     1     -41.983  57.467 -51.425  1.00  0.00     0.051 A 
HETATM    4  C   UNL     1     -42.183  56.968 -52.719  1.00  0.00     0.018 A 
HETATM    5  C   UNL     1     -43.092  55.760 -52.661  1.00  0.00     0.198 A 
HETATM    6  C   UNL     1     -43.314  55.610 -51.115  1.00  0.00     0.266 A 
HETATM    7  O   UNL     1     -43.984  54.783 -50.514  1.00  0.00    -0.269 OA
HETATM    8  N   UNL     1     -42.643  56.668 -50.501  1.00  0.00    -0.323 N 
HETATM    9  C   UNL     1     -41.611  57.599 -53.812  1.00  0.00     0.013 A 
HETATM   10  C   UNL     1     -40.816  58.723 -53.582  1.00  0.00     0.001 A 
HETATM   11  C   UNL     1     -40.618  59.211 -52.277  1.00  0.00     0.009 A 
HETATM   12  H   UNL     1     -42.650  56.797 -49.500  1.00  0.00     0.169 HD
ENDROOT
BRANCH   5  13
HETATM   13  C   UNL     1     -42.370  54.581 -53.261  1.00  0.00     0.018 A 
HETATM   14  C   UNL     1     -41.349  53.739 -52.682  1.00  0.00     0.002 A 
HETATM   15  C   UNL     1     -41.014  52.768 -53.629  1.00  0.00     0.043 A 
HETATM   16  C   UNL     1     -40.670  53.706 -51.443  1.00  0.00     0.014 A 
HETATM   17  C   UNL     1     -40.046  51.781 -53.406  1.00  0.00     0.030 A 
HETATM   18  N   UNL     1     -41.800  52.989 -54.734  1.00  0.00    -0.365 N 
HETATM   19  C   UNL     1     -39.387  51.782 -52.175  1.00  0.00     0.002 A 
HETATM   20  C   UNL     1     -39.694  52.730 -51.205  1.00  0.00     0.001 A 
HETATM   21  H   UNL     1     -41.783  52.425 -55.572  1.00  0.00     0.165 HD
HETATM   22  C   UNL     1     -42.607  54.069 -54.529  1.00  0.00     0.100 A 
ENDBRANCH   5  13
BRANCH   5  23
HETATM   23  O   UNL     1     -44.307  56.067 -53.344  1.00  0.00    -0.371 OA
HETATM   24  H   UNL     1     -44.079  56.160 -54.282  1.00  0.00     0.212 HD
ENDBRANCH   5  23
TORSDOF 2
ENDMDL
MODEL 5
REMARK VINA RESULT:      -7.8      1.578      1.988
REMARK  2 active torsions:
REMARK  status: ('A' for Active; 'I' for Inactive)
REMARK    1  A    between atoms: C_5  and  C_7 
REMARK    2  A    between atoms: C_5  and  O_6 
ROOT
HETATM    1  C   UNL     1     -45.167  58.801 -51.663  1.00  0.00     0.050 C 
HETATM    2  C   UNL     1     -43.723  58.426 -51.792  1.00  0.00    -0.035 A 
HETATM    3  C   UNL     1     -43.302  57.305 -52.490  1.00  0.00     0.051 A 
HETATM    4  C   UNL     1     -41.954  56.935 -52.582  1.00  0.00     0.018 A 
HETATM    5  C   UNL     1     -41.826  55.695 -53.439  1.00  0.00     0.198 A 
HETATM    6  C   UNL     1     -43.330  55.377 -53.754  1.00  0.00     0.266 A 
HETATM    7  O   UNL     1     -43.796  54.468 -54.424  1.00  0.00    -0.269 OA
HETATM    8  N   UNL     1     -44.092  56.390 -53.172  1.00  0.00    -0.323 N 
HETATM    9  C   UNL     1     -40.972  57.698 -51.968  1.00  0.00     0.013 A 
HETATM   10  C   UNL     1     -41.370  58.821 -51.241  1.00  0.00     0.001 A 
HETATM   11  C   UNL     1     -42.727  59.178 -51.151  1.00  0.00     0.009 A 
HETATM   12  H   UNL     1     -45.098  56.414 -53.250  1.00  0.00     0.169 HD
ENDROOT
BRANCH   5  13
HETATM   13  C   UNL     1     -41.162  54.613 -52.627  1.00  0.00     0.018 A 
HETATM   14  C   UNL     1     -40.690  53.312 -53.044  1.00  0.00     0.002 A 
HETATM   15  C   UNL     1     -40.129  52.688 -51.927  1.00  0.00     0.043 A 
HETATM   16  C   UNL     1     -40.684  52.599 -54.263  1.00  0.00     0.014 A 
HETATM   17  C   UNL     1     -39.574  51.402 -51.965  1.00  0.00     0.030 A 
HETATM   18  N   UNL     1     -40.235  53.564 -50.874  1.00  0.00    -0.365 N 
HETATM   19  C   UNL     1     -39.593  50.721 -53.183  1.00  0.00     0.002 A 
HETATM   20  C   UNL     1     -40.140  51.309 -54.319  1.00  0.00     0.001 A 
HETATM   21  H   UNL     1     -39.896  53.382 -49.940  1.00  0.00     0.165 HD
HETATM   22  C   UNL     1     -40.853  54.711 -51.277  1.00  0.00     0.100 A 
ENDBRANCH   5  13
BRANCH   5  23
HETATM   23  O   UNL     1     -41.095  56.026 -54.618  1.00  0.00    -0.371 OA
HETATM   24  H   UNL     1     -41.040  56.994 -54.647  1.00  0.00     0.212 HD
ENDBRANCH   5  23
TORSDOF 2
ENDMDL
MODEL 6
REMARK VINA RESULT:      -7.7      1.741      6.037
REMARK  2 active torsions:
REMARK  status: ('A' for Active; 'I' for Inactive)
REMARK    1  A    between atoms: C_5  and  C_7 
REMARK    2  A    between atoms: C_5  and  O_6 
ROOT
HETATM    1  C   UNL     1     -39.483  50.865 -53.987  1.00  0.00     0.050 C 
HETATM    2  C   UNL     1     -40.028  51.879 -53.031  1.00  0.00    -0.035 A 
HETATM    3  C   UNL     1     -40.982  52.816 -53.399  1.00  0.00     0.051 A 
HETATM    4  C   UNL     1     -41.468  53.787 -52.513  1.00  0.00     0.018 A 
HETATM    5  C   UNL     1     -42.519  54.624 -53.207  1.00  0.00     0.198 A 
HETATM    6  C   UNL     1     -42.495  54.020 -54.655  1.00  0.00     0.266 A 
HETATM    7  O   UNL     1     -43.166  54.333 -55.627  1.00  0.00    -0.269 OA
HETATM    8  N   UNL     1     -41.584  52.963 -54.641  1.00  0.00    -0.323 N 
HETATM    9  C   UNL     1     -41.003  53.843 -51.208  1.00  0.00     0.013 A 
HETATM   10  C   UNL     1     -40.027  52.926 -50.817  1.00  0.00     0.001 A 
HETATM   11  C   UNL     1     -39.543  51.959 -51.717  1.00  0.00     0.009 A 
HETATM   12  H   UNL     1     -41.403  52.403 -55.461  1.00  0.00     0.169 HD
ENDROOT
BRANCH   5  13
HETATM   13  C   UNL     1     -42.087  56.068 -53.174  1.00  0.00     0.018 A 
HETATM   14  C   UNL     1     -42.714  57.199 -52.530  1.00  0.00     0.002 A 
HETATM   15  C   UNL     1     -41.916  58.320 -52.773  1.00  0.00     0.043 A 
HETATM   16  C   UNL     1     -43.886  57.384 -51.763  1.00  0.00     0.014 A 
HETATM   17  C   UNL     1     -42.228  59.600 -52.298  1.00  0.00     0.030 A 
HETATM   18  N   UNL     1     -40.841  57.901 -53.518  1.00  0.00    -0.365 N 
HETATM   19  C   UNL     1     -43.397  59.751 -51.551  1.00  0.00     0.002 A 
HETATM   20  C   UNL     1     -44.217  58.659 -51.285  1.00  0.00     0.001 A 
HETATM   21  H   UNL     1     -40.088  58.500 -53.827  1.00  0.00     0.165 HD
HETATM   22  C   UNL     1     -40.934  56.563 -53.768  1.00  0.00     0.100 A 
ENDBRANCH   5  13
BRANCH   5  23
HETATM   23  O   UNL     1     -43.774  54.411 -52.563  1.00  0.00    -0.371 OA
HETATM   24  H   UNL     1     -44.215  53.696 -53.048  1.00  0.00     0.212 HD
ENDBRANCH   5  23
TORSDOF 2
ENDMDL
MODEL 7
REMARK VINA RESULT:      -7.6     15.374     16.997
REMARK  2 active torsions:
REMARK  status: ('A' for Active; 'I' for Inactive)
REMARK    1  A    between atoms: C_5  and  C_7 
REMARK    2  A    between atoms: C_5  and  O_6 
ROOT
HETATM    1  C   UNL     1     -31.904  39.690 -51.991  1.00  0.00     0.050 C 
HETATM    2  C   UNL     1     -32.266  39.971 -53.416  1.00  0.00    -0.035 A 
HETATM    3  C   UNL     1     -33.429  40.635 -53.774  1.00  0.00     0.051 A 
HETATM    4  C   UNL     1     -33.785  40.868 -55.109  1.00  0.00     0.018 A 
HETATM    5  C   UNL     1     -35.082  41.644 -55.159  1.00  0.00     0.198 A 
HETATM    6  C   UNL     1     -35.445  41.747 -53.636  1.00  0.00     0.266 A 
HETATM    7  O   UNL     1     -36.407  42.288 -53.113  1.00  0.00    -0.269 OA
HETATM    8  N   UNL     1     -34.402  41.148 -52.927  1.00  0.00    -0.323 N 
HETATM    9  C   UNL     1     -32.966  40.436 -56.141  1.00  0.00     0.013 A 
HETATM   10  C   UNL     1     -31.799  39.746 -55.809  1.00  0.00     0.001 A 
HETATM   11  C   UNL     1     -31.455  39.513 -54.465  1.00  0.00     0.009 A 
HETATM   12  H   UNL     1     -34.399  41.101 -51.919  1.00  0.00     0.169 HD
ENDROOT
BRANCH   5  13
HETATM   13  C   UNL     1     -36.093  40.847 -55.944  1.00  0.00     0.018 A 
HETATM   14  C   UNL     1     -36.634  41.094 -57.261  1.00  0.00     0.002 A 
HETATM   15  C   UNL     1     -37.521  40.056 -57.554  1.00  0.00     0.043 A 
HETATM   16  C   UNL     1     -36.460  42.101 -58.236  1.00  0.00     0.014 A 
HETATM   17  C   UNL     1     -38.237  39.976 -58.756  1.00  0.00     0.030 A 
HETATM   18  N   UNL     1     -37.519  39.201 -56.479  1.00  0.00    -0.365 N 
HETATM   19  C   UNL     1     -38.049  40.991 -59.694  1.00  0.00     0.002 A 
HETATM   20  C   UNL     1     -37.172  42.041 -59.441  1.00  0.00     0.001 A 
HETATM   21  H   UNL     1     -38.060  38.349 -56.422  1.00  0.00     0.165 HD
HETATM   22  C   UNL     1     -36.677  39.665 -55.512  1.00  0.00     0.100 A 
ENDBRANCH   5  13
BRANCH   5  23
HETATM   23  O   UNL     1     -34.828  42.926 -55.732  1.00  0.00    -0.371 OA
HETATM   24  H   UNL     1     -35.216  42.912 -56.621  1.00  0.00     0.212 HD
ENDBRANCH   5  23
TORSDOF 2
ENDMDL
MODEL 8
REMARK VINA RESULT:      -7.5      2.849      3.592
REMARK  2 active torsions:
REMARK  status: ('A' for Active; 'I' for Inactive)
REMARK    1  A    between atoms: C_5  and  C_7 
REMARK    2  A    between atoms: C_5  and  O_6 
ROOT
HETATM    1  C   UNL     1     -43.102  59.667 -56.811  1.00  0.00     0.050 C 
HETATM    2  C   UNL     1     -43.514  58.844 -55.630  1.00  0.00    -0.035 A 
HETATM    3  C   UNL     1     -42.679  58.618 -54.548  1.00  0.00     0.051 A 
HETATM    4  C   UNL     1     -43.052  57.820 -53.459  1.00  0.00     0.018 A 
HETATM    5  C   UNL     1     -41.939  57.807 -52.435  1.00  0.00     0.198 A 
HETATM    6  C   UNL     1     -40.841  58.666 -53.156  1.00  0.00     0.266 A 
HETATM    7  O   UNL     1     -39.728  58.976 -52.759  1.00  0.00    -0.269 OA
HETATM    8  N   UNL     1     -41.391  59.102 -54.362  1.00  0.00    -0.323 N 
HETATM    9  C   UNL     1     -44.300  57.218 -53.423  1.00  0.00     0.013 A 
HETATM   10  C   UNL     1     -45.154  57.410 -54.510  1.00  0.00     0.001 A 
HETATM   11  C   UNL     1     -44.766  58.209 -55.601  1.00  0.00     0.009 A 
HETATM   12  H   UNL     1     -40.877  59.688 -55.003  1.00  0.00     0.169 HD
ENDROOT
BRANCH   5  13
HETATM   13  C   UNL     1     -41.505  56.381 -52.210  1.00  0.00     0.018 A 
HETATM   14  C   UNL     1     -41.084  55.388 -53.171  1.00  0.00     0.002 A 
HETATM   15  C   UNL     1     -40.761  54.226 -52.464  1.00  0.00     0.043 A 
HETATM   16  C   UNL     1     -40.946  55.358 -54.576  1.00  0.00     0.014 A 
HETATM   17  C   UNL     1     -40.318  53.051 -53.083  1.00  0.00     0.030 A 
HETATM   18  N   UNL     1     -40.959  54.492 -51.132  1.00  0.00    -0.365 N 
HETATM   19  C   UNL     1     -40.201  53.052 -54.474  1.00  0.00     0.002 A 
HETATM   20  C   UNL     1     -40.510  54.189 -55.213  1.00  0.00     0.001 A 
HETATM   21  H   UNL     1     -40.788  53.834 -50.384  1.00  0.00     0.165 HD
HETATM   22  C   UNL     1     -41.407  55.770 -50.968  1.00  0.00     0.100 A 
ENDBRANCH   5  13
BRANCH   5  23
HETATM   23  O   UNL     1     -42.405  58.435 -51.242  1.00  0.00    -0.371 OA
HETATM   24  H   UNL     1     -43.252  58.016 -51.023  1.00  0.00     0.212 HD
ENDBRANCH   5  23
TORSDOF 2
ENDMDL
MODEL 9
REMARK VINA RESULT:      -7.4      2.276      5.842
REMARK  2 active torsions:
REMARK  status: ('A' for Active; 'I' for Inactive)
REMARK    1  A    between atoms: C_5  and  C_7 
REMARK    2  A    between atoms: C_5  and  O_6 
ROOT
HETATM    1  C   UNL     1     -40.081  53.747 -54.977  1.00  0.00     0.050 C 
HETATM    2  C   UNL     1     -41.186  54.118 -54.038  1.00  0.00    -0.035 A 
HETATM    3  C   UNL     1     -42.021  55.203 -54.258  1.00  0.00     0.051 A 
HETATM    4  C   UNL     1     -43.034  55.571 -53.363  1.00  0.00     0.018 A 
HETATM    5  C   UNL     1     -43.785  56.764 -53.910  1.00  0.00     0.198 A 
HETATM    6  C   UNL     1     -42.983  57.061 -55.227  1.00  0.00     0.266 A 
HETATM    7  O   UNL     1     -43.177  57.933 -56.061  1.00  0.00    -0.269 OA
HETATM    8  N   UNL     1     -42.000  56.078 -55.336  1.00  0.00    -0.323 N 
HETATM    9  C   UNL     1     -43.243  54.845 -52.201  1.00  0.00     0.013 A 
HETATM   10  C   UNL     1     -42.402  53.760 -51.942  1.00  0.00     0.001 A 
HETATM   11  C   UNL     1     -41.385  53.404 -52.847  1.00  0.00     0.009 A 
HETATM   12  H   UNL     1     -41.359  56.047 -56.115  1.00  0.00     0.169 HD
ENDROOT
BRANCH   5  13
HETATM   13  C   UNL     1     -43.698  57.890 -52.912  1.00  0.00     0.018 A 
HETATM   14  C   UNL     1     -42.551  58.387 -52.187  1.00  0.00     0.002 A 
HETATM   15  C   UNL     1     -42.981  59.458 -51.399  1.00  0.00     0.043 A 
HETATM   16  C   UNL     1     -41.186  58.032 -52.118  1.00  0.00     0.014 A 
HETATM   17  C   UNL     1     -42.127  60.180 -50.555  1.00  0.00     0.030 A 
HETATM   18  N   UNL     1     -44.323  59.625 -51.636  1.00  0.00    -0.365 N 
HETATM   19  C   UNL     1     -40.786  59.797 -50.504  1.00  0.00     0.002 A 
HETATM   20  C   UNL     1     -40.319  58.738 -51.274  1.00  0.00     0.001 A 
HETATM   21  H   UNL     1     -44.896  60.341 -51.211  1.00  0.00     0.165 HD
HETATM   22  C   UNL     1     -44.763  58.694 -52.530  1.00  0.00     0.100 A 
ENDBRANCH   5  13
BRANCH   5  23
HETATM   23  O   UNL     1     -45.129  56.374 -54.184  1.00  0.00    -0.371 OA
HETATM   24  H   UNL     1     -45.079  55.605 -54.772  1.00  0.00     0.212 HD
ENDBRANCH   5  23
TORSDOF 2
ENDMDL
MODEL 10
REMARK VINA RESULT:      -7.4      2.487      3.670
REMARK  2 active torsions:
REMARK  status: ('A' for Active; 'I' for Inactive)
REMARK    1  A    between atoms: C_5  and  C_7 
REMARK    2  A    between atoms: C_5  and  O_6 
ROOT
HETATM    1  C   UNL     1     -44.281  61.356 -51.460  1.00  0.00     0.050 C 
HETATM    2  C   UNL     1     -44.109  59.870 -51.407  1.00  0.00    -0.035 A 
HETATM    3  C   UNL     1     -42.893  59.249 -51.643  1.00  0.00     0.051 A 
HETATM    4  C   UNL     1     -42.739  57.857 -51.628  1.00  0.00     0.018 A 
HETATM    5  C   UNL     1     -41.291  57.503 -51.883  1.00  0.00     0.198 A 
HETATM    6  C   UNL     1     -40.661  58.921 -52.122  1.00  0.00     0.266 A 
HETATM    7  O   UNL     1     -39.500  59.211 -52.367  1.00  0.00    -0.269 OA
HETATM    8  N   UNL     1     -41.679  59.857 -51.934  1.00  0.00    -0.323 N 
HETATM    9  C   UNL     1     -43.823  57.033 -51.366  1.00  0.00     0.013 A 
HETATM   10  C   UNL     1     -45.065  57.630 -51.146  1.00  0.00     0.001 A 
HETATM   11  C   UNL     1     -45.208  59.030 -51.170  1.00  0.00     0.009 A 
HETATM   12  H   UNL     1     -41.515  60.849 -52.021  1.00  0.00     0.169 HD
ENDROOT
BRANCH   5  13
HETATM   13  C   UNL     1     -41.215  56.621 -53.102  1.00  0.00     0.018 A 
HETATM   14  C   UNL     1     -40.942  55.206 -53.196  1.00  0.00     0.002 A 
HETATM   15  C   UNL     1     -41.005  54.851 -54.545  1.00  0.00     0.043 A 
HETATM   16  C   UNL     1     -40.644  54.186 -52.265  1.00  0.00     0.014 A 
HETATM   17  C   UNL     1     -40.784  53.547 -55.006  1.00  0.00     0.030 A 
HETATM   18  N   UNL     1     -41.316  55.987 -55.251  1.00  0.00    -0.365 N 
HETATM   19  C   UNL     1     -40.482  52.565 -54.061  1.00  0.00     0.002 A 
HETATM   20  C   UNL     1     -40.413  52.877 -52.708  1.00  0.00     0.001 A 
HETATM   21  H   UNL     1     -41.442  56.024 -56.253  1.00  0.00     0.165 HD
HETATM   22  C   UNL     1     -41.438  57.049 -54.404  1.00  0.00     0.100 A 
ENDBRANCH   5  13
BRANCH   5  23
HETATM   23  O   UNL     1     -40.760  56.876 -50.717  1.00  0.00    -0.371 OA
HETATM   24  H   UNL     1     -39.974  57.386 -50.463  1.00  0.00     0.212 HD
ENDBRANCH   5  23
TORSDOF 2
ENDMDL
