MODEL 1
REMARK VINA RESULT:      -8.0      0.000      0.000
REMARK  8 active torsions:
REMARK  status: ('A' for Active; 'I' for Inactive)
REMARK    1  A    between atoms: C_7  and  C_8 
REMARK    2  A    between atoms: C_8  and  O_9 
REMARK    3  A    between atoms: O_9  and  C_10 
REMARK    4  A    between atoms: C_12  and  C_13 
REMARK       I    between atoms: C_13  and  N_14 
REMARK    5  A    between atoms: N_14  and  C_15 
REMARK    6  A    between atoms: C_15  and  C_16 
REMARK    7  A    between atoms: C_19  and  C_20 
REMARK    8  A    between atoms: C_20  and  N_21 
ROOT
HETATM    1  C   UNL     1     -41.763  57.885 -51.207  1.00  0.00     0.252 C 
HETATM    2  N   UNL     1     -42.319  58.942 -51.901  1.00  0.00    -0.353 N 
HETATM    3  O   UNL     1     -40.998  58.028 -50.262  1.00  0.00    -0.268 OA
HETATM    4  H   UNL     1     -42.836  58.775 -52.751  1.00  0.00     0.163 HD
ENDROOT
BRANCH   1   5
HETATM    5  C   UNL     1     -42.115  56.521 -51.688  1.00  0.00     0.034 A 
HETATM    6  C   UNL     1     -41.447  55.426 -51.129  1.00  0.00     0.053 A 
HETATM    7  C   UNL     1     -41.770  54.123 -51.516  1.00  0.00     0.070 A 
HETATM    8  C   UNL     1     -42.754  53.917 -52.484  1.00  0.00     0.037 A 
HETATM    9  C   UNL     1     -43.432  55.007 -53.037  1.00  0.00     0.004 A 
HETATM   10  C   UNL     1     -43.121  56.307 -52.636  1.00  0.00     0.017 A 
BRANCH   7  11
HETATM   11  O   UNL     1     -41.046  53.142 -50.900  1.00  0.00    -0.346 OA
BRANCH  11  12
HETATM   12  C   UNL     1     -39.735  52.889 -51.416  1.00  0.00     0.219 C 
BRANCH  12  13
HETATM   13  C   UNL     1     -39.768  51.765 -52.389  1.00  0.00     0.024 A 
HETATM   14  C   UNL     1     -39.653  50.370 -52.143  1.00  0.00     0.069 A 
HETATM   15  C   UNL     1     -39.476  49.671 -50.848  1.00  0.00     0.073 C 
HETATM   16  N   UNL     1     -39.720  49.665 -53.277  1.00  0.00    -0.133 NA
HETATM   17  O   UNL     1     -39.879  50.589 -54.288  1.00  0.00    -0.217 OA
HETATM   18  C   UNL     1     -39.903  51.840 -53.759  1.00  0.00     0.085 A 
HETATM   19  C   UNL     1     -40.068  52.954 -54.712  1.00  0.00     0.079 C 
ENDBRANCH  12  13
ENDBRANCH  11  12
ENDBRANCH   7  11
ENDBRANCH   1   5
BRANCH   2  20
HETATM   20  C   UNL     1     -42.125  60.308 -51.474  1.00  0.00     0.161 C 
BRANCH  20  21
HETATM   21  C   UNL     1     -43.292  60.921 -50.729  1.00  0.00    -0.041 A 
HETATM   22  C   UNL     1     -43.212  62.134 -50.034  1.00  0.00     0.009 A 
HETATM   23  C   UNL     1     -44.318  62.636 -49.340  1.00  0.00     0.009 A 
HETATM   24  C   UNL     1     -45.533  61.936 -49.329  1.00  0.00    -0.033 A 
HETATM   25  C   UNL     1     -45.625  60.738 -50.048  1.00  0.00     0.009 A 
HETATM   26  C   UNL     1     -44.520  60.240 -50.741  1.00  0.00     0.009 A 
BRANCH  24  27
HETATM   27  C   UNL     1     -46.711  62.460 -48.556  1.00  0.00     0.273 C 
BRANCH  27  28
HETATM   28  N   UNL     1     -46.738  61.984 -47.127  1.00  0.00    -0.067 N 
HETATM   29  H   UNL     1     -47.705  61.691 -46.941  1.00  0.00     0.280 HD
HETATM   30  C   UNL     1     -46.383  63.062 -46.122  1.00  0.00     0.235 C 
HETATM   31  C   UNL     1     -45.104  62.570 -45.473  1.00  0.00     0.029 C 
HETATM   32  C   UNL     1     -45.277  61.066 -45.471  1.00  0.00     0.029 C 
HETATM   33  C   UNL     1     -45.844  60.791 -46.850  1.00  0.00     0.235 C 
ENDBRANCH  27  28
ENDBRANCH  24  27
ENDBRANCH  20  21
ENDBRANCH   2  20
TORSDOF 8
ENDMDL
MODEL 2
REMARK VINA RESULT:      -8.0      5.671      9.366
REMARK  8 active torsions:
REMARK  status: ('A' for Active; 'I' for Inactive)
REMARK    1  A    between atoms: C_7  and  C_8 
REMARK    2  A    between atoms: C_8  and  O_9 
REMARK    3  A    between atoms: O_9  and  C_10 
REMARK    4  A    between atoms: C_12  and  C_13 
REMARK       I    between atoms: C_13  and  N_14 
REMARK    5  A    between atoms: N_14  and  C_15 
REMARK    6  A    between atoms: C_15  and  C_16 
REMARK    7  A    between atoms: C_19  and  C_20 
REMARK    8  A    between atoms: C_20  and  N_21 
ROOT
HETATM    1  C   UNL     1     -42.506  59.353 -55.382  1.00  0.00     0.252 C 
HETATM    2  N   UNL     1     -43.562  58.947 -54.590  1.00  0.00    -0.353 N 
HETATM    3  O   UNL     1     -41.422  59.702 -54.933  1.00  0.00    -0.268 OA
HETATM    4  H   UNL     1     -44.473  58.796 -54.998  1.00  0.00     0.163 HD
ENDROOT
BRANCH   1   5
HETATM    5  C   UNL     1     -42.753  59.379 -56.850  1.00  0.00     0.034 A 
HETATM    6  C   UNL     1     -44.032  59.056 -57.316  1.00  0.00     0.053 A 
HETATM    7  C   UNL     1     -44.326  59.106 -58.681  1.00  0.00     0.070 A 
HETATM    8  C   UNL     1     -43.326  59.461 -59.587  1.00  0.00     0.037 A 
HETATM    9  C   UNL     1     -42.049  59.795 -59.127  1.00  0.00     0.004 A 
HETATM   10  C   UNL     1     -41.762  59.763 -57.761  1.00  0.00     0.017 A 
BRANCH   7  11
HETATM   11  O   UNL     1     -45.608  58.768 -59.007  1.00  0.00    -0.346 OA
BRANCH  11  12
HETATM   12  C   UNL     1     -46.022  57.435 -58.690  1.00  0.00     0.219 C 
BRANCH  12  13
HETATM   13  C   UNL     1     -45.680  56.505 -59.799  1.00  0.00     0.024 A 
HETATM   14  C   UNL     1     -44.494  55.746 -59.991  1.00  0.00     0.069 A 
HETATM   15  C   UNL     1     -43.290  55.679 -59.130  1.00  0.00     0.073 C 
HETATM   16  N   UNL     1     -44.548  55.028 -61.118  1.00  0.00    -0.133 NA
HETATM   17  O   UNL     1     -45.774  55.308 -61.685  1.00  0.00    -0.217 OA
HETATM   18  C   UNL     1     -46.445  56.191 -60.901  1.00  0.00     0.085 A 
HETATM   19  C   UNL     1     -47.785  56.598 -61.367  1.00  0.00     0.079 C 
ENDBRANCH  12  13
ENDBRANCH  11  12
ENDBRANCH   7  11
ENDBRANCH   1   5
BRANCH   2  20
HETATM   20  C   UNL     1     -43.416  58.793 -53.162  1.00  0.00     0.161 C 
BRANCH  20  21
HETATM   21  C   UNL     1     -42.883  57.450 -52.710  1.00  0.00    -0.041 A 
HETATM   22  C   UNL     1     -41.710  57.297 -51.962  1.00  0.00     0.009 A 
HETATM   23  C   UNL     1     -41.253  56.026 -51.598  1.00  0.00     0.009 A 
HETATM   24  C   UNL     1     -41.963  54.877 -51.973  1.00  0.00    -0.033 A 
HETATM   25  C   UNL     1     -43.153  55.027 -52.695  1.00  0.00     0.009 A 
HETATM   26  C   UNL     1     -43.607  56.298 -53.055  1.00  0.00     0.009 A 
BRANCH  24  27
HETATM   27  C   UNL     1     -41.453  53.510 -51.609  1.00  0.00     0.273 C 
BRANCH  27  28
HETATM   28  N   UNL     1     -40.278  53.077 -52.445  1.00  0.00    -0.067 N 
HETATM   29  H   UNL     1     -39.540  53.775 -52.287  1.00  0.00     0.280 HD
HETATM   30  C   UNL     1     -40.569  53.046 -53.932  1.00  0.00     0.235 C 
HETATM   31  C   UNL     1     -40.423  51.588 -54.319  1.00  0.00     0.029 C 
HETATM   32  C   UNL     1     -39.331  51.095 -53.394  1.00  0.00     0.029 C 
HETATM   33  C   UNL     1     -39.706  51.724 -52.066  1.00  0.00     0.235 C 
ENDBRANCH  27  28
ENDBRANCH  24  27
ENDBRANCH  20  21
ENDBRANCH   2  20
TORSDOF 8
ENDMDL
MODEL 3
REMARK VINA RESULT:      -8.0      4.465      7.540
REMARK  8 active torsions:
REMARK  status: ('A' for Active; 'I' for Inactive)
REMARK    1  A    between atoms: C_7  and  C_8 
REMARK    2  A    between atoms: C_8  and  O_9 
REMARK    3  A    between atoms: O_9  and  C_10 
REMARK    4  A    between atoms: C_12  and  C_13 
REMARK       I    between atoms: C_13  and  N_14 
REMARK    5  A    between atoms: N_14  and  C_15 
REMARK    6  A    between atoms: C_15  and  C_16 
REMARK    7  A    between atoms: C_19  and  C_20 
REMARK    8  A    between atoms: C_20  and  N_21 
ROOT
HETATM    1  C   UNL     1     -41.719  57.251 -53.073  1.00  0.00     0.252 C 
HETATM    2  N   UNL     1     -42.631  57.848 -53.920  1.00  0.00    -0.353 N 
HETATM    3  O   UNL     1     -40.518  57.491 -53.098  1.00  0.00    -0.268 OA
HETATM    4  H   UNL     1     -43.586  57.522 -53.949  1.00  0.00     0.163 HD
ENDROOT
BRANCH   1   5
HETATM    5  C   UNL     1     -42.263  56.248 -52.116  1.00  0.00     0.034 A 
HETATM    6  C   UNL     1     -41.482  55.129 -51.808  1.00  0.00     0.053 A 
HETATM    7  C   UNL     1     -41.930  54.181 -50.885  1.00  0.00     0.070 A 
HETATM    8  C   UNL     1     -43.178  54.344 -50.283  1.00  0.00     0.037 A 
HETATM    9  C   UNL     1     -43.958  55.466 -50.578  1.00  0.00     0.004 A 
HETATM   10  C   UNL     1     -43.501  56.422 -51.487  1.00  0.00     0.017 A 
BRANCH   7  11
HETATM   11  O   UNL     1     -41.077  53.136 -50.672  1.00  0.00    -0.346 OA
BRANCH  11  12
HETATM   12  C   UNL     1     -39.860  53.136 -51.426  1.00  0.00     0.219 C 
BRANCH  12  13
HETATM   13  C   UNL     1     -39.872  52.041 -52.433  1.00  0.00     0.024 A 
HETATM   14  C   UNL     1     -39.686  50.646 -52.234  1.00  0.00     0.069 A 
HETATM   15  C   UNL     1     -39.438  49.918 -50.968  1.00  0.00     0.073 C 
HETATM   16  N   UNL     1     -39.756  49.973 -53.387  1.00  0.00    -0.133 NA
HETATM   17  O   UNL     1     -39.988  50.920 -54.364  1.00  0.00    -0.217 OA
HETATM   18  C   UNL     1     -40.052  52.151 -53.795  1.00  0.00     0.085 A 
HETATM   19  C   UNL     1     -40.298  53.285 -54.707  1.00  0.00     0.079 C 
ENDBRANCH  12  13
ENDBRANCH  11  12
ENDBRANCH   7  11
ENDBRANCH   1   5
BRANCH   2  20
HETATM   20  C   UNL     1     -42.238  58.900 -54.828  1.00  0.00     0.161 C 
BRANCH  20  21
HETATM   21  C   UNL     1     -42.421  58.584 -56.297  1.00  0.00    -0.041 A 
HETATM   22  C   UNL     1     -42.314  59.543 -57.311  1.00  0.00     0.009 A 
HETATM   23  C   UNL     1     -42.522  59.195 -58.651  1.00  0.00     0.009 A 
HETATM   24  C   UNL     1     -42.840  57.876 -59.005  1.00  0.00    -0.033 A 
HETATM   25  C   UNL     1     -42.918  56.909 -57.997  1.00  0.00     0.009 A 
HETATM   26  C   UNL     1     -42.708  57.259 -56.661  1.00  0.00     0.009 A 
BRANCH  24  27
HETATM   27  C   UNL     1     -43.095  57.511 -60.441  1.00  0.00     0.273 C 
BRANCH  27  28
HETATM   28  N   UNL     1     -44.561  57.386 -60.766  1.00  0.00    -0.067 N 
HETATM   29  H   UNL     1     -44.650  57.588 -61.770  1.00  0.00     0.280 HD
HETATM   30  C   UNL     1     -45.434  58.373 -60.019  1.00  0.00     0.235 C 
HETATM   31  C   UNL     1     -46.323  57.510 -59.145  1.00  0.00     0.029 C 
HETATM   32  C   UNL     1     -46.525  56.266 -59.985  1.00  0.00     0.029 C 
HETATM   33  C   UNL     1     -45.136  56.002 -60.533  1.00  0.00     0.235 C 
ENDBRANCH  27  28
ENDBRANCH  24  27
ENDBRANCH  20  21
ENDBRANCH   2  20
TORSDOF 8
ENDMDL
MODEL 4
REMARK VINA RESULT:      -8.0      5.330      8.510
REMARK  8 active torsions:
REMARK  status: ('A' for Active; 'I' for Inactive)
REMARK    1  A    between atoms: C_7  and  C_8 
REMARK    2  A    between atoms: C_8  and  O_9 
REMARK    3  A    between atoms: O_9  and  C_10 
REMARK    4  A    between atoms: C_12  and  C_13 
REMARK       I    between atoms: C_13  and  N_14 
REMARK    5  A    between atoms: N_14  and  C_15 
REMARK    6  A    between atoms: C_15  and  C_16 
REMARK    7  A    between atoms: C_19  and  C_20 
REMARK    8  A    between atoms: C_20  and  N_21 
ROOT
HETATM    1  C   UNL     1     -43.281  55.682 -54.319  1.00  0.00     0.252 C 
HETATM    2  N   UNL     1     -42.611  55.176 -55.415  1.00  0.00    -0.353 N 
HETATM    3  O   UNL     1     -44.407  56.159 -54.380  1.00  0.00    -0.268 OA
HETATM    4  H   UNL     1     -41.638  54.916 -55.339  1.00  0.00     0.163 HD
ENDROOT
BRANCH   1   5
HETATM    5  C   UNL     1     -42.548  55.652 -53.024  1.00  0.00     0.034 A 
HETATM    6  C   UNL     1     -42.075  54.421 -52.555  1.00  0.00     0.053 A 
HETATM    7  C   UNL     1     -41.346  54.346 -51.366  1.00  0.00     0.070 A 
HETATM    8  C   UNL     1     -41.106  55.508 -50.631  1.00  0.00     0.037 A 
HETATM    9  C   UNL     1     -41.566  56.742 -51.100  1.00  0.00     0.004 A 
HETATM   10  C   UNL     1     -42.279  56.818 -52.298  1.00  0.00     0.017 A 
BRANCH   7  11
HETATM   11  O   UNL     1     -40.942  53.089 -51.016  1.00  0.00    -0.346 OA
BRANCH  11  12
HETATM   12  C   UNL     1     -39.631  52.695 -51.434  1.00  0.00     0.219 C 
BRANCH  12  13
HETATM   13  C   UNL     1     -39.706  51.519 -52.343  1.00  0.00     0.024 A 
HETATM   14  C   UNL     1     -39.901  51.492 -53.750  1.00  0.00     0.069 A 
HETATM   15  C   UNL     1     -40.073  52.631 -54.682  1.00  0.00     0.073 C 
HETATM   16  N   UNL     1     -39.921  50.240 -54.218  1.00  0.00    -0.133 NA
HETATM   17  O   UNL     1     -39.741  49.423 -53.121  1.00  0.00    -0.217 OA
HETATM   18  C   UNL     1     -39.618  50.186 -52.004  1.00  0.00     0.085 A 
HETATM   19  C   UNL     1     -39.417  49.464 -50.732  1.00  0.00     0.079 C 
ENDBRANCH  12  13
ENDBRANCH  11  12
ENDBRANCH   7  11
ENDBRANCH   1   5
BRANCH   2  20
HETATM   20  C   UNL     1     -43.251  55.068 -56.705  1.00  0.00     0.161 C 
BRANCH  20  21
HETATM   21  C   UNL     1     -42.853  56.126 -57.712  1.00  0.00    -0.041 A 
HETATM   22  C   UNL     1     -42.399  57.400 -57.353  1.00  0.00     0.009 A 
HETATM   23  C   UNL     1     -42.072  58.347 -58.330  1.00  0.00     0.009 A 
HETATM   24  C   UNL     1     -42.192  58.037 -59.692  1.00  0.00    -0.033 A 
HETATM   25  C   UNL     1     -42.617  56.753 -60.056  1.00  0.00     0.009 A 
HETATM   26  C   UNL     1     -42.940  55.811 -59.077  1.00  0.00     0.009 A 
BRANCH  24  27
HETATM   27  C   UNL     1     -41.872  59.065 -60.742  1.00  0.00     0.273 C 
BRANCH  27  28
HETATM   28  N   UNL     1     -42.766  60.275 -60.673  1.00  0.00    -0.067 N 
HETATM   29  H   UNL     1     -42.769  60.575 -59.690  1.00  0.00     0.280 HD
HETATM   30  C   UNL     1     -44.201  59.993 -61.071  1.00  0.00     0.235 C 
HETATM   31  C   UNL     1     -44.423  60.830 -62.315  1.00  0.00     0.029 C 
HETATM   32  C   UNL     1     -43.563  62.050 -62.066  1.00  0.00     0.029 C 
HETATM   33  C   UNL     1     -42.288  61.453 -61.501  1.00  0.00     0.235 C 
ENDBRANCH  27  28
ENDBRANCH  24  27
ENDBRANCH  20  21
ENDBRANCH   2  20
TORSDOF 8
ENDMDL
MODEL 5
REMARK VINA RESULT:      -7.9      4.296      9.279
REMARK  8 active torsions:
REMARK  status: ('A' for Active; 'I' for Inactive)
REMARK    1  A    between atoms: C_7  and  C_8 
REMARK    2  A    between atoms: C_8  and  O_9 
REMARK    3  A    between atoms: O_9  and  C_10 
REMARK    4  A    between atoms: C_12  and  C_13 
REMARK       I    between atoms: C_13  and  N_14 
REMARK    5  A    between atoms: N_14  and  C_15 
REMARK    6  A    between atoms: C_15  and  C_16 
REMARK    7  A    between atoms: C_19  and  C_20 
REMARK    8  A    between atoms: C_20  and  N_21 
ROOT
HETATM    1  C   UNL     1     -43.669  57.658 -51.915  1.00  0.00     0.252 C 
HETATM    2  N   UNL     1     -42.302  57.510 -51.792  1.00  0.00    -0.353 N 
HETATM    3  O   UNL     1     -44.464  57.313 -51.050  1.00  0.00    -0.268 OA
HETATM    4  H   UNL     1     -41.699  57.687 -52.583  1.00  0.00     0.163 HD
ENDROOT
BRANCH   1   5
HETATM    5  C   UNL     1     -44.158  58.243 -53.194  1.00  0.00     0.034 A 
HETATM    6  C   UNL     1     -44.007  57.497 -54.368  1.00  0.00     0.053 A 
HETATM    7  C   UNL     1     -44.487  57.985 -55.586  1.00  0.00     0.070 A 
HETATM    8  C   UNL     1     -45.103  59.236 -55.632  1.00  0.00     0.037 A 
HETATM    9  C   UNL     1     -45.266  59.981 -54.460  1.00  0.00     0.004 A 
HETATM   10  C   UNL     1     -44.803  59.484 -53.241  1.00  0.00     0.017 A 
BRANCH   7  11
HETATM   11  O   UNL     1     -44.278  57.164 -56.658  1.00  0.00    -0.346 OA
BRANCH  11  12
HETATM   12  C   UNL     1     -44.611  57.692 -57.946  1.00  0.00     0.219 C 
BRANCH  12  13
HETATM   13  C   UNL     1     -43.517  57.422 -58.918  1.00  0.00     0.024 A 
HETATM   14  C   UNL     1     -42.366  58.205 -59.201  1.00  0.00     0.069 A 
HETATM   15  C   UNL     1     -41.951  59.493 -58.597  1.00  0.00     0.073 C 
HETATM   16  N   UNL     1     -41.610  57.639 -60.149  1.00  0.00    -0.133 NA
HETATM   17  O   UNL     1     -42.258  56.474 -60.503  1.00  0.00    -0.217 OA
HETATM   18  C   UNL     1     -43.395  56.348 -59.773  1.00  0.00     0.085 A 
HETATM   19  C   UNL     1     -44.213  55.146 -60.029  1.00  0.00     0.079 C 
ENDBRANCH  12  13
ENDBRANCH  11  12
ENDBRANCH   7  11
ENDBRANCH   1   5
BRANCH   2  20
HETATM   20  C   UNL     1     -41.703  57.040 -50.565  1.00  0.00     0.161 C 
BRANCH  20  21
HETATM   21  C   UNL     1     -41.281  55.585 -50.571  1.00  0.00    -0.041 A 
HETATM   22  C   UNL     1     -40.153  55.106 -49.896  1.00  0.00     0.009 A 
HETATM   23  C   UNL     1     -39.799  53.755 -49.962  1.00  0.00     0.009 A 
HETATM   24  C   UNL     1     -40.569  52.849 -50.705  1.00  0.00    -0.033 A 
HETATM   25  C   UNL     1     -41.716  53.319 -51.357  1.00  0.00     0.009 A 
HETATM   26  C   UNL     1     -42.068  54.669 -51.287  1.00  0.00     0.009 A 
BRANCH  24  27
HETATM   27  C   UNL     1     -40.169  51.403 -50.802  1.00  0.00     0.273 C 
BRANCH  27  28
HETATM   28  N   UNL     1     -39.408  51.085 -52.062  1.00  0.00    -0.067 N 
HETATM   29  H   UNL     1     -38.412  51.175 -51.826  1.00  0.00     0.280 HD
HETATM   30  C   UNL     1     -39.698  52.039 -53.203  1.00  0.00     0.235 C 
HETATM   31  C   UNL     1     -40.343  51.175 -54.268  1.00  0.00     0.029 C 
HETATM   32  C   UNL     1     -39.654  49.839 -54.089  1.00  0.00     0.029 C 
HETATM   33  C   UNL     1     -39.622  49.676 -52.582  1.00  0.00     0.235 C 
ENDBRANCH  27  28
ENDBRANCH  24  27
ENDBRANCH  20  21
ENDBRANCH   2  20
TORSDOF 8
ENDMDL
MODEL 6
REMARK VINA RESULT:      -7.7      5.099      9.922
REMARK  8 active torsions:
REMARK  status: ('A' for Active; 'I' for Inactive)
REMARK    1  A    between atoms: C_7  and  C_8 
REMARK    2  A    between atoms: C_8  and  O_9 
REMARK    3  A    between atoms: O_9  and  C_10 
REMARK    4  A    between atoms: C_12  and  C_13 
REMARK       I    between atoms: C_13  and  N_14 
REMARK    5  A    between atoms: N_14  and  C_15 
REMARK    6  A    between atoms: C_15  and  C_16 
REMARK    7  A    between atoms: C_19  and  C_20 
REMARK    8  A    between atoms: C_20  and  N_21 
ROOT
HETATM    1  C   UNL     1     -43.508  58.330 -53.996  1.00  0.00     0.252 C 
HETATM    2  N   UNL     1     -42.231  58.028 -54.425  1.00  0.00    -0.353 N 
HETATM    3  O   UNL     1     -43.952  57.989 -52.907  1.00  0.00    -0.268 OA
HETATM    4  H   UNL     1     -41.957  58.216 -55.378  1.00  0.00     0.163 HD
ENDROOT
BRANCH   1   5
HETATM    5  C   UNL     1     -44.364  59.086 -54.952  1.00  0.00     0.034 A 
HETATM    6  C   UNL     1     -44.795  58.438 -56.115  1.00  0.00     0.053 A 
HETATM    7  C   UNL     1     -45.633  59.090 -57.022  1.00  0.00     0.070 A 
HETATM    8  C   UNL     1     -46.026  60.406 -56.774  1.00  0.00     0.037 A 
HETATM    9  C   UNL     1     -45.608  61.054 -55.608  1.00  0.00     0.004 A 
HETATM   10  C   UNL     1     -44.785  60.395 -54.693  1.00  0.00     0.017 A 
BRANCH   7  11
HETATM   11  O   UNL     1     -45.981  58.352 -58.118  1.00  0.00    -0.346 OA
BRANCH  11  12
HETATM   12  C   UNL     1     -45.364  58.712 -59.359  1.00  0.00     0.219 C 
BRANCH  12  13
HETATM   13  C   UNL     1     -44.532  57.591 -59.871  1.00  0.00     0.024 A 
HETATM   14  C   UNL     1     -44.952  56.376 -60.478  1.00  0.00     0.069 A 
HETATM   15  C   UNL     1     -46.330  55.913 -60.765  1.00  0.00     0.073 C 
HETATM   16  N   UNL     1     -43.909  55.604 -60.801  1.00  0.00    -0.133 NA
HETATM   17  O   UNL     1     -42.785  56.302 -60.408  1.00  0.00    -0.217 OA
HETATM   18  C   UNL     1     -43.158  57.483 -59.851  1.00  0.00     0.085 A 
HETATM   19  C   UNL     1     -42.069  58.358 -59.374  1.00  0.00     0.079 C 
ENDBRANCH  12  13
ENDBRANCH  11  12
ENDBRANCH   7  11
ENDBRANCH   1   5
BRANCH   2  20
HETATM   20  C   UNL     1     -41.278  57.380 -53.554  1.00  0.00     0.161 C 
BRANCH  20  21
HETATM   21  C   UNL     1     -41.160  55.881 -53.732  1.00  0.00    -0.041 A 
HETATM   22  C   UNL     1     -41.878  54.954 -52.968  1.00  0.00     0.009 A 
HETATM   23  C   UNL     1     -41.705  53.579 -53.160  1.00  0.00     0.009 A 
HETATM   24  C   UNL     1     -40.809  53.100 -54.126  1.00  0.00    -0.033 A 
HETATM   25  C   UNL     1     -40.112  54.024 -54.914  1.00  0.00     0.009 A 
HETATM   26  C   UNL     1     -40.288  55.396 -54.720  1.00  0.00     0.009 A 
BRANCH  24  27
HETATM   27  C   UNL     1     -40.600  51.623 -54.310  1.00  0.00     0.273 C 
BRANCH  27  28
HETATM   28  N   UNL     1     -39.535  51.061 -53.405  1.00  0.00    -0.067 N 
HETATM   29  H   UNL     1     -38.634  51.319 -53.827  1.00  0.00     0.280 HD
HETATM   30  C   UNL     1     -39.572  49.551 -53.288  1.00  0.00     0.235 C 
HETATM   31  C   UNL     1     -39.891  49.289 -51.830  1.00  0.00     0.029 C 
HETATM   32  C   UNL     1     -39.211  50.438 -51.118  1.00  0.00     0.029 C 
HETATM   33  C   UNL     1     -39.549  51.627 -51.998  1.00  0.00     0.235 C 
ENDBRANCH  27  28
ENDBRANCH  24  27
ENDBRANCH  20  21
ENDBRANCH   2  20
TORSDOF 8
ENDMDL
MODEL 7
REMARK VINA RESULT:      -7.6      4.980      7.809
REMARK  8 active torsions:
REMARK  status: ('A' for Active; 'I' for Inactive)
REMARK    1  A    between atoms: C_7  and  C_8 
REMARK    2  A    between atoms: C_8  and  O_9 
REMARK    3  A    between atoms: O_9  and  C_10 
REMARK    4  A    between atoms: C_12  and  C_13 
REMARK       I    between atoms: C_13  and  N_14 
REMARK    5  A    between atoms: N_14  and  C_15 
REMARK    6  A    between atoms: C_15  and  C_16 
REMARK    7  A    between atoms: C_19  and  C_20 
REMARK    8  A    between atoms: C_20  and  N_21 
ROOT
HETATM    1  C   UNL     1     -43.436  55.982 -54.203  1.00  0.00     0.252 C 
HETATM    2  N   UNL     1     -42.652  55.760 -55.318  1.00  0.00    -0.353 N 
HETATM    3  O   UNL     1     -44.618  56.298 -54.262  1.00  0.00    -0.268 OA
HETATM    4  H   UNL     1     -41.656  55.631 -55.220  1.00  0.00     0.163 HD
ENDROOT
BRANCH   1   5
HETATM    5  C   UNL     1     -42.761  55.848 -52.883  1.00  0.00     0.034 A 
HETATM    6  C   UNL     1     -42.276  54.590 -52.508  1.00  0.00     0.053 A 
HETATM    7  C   UNL     1     -41.598  54.421 -51.298  1.00  0.00     0.070 A 
HETATM    8  C   UNL     1     -41.424  55.514 -50.449  1.00  0.00     0.037 A 
HETATM    9  C   UNL     1     -41.896  56.775 -50.823  1.00  0.00     0.004 A 
HETATM   10  C   UNL     1     -42.557  56.946 -52.041  1.00  0.00     0.017 A 
BRANCH   7  11
HETATM   11  O   UNL     1     -41.176  53.146 -51.047  1.00  0.00    -0.346 OA
BRANCH  11  12
HETATM   12  C   UNL     1     -39.828  52.832 -51.411  1.00  0.00     0.219 C 
BRANCH  12  13
HETATM   13  C   UNL     1     -39.800  51.707 -52.384  1.00  0.00     0.024 A 
HETATM   14  C   UNL     1     -39.645  50.317 -52.132  1.00  0.00     0.069 A 
HETATM   15  C   UNL     1     -39.476  49.625 -50.833  1.00  0.00     0.073 C 
HETATM   16  N   UNL     1     -39.662  49.609 -53.267  1.00  0.00    -0.133 NA
HETATM   17  O   UNL     1     -39.827  50.527 -54.283  1.00  0.00    -0.217 OA
HETATM   18  C   UNL     1     -39.905  51.777 -53.756  1.00  0.00     0.085 A 
HETATM   19  C   UNL     1     -40.084  52.885 -54.714  1.00  0.00     0.079 C 
ENDBRANCH  12  13
ENDBRANCH  11  12
ENDBRANCH   7  11
ENDBRANCH   1   5
BRANCH   2  20
HETATM   20  C   UNL     1     -43.215  55.770 -56.648  1.00  0.00     0.161 C 
BRANCH  20  21
HETATM   21  C   UNL     1     -43.179  57.111 -57.351  1.00  0.00    -0.041 A 
HETATM   22  C   UNL     1     -44.199  57.567 -58.195  1.00  0.00     0.009 A 
HETATM   23  C   UNL     1     -44.096  58.805 -58.839  1.00  0.00     0.009 A 
HETATM   24  C   UNL     1     -42.969  59.617 -58.650  1.00  0.00    -0.033 A 
HETATM   25  C   UNL     1     -41.962  59.178 -57.782  1.00  0.00     0.009 A 
HETATM   26  C   UNL     1     -42.068  57.943 -57.139  1.00  0.00     0.009 A 
BRANCH  24  27
HETATM   27  C   UNL     1     -42.845  60.932 -59.368  1.00  0.00     0.273 C 
BRANCH  27  28
HETATM   28  N   UNL     1     -41.454  61.194 -59.882  1.00  0.00    -0.067 N 
HETATM   29  H   UNL     1     -40.955  60.296 -59.833  1.00  0.00     0.280 HD
HETATM   30  C   UNL     1     -40.678  62.196 -59.051  1.00  0.00     0.235 C 
HETATM   31  C   UNL     1     -40.435  63.361 -59.989  1.00  0.00     0.029 C 
HETATM   32  C   UNL     1     -40.287  62.691 -61.338  1.00  0.00     0.029 C 
HETATM   33  C   UNL     1     -41.399  61.660 -61.325  1.00  0.00     0.235 C 
ENDBRANCH  27  28
ENDBRANCH  24  27
ENDBRANCH  20  21
ENDBRANCH   2  20
TORSDOF 8
ENDMDL
MODEL 8
REMARK VINA RESULT:      -7.6      5.280      9.381
REMARK  8 active torsions:
REMARK  status: ('A' for Active; 'I' for Inactive)
REMARK    1  A    between atoms: C_7  and  C_8 
REMARK    2  A    between atoms: C_8  and  O_9 
REMARK    3  A    between atoms: O_9  and  C_10 
REMARK    4  A    between atoms: C_12  and  C_13 
REMARK       I    between atoms: C_13  and  N_14 
REMARK    5  A    between atoms: N_14  and  C_15 
REMARK    6  A    between atoms: C_15  and  C_16 
REMARK    7  A    between atoms: C_19  and  C_20 
REMARK    8  A    between atoms: C_20  and  N_21 
ROOT
HETATM    1  C   UNL     1     -43.763  57.972 -54.265  1.00  0.00     0.252 C 
HETATM    2  N   UNL     1     -42.964  58.245 -53.173  1.00  0.00    -0.353 N 
HETATM    3  O   UNL     1     -44.686  57.167 -54.240  1.00  0.00    -0.268 OA
HETATM    4  H   UNL     1     -42.138  58.815 -53.279  1.00  0.00     0.163 HD
ENDROOT
BRANCH   1   5
HETATM    5  C   UNL     1     -43.431  58.694 -55.524  1.00  0.00     0.034 A 
HETATM    6  C   UNL     1     -44.196  58.426 -56.666  1.00  0.00     0.053 A 
HETATM    7  C   UNL     1     -43.950  59.108 -57.861  1.00  0.00     0.070 A 
HETATM    8  C   UNL     1     -42.920  60.047 -57.919  1.00  0.00     0.037 A 
HETATM    9  C   UNL     1     -42.161  60.325 -56.779  1.00  0.00     0.004 A 
HETATM   10  C   UNL     1     -42.419  59.658 -55.581  1.00  0.00     0.017 A 
BRANCH   7  11
HETATM   11  O   UNL     1     -44.763  58.756 -58.901  1.00  0.00    -0.346 OA
BRANCH  11  12
HETATM   12  C   UNL     1     -45.603  57.614 -58.704  1.00  0.00     0.219 C 
BRANCH  12  13
HETATM   13  C   UNL     1     -45.396  56.622 -59.792  1.00  0.00     0.024 A 
HETATM   14  C   UNL     1     -44.228  55.877 -60.108  1.00  0.00     0.069 A 
HETATM   15  C   UNL     1     -42.910  55.892 -59.430  1.00  0.00     0.073 C 
HETATM   16  N   UNL     1     -44.423  55.086 -61.169  1.00  0.00    -0.133 NA
HETATM   17  O   UNL     1     -45.726  55.302 -61.567  1.00  0.00    -0.217 OA
HETATM   18  C   UNL     1     -46.304  56.219 -60.749  1.00  0.00     0.085 A 
HETATM   19  C   UNL     1     -47.709  56.566 -61.038  1.00  0.00     0.079 C 
ENDBRANCH  12  13
ENDBRANCH  11  12
ENDBRANCH   7  11
ENDBRANCH   1   5
BRANCH   2  20
HETATM   20  C   UNL     1     -43.243  57.677 -51.875  1.00  0.00     0.161 C 
BRANCH  20  21
HETATM   21  C   UNL     1     -42.358  56.515 -51.477  1.00  0.00    -0.041 A 
HETATM   22  C   UNL     1     -41.404  56.587 -50.456  1.00  0.00     0.009 A 
HETATM   23  C   UNL     1     -40.595  55.487 -50.152  1.00  0.00     0.009 A 
HETATM   24  C   UNL     1     -40.725  54.286 -50.865  1.00  0.00    -0.033 A 
HETATM   25  C   UNL     1     -41.699  54.201 -51.866  1.00  0.00     0.009 A 
HETATM   26  C   UNL     1     -42.506  55.301 -52.165  1.00  0.00     0.009 A 
BRANCH  24  27
HETATM   27  C   UNL     1     -39.833  53.115 -50.560  1.00  0.00     0.273 C 
BRANCH  27  28
HETATM   28  N   UNL     1     -40.338  51.821 -51.141  1.00  0.00    -0.067 N 
HETATM   29  H   UNL     1     -41.314  51.992 -51.416  1.00  0.00     0.280 HD
HETATM   30  C   UNL     1     -40.333  50.670 -50.155  1.00  0.00     0.235 C 
HETATM   31  C   UNL     1     -39.348  49.676 -50.736  1.00  0.00     0.029 C 
HETATM   32  C   UNL     1     -39.520  49.854 -52.230  1.00  0.00     0.029 C 
HETATM   33  C   UNL     1     -39.596  51.361 -52.381  1.00  0.00     0.235 C 
ENDBRANCH  27  28
ENDBRANCH  24  27
ENDBRANCH  20  21
ENDBRANCH   2  20
TORSDOF 8
ENDMDL
MODEL 9
REMARK VINA RESULT:      -7.5     17.681     20.385
REMARK  8 active torsions:
REMARK  status: ('A' for Active; 'I' for Inactive)
REMARK    1  A    between atoms: C_7  and  C_8 
REMARK    2  A    between atoms: C_8  and  O_9 
REMARK    3  A    between atoms: O_9  and  C_10 
REMARK    4  A    between atoms: C_12  and  C_13 
REMARK       I    between atoms: C_13  and  N_14 
REMARK    5  A    between atoms: N_14  and  C_15 
REMARK    6  A    between atoms: C_15  and  C_16 
REMARK    7  A    between atoms: C_19  and  C_20 
REMARK    8  A    between atoms: C_20  and  N_21 
ROOT
HETATM    1  C   UNL     1     -36.110  41.820 -53.179  1.00  0.00     0.252 C 
HETATM    2  N   UNL     1     -36.405  41.421 -54.467  1.00  0.00    -0.353 N 
HETATM    3  O   UNL     1     -35.499  42.848 -52.916  1.00  0.00    -0.268 OA
HETATM    4  H   UNL     1     -36.793  40.504 -54.639  1.00  0.00     0.163 HD
ENDROOT
BRANCH   1   5
HETATM    5  C   UNL     1     -36.551  40.909 -52.087  1.00  0.00     0.034 A 
HETATM    6  C   UNL     1     -37.818  40.322 -52.181  1.00  0.00     0.053 A 
HETATM    7  C   UNL     1     -38.261  39.428 -51.203  1.00  0.00     0.070 A 
HETATM    8  C   UNL     1     -37.438  39.135 -50.115  1.00  0.00     0.037 A 
HETATM    9  C   UNL     1     -36.168  39.710 -50.022  1.00  0.00     0.004 A 
HETATM   10  C   UNL     1     -35.719  40.589 -51.009  1.00  0.00     0.017 A 
BRANCH   7  11
HETATM   11  O   UNL     1     -39.514  38.925 -51.408  1.00  0.00    -0.346 OA
BRANCH  11  12
HETATM   12  C   UNL     1     -39.935  37.872 -50.534  1.00  0.00     0.219 C 
BRANCH  12  13
HETATM   13  C   UNL     1     -41.324  38.114 -50.059  1.00  0.00     0.024 A 
HETATM   14  C   UNL     1     -42.543  38.006 -50.781  1.00  0.00     0.069 A 
HETATM   15  C   UNL     1     -42.750  37.618 -52.196  1.00  0.00     0.073 C 
HETATM   16  N   UNL     1     -43.595  38.314 -50.014  1.00  0.00    -0.133 NA
HETATM   17  O   UNL     1     -43.079  38.630 -48.774  1.00  0.00    -0.217 OA
HETATM   18  C   UNL     1     -41.727  38.515 -48.803  1.00  0.00     0.085 A 
HETATM   19  C   UNL     1     -41.013  38.819 -47.548  1.00  0.00     0.079 C 
ENDBRANCH  12  13
ENDBRANCH  11  12
ENDBRANCH   7  11
ENDBRANCH   1   5
BRANCH   2  20
HETATM   20  C   UNL     1     -36.110  42.263 -55.603  1.00  0.00     0.161 C 
BRANCH  20  21
HETATM   21  C   UNL     1     -36.341  41.624 -56.956  1.00  0.00    -0.041 A 
HETATM   22  C   UNL     1     -37.072  42.233 -57.982  1.00  0.00     0.009 A 
HETATM   23  C   UNL     1     -37.275  41.580 -59.202  1.00  0.00     0.009 A 
HETATM   24  C   UNL     1     -36.748  40.300 -59.424  1.00  0.00    -0.033 A 
HETATM   25  C   UNL     1     -35.991  39.700 -58.411  1.00  0.00     0.009 A 
HETATM   26  C   UNL     1     -35.788  40.356 -57.194  1.00  0.00     0.009 A 
BRANCH  24  27
HETATM   27  C   UNL     1     -36.995  39.585 -60.723  1.00  0.00     0.273 C 
BRANCH  27  28
HETATM   28  N   UNL     1     -37.877  38.374 -60.572  1.00  0.00    -0.067 N 
HETATM   29  H   UNL     1     -37.322  37.675 -60.062  1.00  0.00     0.280 HD
HETATM   30  C   UNL     1     -38.292  37.757 -61.892  1.00  0.00     0.235 C 
HETATM   31  C   UNL     1     -39.798  37.920 -61.933  1.00  0.00     0.029 C 
HETATM   32  C   UNL     1     -40.196  37.793 -60.477  1.00  0.00     0.029 C 
HETATM   33  C   UNL     1     -39.140  38.618 -59.767  1.00  0.00     0.235 C 
ENDBRANCH  27  28
ENDBRANCH  24  27
ENDBRANCH  20  21
ENDBRANCH   2  20
TORSDOF 8
ENDMDL
MODEL 10
REMARK VINA RESULT:      -7.5     17.651     20.217
REMARK  8 active torsions:
REMARK  status: ('A' for Active; 'I' for Inactive)
REMARK    1  A    between atoms: C_7  and  C_8 
REMARK    2  A    between atoms: C_8  and  O_9 
REMARK    3  A    between atoms: O_9  and  C_10 
REMARK    4  A    between atoms: C_12  and  C_13 
REMARK       I    between atoms: C_13  and  N_14 
REMARK    5  A    between atoms: N_14  and  C_15 
REMARK    6  A    between atoms: C_15  and  C_16 
REMARK    7  A    between atoms: C_19  and  C_20 
REMARK    8  A    between atoms: C_20  and  N_21 
ROOT
HETATM    1  C   UNL     1     -35.860  40.741 -51.966  1.00  0.00     0.252 C 
HETATM    2  N   UNL     1     -36.597  41.437 -52.902  1.00  0.00    -0.353 N 
HETATM    3  O   UNL     1     -34.635  40.719 -51.953  1.00  0.00    -0.268 OA
HETATM    4  H   UNL     1     -37.599  41.317 -52.951  1.00  0.00     0.163 HD
ENDROOT
BRANCH   1   5
HETATM    5  C   UNL     1     -36.634  39.967 -50.957  1.00  0.00     0.034 A 
HETATM    6  C   UNL     1     -37.793  39.303 -51.374  1.00  0.00     0.053 A 
HETATM    7  C   UNL     1     -38.532  38.530 -50.474  1.00  0.00     0.070 A 
HETATM    8  C   UNL     1     -38.119  38.439 -49.145  1.00  0.00     0.037 A 
HETATM    9  C   UNL     1     -36.956  39.091 -48.725  1.00  0.00     0.004 A 
HETATM   10  C   UNL     1     -36.209  39.848 -49.629  1.00  0.00     0.017 A 
BRANCH   7  11
HETATM   11  O   UNL     1     -39.641  37.934 -51.003  1.00  0.00    -0.346 OA
BRANCH  11  12
HETATM   12  C   UNL     1     -40.361  37.040 -50.147  1.00  0.00     0.219 C 
BRANCH  12  13
HETATM   13  C   UNL     1     -41.687  37.612 -49.794  1.00  0.00     0.024 A 
HETATM   14  C   UNL     1     -42.807  37.851 -50.636  1.00  0.00     0.069 A 
HETATM   15  C   UNL     1     -42.946  37.585 -52.087  1.00  0.00     0.073 C 
HETATM   16  N   UNL     1     -43.826  38.388 -49.956  1.00  0.00    -0.133 NA
HETATM   17  O   UNL     1     -43.388  38.512 -48.654  1.00  0.00    -0.217 OA
HETATM   18  C   UNL     1     -42.113  38.054 -48.559  1.00  0.00     0.085 A 
HETATM   19  C   UNL     1     -41.490  38.115 -47.223  1.00  0.00     0.079 C 
ENDBRANCH  12  13
ENDBRANCH  11  12
ENDBRANCH   7  11
ENDBRANCH   1   5
BRANCH   2  20
HETATM   20  C   UNL     1     -35.962  42.296 -53.874  1.00  0.00     0.161 C 
BRANCH  20  21
HETATM   21  C   UNL     1     -36.272  41.971 -55.320  1.00  0.00    -0.041 A 
HETATM   22  C   UNL     1     -35.345  42.116 -56.359  1.00  0.00     0.009 A 
HETATM   23  C   UNL     1     -35.700  41.826 -57.681  1.00  0.00     0.009 A 
HETATM   24  C   UNL     1     -36.992  41.380 -57.993  1.00  0.00    -0.033 A 
HETATM   25  C   UNL     1     -37.912  41.204 -56.953  1.00  0.00     0.009 A 
HETATM   26  C   UNL     1     -37.554  41.493 -55.634  1.00  0.00     0.009 A 
BRANCH  24  27
HETATM   27  C   UNL     1     -37.382  41.100 -59.418  1.00  0.00     0.273 C 
BRANCH  27  28
HETATM   28  N   UNL     1     -37.392  39.631 -59.749  1.00  0.00    -0.067 N 
HETATM   29  H   UNL     1     -36.821  39.171 -59.029  1.00  0.00     0.280 HD
HETATM   30  C   UNL     1     -36.779  39.308 -61.097  1.00  0.00     0.235 C 
HETATM   31  C   UNL     1     -37.923  38.732 -61.907  1.00  0.00     0.029 C 
HETATM   32  C   UNL     1     -38.752  38.011 -60.865  1.00  0.00     0.029 C 
HETATM   33  C   UNL     1     -38.766  38.992 -59.709  1.00  0.00     0.235 C 
ENDBRANCH  27  28
ENDBRANCH  24  27
ENDBRANCH  20  21
ENDBRANCH   2  20
TORSDOF 8
ENDMDL
