MODEL 1
REMARK VINA RESULT:     -10.4      0.000      0.000
REMARK  4 active torsions:
REMARK  status: ('A' for Active; 'I' for Inactive)
REMARK    1  A    between atoms: C_2  and  N_3 
REMARK    2  A    between atoms: C_7  and  N_8 
REMARK       I    between atoms: N_8  and  C_9 
REMARK    3  A    between atoms: C_9  and  C_10 
REMARK    4  A    between atoms: C_10  and  N_11 
ROOT
HETATM    1  N   UNL     1     -41.996  56.189 -56.287  1.00  0.00    -0.326 N 
HETATM    2  C   UNL     1     -43.220  56.793 -56.492  1.00  0.00     0.242 C 
HETATM    3  O   UNL     1     -44.144  56.843 -55.680  1.00  0.00    -0.271 OA
HETATM    4  H   UNL     1     -41.370  56.232 -57.090  1.00  0.00     0.169 HD
ENDROOT
BRANCH   2   5
HETATM    5  C   UNL     1     -43.442  57.307 -57.916  1.00  0.00     0.257 C 
BRANCH   5   6
HETATM    6  N   UNL     1     -42.936  58.639 -58.257  1.00  0.00    -0.224 N 
HETATM    7  N   UNL     1     -42.290  59.363 -57.225  1.00  0.00    -0.180 NA
HETATM    8  C   UNL     1     -41.610  60.436 -57.518  1.00  0.00     0.153 A 
HETATM    9  C   UNL     1     -41.487  60.889 -58.873  1.00  0.00     0.028 A 
HETATM   10  C   UNL     1     -42.129  60.190 -59.861  1.00  0.00     0.116 A 
HETATM   11  C   UNL     1     -40.770  61.951 -59.483  1.00  0.00     0.005 A 
HETATM   12  N   UNL     1     -41.851  60.782 -61.060  1.00  0.00    -0.350 N 
HETATM   13  C   UNL     1     -42.902  59.007 -59.621  1.00  0.00     0.291 A 
HETATM   14  H   UNL     1     -42.187  60.456 -61.957  1.00  0.00     0.166 HD
HETATM   15  C   UNL     1     -41.004  61.852 -60.860  1.00  0.00     0.044 A 
HETATM   16  C   UNL     1     -40.425  62.726 -61.788  1.00  0.00     0.030 A 
HETATM   17  C   UNL     1     -39.584  63.728 -61.297  1.00  0.00     0.002 A 
HETATM   18  C   UNL     1     -39.337  63.855 -59.932  1.00  0.00     0.001 A 
HETATM   19  C   UNL     1     -39.924  62.975 -59.014  1.00  0.00     0.014 A 
HETATM   20  O   UNL     1     -43.433  58.378 -60.528  1.00  0.00    -0.264 OA
ENDBRANCH   5   6
ENDBRANCH   2   5
BRANCH   1  21
HETATM   21  C   UNL     1     -41.548  55.496 -55.143  1.00  0.00     0.035 A 
HETATM   22  C   UNL     1     -41.254  54.128 -55.134  1.00  0.00     0.044 A 
HETATM   23  C   UNL     1     -40.783  53.504 -53.955  1.00  0.00     0.005 A 
HETATM   24  C   UNL     1     -40.635  54.266 -52.797  1.00  0.00     0.046 A 
HETATM   25  C   UNL     1     -40.380  52.166 -53.650  1.00  0.00     0.003 A 
HETATM   26  N   UNL     1     -40.186  53.411 -51.808  1.00  0.00    -0.346 N 
HETATM   27  C   UNL     1     -40.922  55.640 -52.784  1.00  0.00     0.033 A 
HETATM   28  C   UNL     1     -40.007  52.133 -52.306  1.00  0.00     0.046 A 
HETATM   29  C   UNL     1     -39.550  50.953 -51.693  1.00  0.00     0.030 A 
HETATM   30  C   UNL     1     -39.473  49.792 -52.469  1.00  0.00     0.002 A 
HETATM   31  C   UNL     1     -39.840  49.803 -53.810  1.00  0.00     0.001 A 
HETATM   32  C   UNL     1     -40.295  50.981 -54.410  1.00  0.00     0.014 A 
HETATM   33  C   UNL     1     -41.374  56.235 -53.971  1.00  0.00     0.032 A 
BRANCH  26  34
HETATM   34  C   UNL     1     -39.947  53.792 -50.424  1.00  0.00     0.125 C 
HETATM   35  C   UNL     1     -41.236  53.992 -49.647  1.00  0.00     0.027 C 
ENDBRANCH  26  34
ENDBRANCH   1  21
TORSDOF 4
ENDMDL
MODEL 2
REMARK VINA RESULT:     -10.4      3.358      4.767
REMARK  4 active torsions:
REMARK  status: ('A' for Active; 'I' for Inactive)
REMARK    1  A    between atoms: C_2  and  N_3 
REMARK    2  A    between atoms: C_7  and  N_8 
REMARK       I    between atoms: N_8  and  C_9 
REMARK    3  A    between atoms: C_9  and  C_10 
REMARK    4  A    between atoms: C_10  and  N_11 
ROOT
HETATM    1  N   UNL     1     -41.738  56.076 -56.196  1.00  0.00    -0.326 N 
HETATM    2  C   UNL     1     -42.936  56.673 -56.536  1.00  0.00     0.242 C 
HETATM    3  O   UNL     1     -43.955  56.691 -55.846  1.00  0.00    -0.271 OA
HETATM    4  H   UNL     1     -41.018  56.148 -56.913  1.00  0.00     0.169 HD
ENDROOT
BRANCH   2   5
HETATM    5  C   UNL     1     -42.984  57.224 -57.964  1.00  0.00     0.257 C 
BRANCH   5   6
HETATM    6  N   UNL     1     -44.297  57.488 -58.558  1.00  0.00    -0.224 N 
HETATM    7  N   UNL     1     -44.772  58.820 -58.500  1.00  0.00    -0.180 NA
HETATM    8  C   UNL     1     -45.805  59.170 -59.215  1.00  0.00     0.153 A 
HETATM    9  C   UNL     1     -46.461  58.230 -60.077  1.00  0.00     0.028 A 
HETATM   10  C   UNL     1     -46.002  56.940 -60.114  1.00  0.00     0.116 A 
HETATM   11  C   UNL     1     -47.532  58.341 -61.002  1.00  0.00     0.005 A 
HETATM   12  N   UNL     1     -46.754  56.240 -61.015  1.00  0.00    -0.350 N 
HETATM   13  C   UNL     1     -44.880  56.476 -59.355  1.00  0.00     0.291 A 
HETATM   14  H   UNL     1     -46.616  55.265 -61.249  1.00  0.00     0.166 HD
HETATM   15  C   UNL     1     -47.686  57.079 -61.588  1.00  0.00     0.044 A 
HETATM   16  C   UNL     1     -48.639  56.821 -62.581  1.00  0.00     0.030 A 
HETATM   17  C   UNL     1     -49.457  57.879 -62.986  1.00  0.00     0.002 A 
HETATM   18  C   UNL     1     -49.331  59.144 -62.416  1.00  0.00     0.001 A 
HETATM   19  C   UNL     1     -48.375  59.389 -61.423  1.00  0.00     0.014 A 
HETATM   20  O   UNL     1     -44.465  55.325 -59.436  1.00  0.00    -0.264 OA
ENDBRANCH   5   6
ENDBRANCH   2   5
BRANCH   1  21
HETATM   21  C   UNL     1     -41.428  55.356 -55.024  1.00  0.00     0.035 A 
HETATM   22  C   UNL     1     -41.047  54.010 -55.021  1.00  0.00     0.044 A 
HETATM   23  C   UNL     1     -40.724  53.358 -53.808  1.00  0.00     0.005 A 
HETATM   24  C   UNL     1     -40.808  54.071 -52.612  1.00  0.00     0.046 A 
HETATM   25  C   UNL     1     -40.283  52.035 -53.496  1.00  0.00     0.003 A 
HETATM   26  N   UNL     1     -40.461  53.197 -51.599  1.00  0.00    -0.346 N 
HETATM   27  C   UNL     1     -41.186  55.423 -52.591  1.00  0.00     0.033 A 
HETATM   28  C   UNL     1     -40.122  51.958 -52.111  1.00  0.00     0.046 A 
HETATM   29  C   UNL     1     -39.687  50.779 -51.481  1.00  0.00     0.030 A 
HETATM   30  C   UNL     1     -39.413  49.665 -52.280  1.00  0.00     0.002 A 
HETATM   31  C   UNL     1     -39.567  49.719 -53.660  1.00  0.00     0.001 A 
HETATM   32  C   UNL     1     -40.002  50.895 -54.278  1.00  0.00     0.014 A 
HETATM   33  C   UNL     1     -41.487  56.047 -53.810  1.00  0.00     0.032 A 
BRANCH  26  34
HETATM   34  C   UNL     1     -40.466  53.524 -50.181  1.00  0.00     0.125 C 
HETATM   35  C   UNL     1     -39.225  54.291 -49.758  1.00  0.00     0.027 C 
ENDBRANCH  26  34
ENDBRANCH   1  21
TORSDOF 4
ENDMDL
MODEL 3
REMARK VINA RESULT:     -10.2      3.108      4.460
REMARK  4 active torsions:
REMARK  status: ('A' for Active; 'I' for Inactive)
REMARK    1  A    between atoms: C_2  and  N_3 
REMARK    2  A    between atoms: C_7  and  N_8 
REMARK       I    between atoms: N_8  and  C_9 
REMARK    3  A    between atoms: C_9  and  C_10 
REMARK    4  A    between atoms: C_10  and  N_11 
ROOT
HETATM    1  N   UNL     1     -41.998  57.776 -54.306  1.00  0.00    -0.326 N 
HETATM    2  C   UNL     1     -41.483  59.056 -54.325  1.00  0.00     0.242 C 
HETATM    3  O   UNL     1     -40.646  59.509 -53.544  1.00  0.00    -0.271 OA
HETATM    4  H   UNL     1     -42.701  57.598 -55.022  1.00  0.00     0.169 HD
ENDROOT
BRANCH   2   5
HETATM    5  C   UNL     1     -42.149  59.991 -55.339  1.00  0.00     0.257 C 
BRANCH   5   6
HETATM    6  N   UNL     1     -42.721  59.400 -56.551  1.00  0.00    -0.224 N 
HETATM    7  N   UNL     1     -41.849  58.638 -57.365  1.00  0.00    -0.180 NA
HETATM    8  C   UNL     1     -42.340  57.891 -58.315  1.00  0.00     0.153 A 
HETATM    9  C   UNL     1     -43.755  57.813 -58.540  1.00  0.00     0.028 A 
HETATM   10  C   UNL     1     -44.588  58.567 -57.755  1.00  0.00     0.116 A 
HETATM   11  C   UNL     1     -44.559  57.050 -59.426  1.00  0.00     0.005 A 
HETATM   12  N   UNL     1     -45.877  58.314 -58.126  1.00  0.00    -0.350 N 
HETATM   13  C   UNL     1     -44.126  59.417 -56.698  1.00  0.00     0.291 A 
HETATM   14  H   UNL     1     -46.695  58.727 -57.696  1.00  0.00     0.166 HD
HETATM   15  C   UNL     1     -45.890  57.372 -59.135  1.00  0.00     0.044 A 
HETATM   16  C   UNL     1     -46.971  56.780 -59.799  1.00  0.00     0.030 A 
HETATM   17  C   UNL     1     -46.686  55.833 -60.786  1.00  0.00     0.002 A 
HETATM   18  C   UNL     1     -45.371  55.497 -61.101  1.00  0.00     0.001 A 
HETATM   19  C   UNL     1     -44.299  56.097 -60.430  1.00  0.00     0.014 A 
HETATM   20  O   UNL     1     -44.896  60.050 -55.985  1.00  0.00    -0.264 OA
ENDBRANCH   5   6
ENDBRANCH   2   5
BRANCH   1  21
HETATM   21  C   UNL     1     -41.704  56.733 -53.403  1.00  0.00     0.035 A 
HETATM   22  C   UNL     1     -41.238  55.475 -53.798  1.00  0.00     0.044 A 
HETATM   23  C   UNL     1     -40.938  54.485 -52.833  1.00  0.00     0.005 A 
HETATM   24  C   UNL     1     -41.133  54.774 -51.483  1.00  0.00     0.046 A 
HETATM   25  C   UNL     1     -40.430  53.152 -52.925  1.00  0.00     0.003 A 
HETATM   26  N   UNL     1     -40.784  53.639 -50.776  1.00  0.00    -0.346 N 
HETATM   27  C   UNL     1     -41.598  56.030 -51.063  1.00  0.00     0.033 A 
HETATM   28  C   UNL     1     -40.338  52.645 -51.628  1.00  0.00     0.046 A 
HETATM   29  C   UNL     1     -39.862  51.346 -51.373  1.00  0.00     0.030 A 
HETATM   30  C   UNL     1     -39.473  50.559 -52.461  1.00  0.00     0.002 A 
HETATM   31  C   UNL     1     -39.556  51.045 -53.761  1.00  0.00     0.001 A 
HETATM   32  C   UNL     1     -40.033  52.336 -54.005  1.00  0.00     0.014 A 
HETATM   33  C   UNL     1     -41.873  56.997 -52.041  1.00  0.00     0.032 A 
BRANCH  26  34
HETATM   34  C   UNL     1     -40.886  53.494 -49.331  1.00  0.00     0.125 C 
HETATM   35  C   UNL     1     -39.725  54.144 -48.600  1.00  0.00     0.027 C 
ENDBRANCH  26  34
ENDBRANCH   1  21
TORSDOF 4
ENDMDL
MODEL 4
REMARK VINA RESULT:      -9.6      2.631     10.332
REMARK  4 active torsions:
REMARK  status: ('A' for Active; 'I' for Inactive)
REMARK    1  A    between atoms: C_2  and  N_3 
REMARK    2  A    between atoms: C_7  and  N_8 
REMARK       I    between atoms: N_8  and  C_9 
REMARK    3  A    between atoms: C_9  and  C_10 
REMARK    4  A    between atoms: C_10  and  N_11 
ROOT
HETATM    1  N   UNL     1     -42.201  58.555 -53.299  1.00  0.00    -0.326 N 
HETATM    2  C   UNL     1     -41.137  58.496 -52.422  1.00  0.00     0.242 C 
HETATM    3  O   UNL     1     -40.095  59.147 -52.507  1.00  0.00    -0.271 OA
HETATM    4  H   UNL     1     -42.965  57.919 -53.071  1.00  0.00     0.169 HD
ENDROOT
BRANCH   2   5
HETATM    5  C   UNL     1     -41.259  57.410 -51.350  1.00  0.00     0.257 C 
BRANCH   5   6
HETATM    6  N   UNL     1     -41.240  56.010 -51.779  1.00  0.00    -0.224 N 
HETATM    7  N   UNL     1     -41.349  55.764 -53.170  1.00  0.00    -0.180 NA
HETATM    8  C   UNL     1     -41.096  54.573 -53.636  1.00  0.00     0.153 A 
HETATM    9  C   UNL     1     -40.690  53.507 -52.767  1.00  0.00     0.028 A 
HETATM   10  C   UNL     1     -40.603  53.752 -51.422  1.00  0.00     0.116 A 
HETATM   11  C   UNL     1     -40.289  52.165 -52.995  1.00  0.00     0.005 A 
HETATM   12  N   UNL     1     -40.177  52.613 -50.801  1.00  0.00    -0.350 N 
HETATM   13  C   UNL     1     -40.872  55.029 -50.830  1.00  0.00     0.291 A 
HETATM   14  H   UNL     1     -40.011  52.523 -49.807  1.00  0.00     0.166 HD
HETATM   15  C   UNL     1     -39.957  51.630 -51.744  1.00  0.00     0.044 A 
HETATM   16  C   UNL     1     -39.484  50.322 -51.585  1.00  0.00     0.030 A 
HETATM   17  C   UNL     1     -39.346  49.538 -52.734  1.00  0.00     0.002 A 
HETATM   18  C   UNL     1     -39.674  50.041 -53.991  1.00  0.00     0.001 A 
HETATM   19  C   UNL     1     -40.147  51.351 -54.136  1.00  0.00     0.014 A 
HETATM   20  O   UNL     1     -40.748  55.233 -49.628  1.00  0.00    -0.264 OA
ENDBRANCH   5   6
ENDBRANCH   2   5
BRANCH   1  21
HETATM   21  C   UNL     1     -42.325  59.337 -54.466  1.00  0.00     0.035 A 
HETATM   22  C   UNL     1     -42.110  58.839 -55.756  1.00  0.00     0.044 A 
HETATM   23  C   UNL     1     -42.278  59.676 -56.884  1.00  0.00     0.005 A 
HETATM   24  C   UNL     1     -42.642  61.008 -56.693  1.00  0.00     0.046 A 
HETATM   25  C   UNL     1     -42.164  59.454 -58.292  1.00  0.00     0.003 A 
HETATM   26  N   UNL     1     -42.715  61.588 -57.945  1.00  0.00    -0.346 N 
HETATM   27  C   UNL     1     -42.864  61.528 -55.408  1.00  0.00     0.033 A 
HETATM   28  C   UNL     1     -42.445  60.660 -58.935  1.00  0.00     0.046 A 
HETATM   29  C   UNL     1     -42.424  60.775 -60.336  1.00  0.00     0.030 A 
HETATM   30  C   UNL     1     -42.113  59.638 -61.088  1.00  0.00     0.002 A 
HETATM   31  C   UNL     1     -41.829  58.427 -60.468  1.00  0.00     0.001 A 
HETATM   32  C   UNL     1     -41.850  58.322 -59.075  1.00  0.00     0.014 A 
HETATM   33  C   UNL     1     -42.704  60.672 -54.308  1.00  0.00     0.032 A 
BRANCH  26  34
HETATM   34  C   UNL     1     -43.017  62.989 -58.197  1.00  0.00     0.125 C 
HETATM   35  C   UNL     1     -41.801  63.884 -58.033  1.00  0.00     0.027 C 
ENDBRANCH  26  34
ENDBRANCH   1  21
TORSDOF 4
ENDMDL
MODEL 5
REMARK VINA RESULT:      -9.3      3.356      4.557
REMARK  4 active torsions:
REMARK  status: ('A' for Active; 'I' for Inactive)
REMARK    1  A    between atoms: C_2  and  N_3 
REMARK    2  A    between atoms: C_7  and  N_8 
REMARK       I    between atoms: N_8  and  C_9 
REMARK    3  A    between atoms: C_9  and  C_10 
REMARK    4  A    between atoms: C_10  and  N_11 
ROOT
HETATM    1  N   UNL     1     -42.881  57.730 -54.307  1.00  0.00    -0.326 N 
HETATM    2  C   UNL     1     -42.396  58.911 -54.832  1.00  0.00     0.242 C 
HETATM    3  O   UNL     1     -41.264  59.365 -54.661  1.00  0.00    -0.271 OA
HETATM    4  H   UNL     1     -43.854  57.538 -54.542  1.00  0.00     0.169 HD
ENDROOT
BRANCH   2   5
HETATM    5  C   UNL     1     -43.441  59.755 -55.566  1.00  0.00     0.257 C 
BRANCH   5   6
HETATM    6  N   UNL     1     -43.993  59.234 -56.818  1.00  0.00    -0.224 N 
HETATM    7  N   UNL     1     -43.865  57.842 -57.046  1.00  0.00    -0.180 NA
HETATM    8  C   UNL     1     -44.540  57.280 -58.011  1.00  0.00     0.153 A 
HETATM    9  C   UNL     1     -45.428  58.046 -58.837  1.00  0.00     0.028 A 
HETATM   10  C   UNL     1     -45.533  59.394 -58.617  1.00  0.00     0.116 A 
HETATM   11  C   UNL     1     -46.322  57.701 -59.884  1.00  0.00     0.005 A 
HETATM   12  N   UNL     1     -46.446  59.905 -59.495  1.00  0.00    -0.350 N 
HETATM   13  C   UNL     1     -44.820  60.086 -57.585  1.00  0.00     0.291 A 
HETATM   14  H   UNL     1     -46.726  60.876 -59.537  1.00  0.00     0.166 HD
HETATM   15  C   UNL     1     -46.960  58.886 -60.270  1.00  0.00     0.044 A 
HETATM   16  C   UNL     1     -47.941  58.923 -61.268  1.00  0.00     0.030 A 
HETATM   17  C   UNL     1     -48.280  57.719 -61.889  1.00  0.00     0.002 A 
HETATM   18  C   UNL     1     -47.658  56.525 -61.531  1.00  0.00     0.001 A 
HETATM   19  C   UNL     1     -46.677  56.502 -60.531  1.00  0.00     0.014 A 
HETATM   20  O   UNL     1     -44.962  61.287 -57.384  1.00  0.00    -0.264 OA
ENDBRANCH   5   6
ENDBRANCH   2   5
BRANCH   1  21
HETATM   21  C   UNL     1     -42.216  56.814 -53.466  1.00  0.00     0.035 A 
HETATM   22  C   UNL     1     -41.874  55.515 -53.854  1.00  0.00     0.044 A 
HETATM   23  C   UNL     1     -41.183  54.658 -52.965  1.00  0.00     0.005 A 
HETATM   24  C   UNL     1     -40.865  55.121 -51.689  1.00  0.00     0.046 A 
HETATM   25  C   UNL     1     -40.684  53.324 -53.082  1.00  0.00     0.003 A 
HETATM   26  N   UNL     1     -40.220  54.087 -51.037  1.00  0.00    -0.346 N 
HETATM   27  C   UNL     1     -41.197  56.422 -51.278  1.00  0.00     0.033 A 
HETATM   28  C   UNL     1     -40.082  52.990 -51.868  1.00  0.00     0.046 A 
HETATM   29  C   UNL     1     -39.483  51.735 -51.659  1.00  0.00     0.030 A 
HETATM   30  C   UNL     1     -39.498  50.813 -52.709  1.00  0.00     0.002 A 
HETATM   31  C   UNL     1     -40.091  51.125 -53.927  1.00  0.00     0.001 A 
HETATM   32  C   UNL     1     -40.687  52.374 -54.124  1.00  0.00     0.014 A 
HETATM   33  C   UNL     1     -41.869  57.253 -52.185  1.00  0.00     0.032 A 
BRANCH  26  34
HETATM   34  C   UNL     1     -39.759  54.132 -49.657  1.00  0.00     0.125 C 
HETATM   35  C   UNL     1     -40.867  53.822 -48.665  1.00  0.00     0.027 C 
ENDBRANCH  26  34
ENDBRANCH   1  21
TORSDOF 4
ENDMDL
MODEL 6
REMARK VINA RESULT:      -9.3      7.094      9.746
REMARK  4 active torsions:
REMARK  status: ('A' for Active; 'I' for Inactive)
REMARK    1  A    between atoms: C_2  and  N_3 
REMARK    2  A    between atoms: C_7  and  N_8 
REMARK       I    between atoms: N_8  and  C_9 
REMARK    3  A    between atoms: C_9  and  C_10 
REMARK    4  A    between atoms: C_10  and  N_11 
ROOT
HETATM    1  N   UNL     1     -45.307  58.934 -51.750  1.00  0.00    -0.326 N 
HETATM    2  C   UNL     1     -45.091  60.290 -51.896  1.00  0.00     0.242 C 
HETATM    3  O   UNL     1     -44.081  60.812 -52.367  1.00  0.00    -0.271 OA
HETATM    4  H   UNL     1     -46.198  58.698 -51.315  1.00  0.00     0.169 HD
ENDROOT
BRANCH   2   5
HETATM    5  C   UNL     1     -46.175  61.174 -51.274  1.00  0.00     0.257 C 
BRANCH   5   6
HETATM    6  N   UNL     1     -46.106  61.443 -49.836  1.00  0.00    -0.224 N 
HETATM    7  N   UNL     1     -45.845  60.339 -48.988  1.00  0.00    -0.180 NA
HETATM    8  C   UNL     1     -45.531  60.543 -47.739  1.00  0.00     0.153 A 
HETATM    9  C   UNL     1     -45.426  61.871 -47.209  1.00  0.00     0.028 A 
HETATM   10  C   UNL     1     -45.696  62.932 -48.034  1.00  0.00     0.116 A 
HETATM   11  C   UNL     1     -45.042  62.387 -45.944  1.00  0.00     0.005 A 
HETATM   12  N   UNL     1     -45.508  64.086 -47.329  1.00  0.00    -0.350 N 
HETATM   13  C   UNL     1     -46.055  62.791 -49.414  1.00  0.00     0.291 A 
HETATM   14  H   UNL     1     -45.623  65.019 -47.706  1.00  0.00     0.166 HD
HETATM   15  C   UNL     1     -45.088  63.782 -46.051  1.00  0.00     0.044 A 
HETATM   16  C   UNL     1     -44.737  64.631 -44.994  1.00  0.00     0.030 A 
HETATM   17  C   UNL     1     -44.330  64.040 -43.795  1.00  0.00     0.002 A 
HETATM   18  C   UNL     1     -44.281  62.655 -43.658  1.00  0.00     0.001 A 
HETATM   19  C   UNL     1     -44.634  61.816 -44.722  1.00  0.00     0.014 A 
HETATM   20  O   UNL     1     -46.252  63.758 -50.141  1.00  0.00    -0.264 OA
ENDBRANCH   5   6
ENDBRANCH   2   5
BRANCH   1  21
HETATM   21  C   UNL     1     -44.438  57.874 -52.080  1.00  0.00     0.035 A 
HETATM   22  C   UNL     1     -43.563  57.278 -51.166  1.00  0.00     0.044 A 
HETATM   23  C   UNL     1     -42.737  56.200 -51.561  1.00  0.00     0.005 A 
HETATM   24  C   UNL     1     -42.794  55.751 -52.880  1.00  0.00     0.046 A 
HETATM   25  C   UNL     1     -41.789  55.388 -50.865  1.00  0.00     0.003 A 
HETATM   26  N   UNL     1     -41.882  54.718 -52.991  1.00  0.00    -0.346 N 
HETATM   27  C   UNL     1     -43.665  56.332 -53.814  1.00  0.00     0.033 A 
HETATM   28  C   UNL     1     -41.271  54.466 -51.776  1.00  0.00     0.046 A 
HETATM   29  C   UNL     1     -40.310  53.512 -51.399  1.00  0.00     0.030 A 
HETATM   30  C   UNL     1     -39.876  53.500 -50.070  1.00  0.00     0.002 A 
HETATM   31  C   UNL     1     -40.379  54.408 -49.146  1.00  0.00     0.001 A 
HETATM   32  C   UNL     1     -41.332  55.356 -49.530  1.00  0.00     0.014 A 
HETATM   33  C   UNL     1     -44.482  57.390 -53.391  1.00  0.00     0.032 A 
BRANCH  26  34
HETATM   34  C   UNL     1     -41.588  53.997 -54.221  1.00  0.00     0.125 C 
HETATM   35  C   UNL     1     -40.318  54.491 -54.892  1.00  0.00     0.027 C 
ENDBRANCH  26  34
ENDBRANCH   1  21
TORSDOF 4
ENDMDL
MODEL 7
REMARK VINA RESULT:      -9.2      1.604      2.992
REMARK  4 active torsions:
REMARK  status: ('A' for Active; 'I' for Inactive)
REMARK    1  A    between atoms: C_2  and  N_3 
REMARK    2  A    between atoms: C_7  and  N_8 
REMARK       I    between atoms: N_8  and  C_9 
REMARK    3  A    between atoms: C_9  and  C_10 
REMARK    4  A    between atoms: C_10  and  N_11 
ROOT
HETATM    1  N   UNL     1     -42.786  57.374 -55.319  1.00  0.00    -0.326 N 
HETATM    2  C   UNL     1     -44.129  57.695 -55.284  1.00  0.00     0.242 C 
HETATM    3  O   UNL     1     -45.011  57.044 -54.724  1.00  0.00    -0.271 OA
HETATM    4  H   UNL     1     -42.216  58.026 -55.856  1.00  0.00     0.169 HD
ENDROOT
BRANCH   2   5
HETATM    5  C   UNL     1     -44.515  58.897 -56.149  1.00  0.00     0.257 C 
BRANCH   5   6
HETATM    6  N   UNL     1     -43.556  59.361 -57.155  1.00  0.00    -0.224 N 
HETATM    7  N   UNL     1     -43.851  59.065 -58.508  1.00  0.00    -0.180 NA
HETATM    8  C   UNL     1     -43.179  59.650 -59.459  1.00  0.00     0.153 A 
HETATM    9  C   UNL     1     -42.154  60.608 -59.161  1.00  0.00     0.028 A 
HETATM   10  C   UNL     1     -41.867  60.877 -57.848  1.00  0.00     0.116 A 
HETATM   11  C   UNL     1     -41.331  61.436 -59.967  1.00  0.00     0.005 A 
HETATM   12  N   UNL     1     -40.888  61.828 -57.805  1.00  0.00    -0.350 N 
HETATM   13  C   UNL     1     -42.553  60.270 -56.746  1.00  0.00     0.291 A 
HETATM   14  H   UNL     1     -40.500  62.221 -56.958  1.00  0.00     0.166 HD
HETATM   15  C   UNL     1     -40.555  62.204 -59.091  1.00  0.00     0.044 A 
HETATM   16  C   UNL     1     -39.640  63.165 -59.538  1.00  0.00     0.030 A 
HETATM   17  C   UNL     1     -39.514  63.347 -60.917  1.00  0.00     0.002 A 
HETATM   18  C   UNL     1     -40.268  62.594 -61.814  1.00  0.00     0.001 A 
HETATM   19  C   UNL     1     -41.179  61.635 -61.354  1.00  0.00     0.014 A 
HETATM   20  O   UNL     1     -42.303  60.557 -55.581  1.00  0.00    -0.264 OA
ENDBRANCH   5   6
ENDBRANCH   2   5
BRANCH   1  21
HETATM   21  C   UNL     1     -42.145  56.252 -54.756  1.00  0.00     0.035 A 
HETATM   22  C   UNL     1     -42.017  56.045 -53.378  1.00  0.00     0.044 A 
HETATM   23  C   UNL     1     -41.383  54.882 -52.883  1.00  0.00     0.005 A 
HETATM   24  C   UNL     1     -40.870  53.953 -53.787  1.00  0.00     0.046 A 
HETATM   25  C   UNL     1     -41.136  54.389 -51.564  1.00  0.00     0.003 A 
HETATM   26  N   UNL     1     -40.298  52.940 -53.040  1.00  0.00    -0.346 N 
HETATM   27  C   UNL     1     -40.988  54.138 -55.173  1.00  0.00     0.033 A 
HETATM   28  C   UNL     1     -40.461  53.173 -51.687  1.00  0.00     0.046 A 
HETATM   29  C   UNL     1     -40.075  52.424 -50.561  1.00  0.00     0.030 A 
HETATM   30  C   UNL     1     -40.387  52.925 -49.294  1.00  0.00     0.002 A 
HETATM   31  C   UNL     1     -41.058  54.134 -49.149  1.00  0.00     0.001 A 
HETATM   32  C   UNL     1     -41.436  54.874 -50.273  1.00  0.00     0.014 A 
HETATM   33  C   UNL     1     -41.634  55.294 -55.636  1.00  0.00     0.032 A 
BRANCH  26  34
HETATM   34  C   UNL     1     -39.601  51.789 -53.595  1.00  0.00     0.125 C 
HETATM   35  C   UNL     1     -40.543  50.819 -54.286  1.00  0.00     0.027 C 
ENDBRANCH  26  34
ENDBRANCH   1  21
TORSDOF 4
ENDMDL
MODEL 8
REMARK VINA RESULT:      -9.1      3.845     10.239
REMARK  4 active torsions:
REMARK  status: ('A' for Active; 'I' for Inactive)
REMARK    1  A    between atoms: C_2  and  N_3 
REMARK    2  A    between atoms: C_7  and  N_8 
REMARK       I    between atoms: N_8  and  C_9 
REMARK    3  A    between atoms: C_9  and  C_10 
REMARK    4  A    between atoms: C_10  and  N_11 
ROOT
HETATM    1  N   UNL     1     -43.632  58.515 -54.961  1.00  0.00    -0.326 N 
HETATM    2  C   UNL     1     -42.304  58.863 -54.809  1.00  0.00     0.242 C 
HETATM    3  O   UNL     1     -41.648  59.560 -55.582  1.00  0.00    -0.271 OA
HETATM    4  H   UNL     1     -43.991  57.908 -54.225  1.00  0.00     0.169 HD
ENDROOT
BRANCH   2   5
HETATM    5  C   UNL     1     -41.603  58.181 -53.631  1.00  0.00     0.257 C 
BRANCH   5   6
HETATM    6  N   UNL     1     -41.546  56.717 -53.614  1.00  0.00    -0.224 N 
HETATM    7  N   UNL     1     -41.599  56.059 -54.866  1.00  0.00    -0.180 NA
HETATM    8  C   UNL     1     -41.310  54.789 -54.942  1.00  0.00     0.153 A 
HETATM    9  C   UNL     1     -40.920  54.048 -53.778  1.00  0.00     0.028 A 
HETATM   10  C   UNL     1     -40.887  54.692 -52.568  1.00  0.00     0.116 A 
HETATM   11  C   UNL     1     -40.490  52.711 -53.574  1.00  0.00     0.005 A 
HETATM   12  N   UNL     1     -40.466  53.805 -51.618  1.00  0.00    -0.350 N 
HETATM   13  C   UNL     1     -41.198  56.080 -52.401  1.00  0.00     0.291 A 
HETATM   14  H   UNL     1     -40.337  54.026 -50.639  1.00  0.00     0.166 HD
HETATM   15  C   UNL     1     -40.197  52.589 -52.211  1.00  0.00     0.044 A 
HETATM   16  C   UNL     1     -39.710  51.403 -51.648  1.00  0.00     0.030 A 
HETATM   17  C   UNL     1     -39.516  50.313 -52.499  1.00  0.00     0.002 A 
HETATM   18  C   UNL     1     -39.805  50.402 -53.859  1.00  0.00     0.001 A 
HETATM   19  C   UNL     1     -40.293  51.594 -54.410  1.00  0.00     0.014 A 
HETATM   20  O   UNL     1     -41.122  56.641 -51.314  1.00  0.00    -0.264 OA
ENDBRANCH   5   6
ENDBRANCH   2   5
BRANCH   1  21
HETATM   21  C   UNL     1     -44.503  58.852 -56.017  1.00  0.00     0.035 A 
HETATM   22  C   UNL     1     -44.826  57.981 -57.062  1.00  0.00     0.044 A 
HETATM   23  C   UNL     1     -45.731  58.379 -58.075  1.00  0.00     0.005 A 
HETATM   24  C   UNL     1     -46.281  59.659 -58.027  1.00  0.00     0.046 A 
HETATM   25  C   UNL     1     -46.266  57.717 -59.224  1.00  0.00     0.003 A 
HETATM   26  N   UNL     1     -47.101  59.785 -59.133  1.00  0.00    -0.346 N 
HETATM   27  C   UNL     1     -45.972  60.550 -56.987  1.00  0.00     0.033 A 
HETATM   28  C   UNL     1     -47.122  58.612 -59.867  1.00  0.00     0.046 A 
HETATM   29  C   UNL     1     -47.818  58.261 -61.037  1.00  0.00     0.030 A 
HETATM   30  C   UNL     1     -47.635  56.975 -61.553  1.00  0.00     0.002 A 
HETATM   31  C   UNL     1     -46.787  56.067 -60.929  1.00  0.00     0.001 A 
HETATM   32  C   UNL     1     -46.097  56.426 -59.768  1.00  0.00     0.014 A 
HETATM   33  C   UNL     1     -45.084  60.123 -55.989  1.00  0.00     0.032 A 
BRANCH  26  34
HETATM   34  C   UNL     1     -47.834  60.989 -59.493  1.00  0.00     0.125 C 
HETATM   35  C   UNL     1     -49.214  61.038 -58.862  1.00  0.00     0.027 C 
ENDBRANCH  26  34
ENDBRANCH   1  21
TORSDOF 4
ENDMDL
MODEL 9
REMARK VINA RESULT:      -8.8      2.875      3.889
REMARK  4 active torsions:
REMARK  status: ('A' for Active; 'I' for Inactive)
REMARK    1  A    between atoms: C_2  and  N_3 
REMARK    2  A    between atoms: C_7  and  N_8 
REMARK       I    between atoms: N_8  and  C_9 
REMARK    3  A    between atoms: C_9  and  C_10 
REMARK    4  A    between atoms: C_10  and  N_11 
ROOT
HETATM    1  N   UNL     1     -41.780  57.742 -53.698  1.00  0.00    -0.326 N 
HETATM    2  C   UNL     1     -41.107  58.945 -53.780  1.00  0.00     0.242 C 
HETATM    3  O   UNL     1     -40.050  59.220 -53.212  1.00  0.00    -0.271 OA
HETATM    4  H   UNL     1     -42.654  57.716 -54.222  1.00  0.00     0.169 HD
ENDROOT
BRANCH   2   5
HETATM    5  C   UNL     1     -41.857  60.038 -54.545  1.00  0.00     0.257 C 
BRANCH   5   6
HETATM    6  N   UNL     1     -42.781  59.630 -55.606  1.00  0.00    -0.224 N 
HETATM    7  N   UNL     1     -44.055  59.164 -55.203  1.00  0.00    -0.180 NA
HETATM    8  C   UNL     1     -45.000  59.018 -56.089  1.00  0.00     0.153 A 
HETATM    9  C   UNL     1     -44.778  59.340 -57.469  1.00  0.00     0.028 A 
HETATM   10  C   UNL     1     -43.536  59.776 -57.851  1.00  0.00     0.116 A 
HETATM   11  C   UNL     1     -45.617  59.352 -58.614  1.00  0.00     0.005 A 
HETATM   12  N   UNL     1     -43.565  60.046 -59.189  1.00  0.00    -0.350 N 
HETATM   13  C   UNL     1     -42.444  59.955 -56.940  1.00  0.00     0.291 A 
HETATM   14  H   UNL     1     -42.782  60.399 -59.725  1.00  0.00     0.166 HD
HETATM   15  C   UNL     1     -44.833  59.813 -59.679  1.00  0.00     0.044 A 
HETATM   16  C   UNL     1     -45.344  59.985 -60.971  1.00  0.00     0.030 A 
HETATM   17  C   UNL     1     -46.691  59.678 -61.182  1.00  0.00     0.002 A 
HETATM   18  C   UNL     1     -47.493  59.211 -60.143  1.00  0.00     0.001 A 
HETATM   19  C   UNL     1     -46.970  59.042 -58.855  1.00  0.00     0.014 A 
HETATM   20  O   UNL     1     -41.354  60.384 -57.301  1.00  0.00    -0.264 OA
ENDBRANCH   5   6
ENDBRANCH   2   5
BRANCH   1  21
HETATM   21  C   UNL     1     -41.430  56.599 -52.951  1.00  0.00     0.035 A 
HETATM   22  C   UNL     1     -41.133  55.359 -53.528  1.00  0.00     0.044 A 
HETATM   23  C   UNL     1     -40.762  54.261 -52.717  1.00  0.00     0.005 A 
HETATM   24  C   UNL     1     -40.716  54.425 -51.333  1.00  0.00     0.046 A 
HETATM   25  C   UNL     1     -40.382  52.914 -53.009  1.00  0.00     0.003 A 
HETATM   26  N   UNL     1     -40.350  53.205 -50.797  1.00  0.00    -0.346 N 
HETATM   27  C   UNL     1     -41.008  55.659 -50.733  1.00  0.00     0.033 A 
HETATM   28  C   UNL     1     -40.125  52.275 -51.795  1.00  0.00     0.046 A 
HETATM   29  C   UNL     1     -39.719  50.930 -51.738  1.00  0.00     0.030 A 
HETATM   30  C   UNL     1     -39.572  50.232 -52.941  1.00  0.00     0.002 A 
HETATM   31  C   UNL     1     -39.823  50.849 -54.161  1.00  0.00     0.001 A 
HETATM   32  C   UNL     1     -40.229  52.186 -54.208  1.00  0.00     0.014 A 
HETATM   33  C   UNL     1     -41.358  56.735 -51.562  1.00  0.00     0.032 A 
BRANCH  26  34
HETATM   34  C   UNL     1     -40.232  52.923 -49.374  1.00  0.00     0.125 C 
HETATM   35  C   UNL     1     -40.855  54.009 -48.514  1.00  0.00     0.027 C 
ENDBRANCH  26  34
ENDBRANCH   1  21
TORSDOF 4
ENDMDL
MODEL 10
REMARK VINA RESULT:      -8.6      2.425     10.493
REMARK  4 active torsions:
REMARK  status: ('A' for Active; 'I' for Inactive)
REMARK    1  A    between atoms: C_2  and  N_3 
REMARK    2  A    between atoms: C_7  and  N_8 
REMARK       I    between atoms: N_8  and  C_9 
REMARK    3  A    between atoms: C_9  and  C_10 
REMARK    4  A    between atoms: C_10  and  N_11 
ROOT
HETATM    1  N   UNL     1     -43.353  58.227 -55.169  1.00  0.00    -0.326 N 
HETATM    2  C   UNL     1     -42.168  58.705 -54.647  1.00  0.00     0.242 C 
HETATM    3  O   UNL     1     -41.452  59.567 -55.155  1.00  0.00    -0.271 OA
HETATM    4  H   UNL     1     -43.789  57.493 -54.611  1.00  0.00     0.169 HD
ENDROOT
BRANCH   2   5
HETATM    5  C   UNL     1     -41.683  57.964 -53.398  1.00  0.00     0.257 C 
BRANCH   5   6
HETATM    6  N   UNL     1     -41.600  56.502 -53.450  1.00  0.00    -0.224 N 
HETATM    7  N   UNL     1     -41.638  55.903 -54.733  1.00  0.00    -0.180 NA
HETATM    8  C   UNL     1     -41.327  54.644 -54.867  1.00  0.00     0.153 A 
HETATM    9  C   UNL     1     -40.928  53.855 -53.737  1.00  0.00     0.028 A 
HETATM   10  C   UNL     1     -40.909  54.441 -52.499  1.00  0.00     0.116 A 
HETATM   11  C   UNL     1     -40.475  52.517 -53.596  1.00  0.00     0.005 A 
HETATM   12  N   UNL     1     -40.476  53.518 -51.591  1.00  0.00    -0.350 N 
HETATM   13  C   UNL     1     -41.244  55.815 -52.268  1.00  0.00     0.291 A 
HETATM   14  H   UNL     1     -40.353  53.694 -50.602  1.00  0.00     0.166 HD
HETATM   15  C   UNL     1     -40.183  52.336 -52.239  1.00  0.00     0.044 A 
HETATM   16  C   UNL     1     -39.677  51.134 -51.731  1.00  0.00     0.030 A 
HETATM   17  C   UNL     1     -39.463  50.088 -52.632  1.00  0.00     0.002 A 
HETATM   18  C   UNL     1     -39.749  50.237 -53.987  1.00  0.00     0.001 A 
HETATM   19  C   UNL     1     -40.256  51.445 -54.483  1.00  0.00     0.014 A 
HETATM   20  O   UNL     1     -41.181  56.325 -51.155  1.00  0.00    -0.264 OA
ENDBRANCH   5   6
ENDBRANCH   2   5
BRANCH   1  21
HETATM   21  C   UNL     1     -43.982  58.593 -56.377  1.00  0.00     0.035 A 
HETATM   22  C   UNL     1     -43.302  59.146 -57.466  1.00  0.00     0.044 A 
HETATM   23  C   UNL     1     -43.994  59.466 -58.658  1.00  0.00     0.005 A 
HETATM   24  C   UNL     1     -45.368  59.240 -58.725  1.00  0.00     0.046 A 
HETATM   25  C   UNL     1     -43.579  59.999 -59.917  1.00  0.00     0.003 A 
HETATM   26  N   UNL     1     -45.782  59.654 -59.976  1.00  0.00    -0.346 N 
HETATM   27  C   UNL     1     -46.072  58.684 -57.644  1.00  0.00     0.033 A 
HETATM   28  C   UNL     1     -44.711  60.104 -60.726  1.00  0.00     0.046 A 
HETATM   29  C   UNL     1     -44.638  60.593 -62.043  1.00  0.00     0.030 A 
HETATM   30  C   UNL     1     -43.388  60.977 -62.537  1.00  0.00     0.002 A 
HETATM   31  C   UNL     1     -42.247  60.881 -61.748  1.00  0.00     0.001 A 
HETATM   32  C   UNL     1     -42.330  60.397 -60.440  1.00  0.00     0.014 A 
HETATM   33  C   UNL     1     -45.357  58.364 -56.481  1.00  0.00     0.032 A 
BRANCH  26  34
HETATM   34  C   UNL     1     -47.160  59.638 -60.444  1.00  0.00     0.125 C 
HETATM   35  C   UNL     1     -47.551  58.301 -61.051  1.00  0.00     0.027 C 
ENDBRANCH  26  34
ENDBRANCH   1  21
TORSDOF 4
ENDMDL
