MODEL 1
REMARK VINA RESULT:      -9.0      0.000      0.000
REMARK  6 active torsions:
REMARK  status: ('A' for Active; 'I' for Inactive)
REMARK    1  A    between atoms: C_4  and  C_5 
REMARK    2  A    between atoms: C_5  and  N_6 
REMARK    3  A    between atoms: C_10  and  C_11 
REMARK    4  A    between atoms: C_11  and  C_12 
REMARK    5  A    between atoms: N_21  and  C_22 
REMARK    6  A    between atoms: C_22  and  C_23 
ROOT
HETATM    1  C   UNL     1     -43.490  57.798 -54.972  1.00  0.00     0.164 A 
HETATM    2  N   UNL     1     -42.087  57.967 -54.621  1.00  0.00    -0.319 N 
HETATM    3  C   UNL     1     -41.826  59.214 -54.104  1.00  0.00     0.326 A 
HETATM    4  O   UNL     1     -40.702  59.573 -53.799  1.00  0.00    -0.247 OA
HETATM    5  N   UNL     1     -42.993  59.890 -53.975  1.00  0.00    -0.265 N 
HETATM    6  C   UNL     1     -44.026  59.170 -54.507  1.00  0.00     0.263 A 
HETATM    7  O   UNL     1     -45.199  59.519 -54.533  1.00  0.00    -0.270 OA
HETATM    8  H   UNL     1     -41.376  57.608 -55.254  1.00  0.00     0.166 HD
ENDROOT
BRANCH   1   9
HETATM    9  C   UNL     1     -44.178  56.642 -54.157  1.00  0.00     0.033 C 
HETATM   10  C   UNL     1     -43.828  56.588 -52.657  1.00  0.00     0.036 C 
HETATM   11  C   UNL     1     -42.406  56.135 -52.363  1.00  0.00     0.235 C 
HETATM   12  N   UNL     1     -42.086  54.824 -53.045  1.00  0.00    -0.067 N 
HETATM   13  H   UNL     1     -42.575  54.102 -52.503  1.00  0.00     0.280 HD
HETATM   14  C   UNL     1     -42.532  54.699 -54.485  1.00  0.00     0.235 C 
HETATM   15  C   UNL     1     -43.946  55.217 -54.696  1.00  0.00     0.036 C 
BRANCH  12  16
HETATM   16  C   UNL     1     -40.596  54.492 -52.958  1.00  0.00     0.274 C 
BRANCH  16  17
HETATM   17  C   UNL     1     -40.273  53.060 -52.617  1.00  0.00    -0.026 A 
HETATM   18  C   UNL     1     -40.146  52.136 -53.679  1.00  0.00     0.016 A 
HETATM   19  C   UNL     1     -39.820  50.798 -53.448  1.00  0.00    -0.061 A 
HETATM   20  C   UNL     1     -39.718  49.821 -54.585  1.00  0.00     0.048 C 
HETATM   21  C   UNL     1     -39.640  50.366 -52.136  1.00  0.00     0.007 A 
HETATM   22  C   UNL     1     -39.771  51.262 -51.072  1.00  0.00     0.008 A 
HETATM   23  C   UNL     1     -40.077  52.614 -51.294  1.00  0.00    -0.054 A 
HETATM   24  C   UNL     1     -40.271  53.508 -50.099  1.00  0.00     0.049 C 
ENDBRANCH  16  17
ENDBRANCH  12  16
ENDBRANCH   1   9
BRANCH   1  25
HETATM   25  C   UNL     1     -43.588  57.579 -56.478  1.00  0.00     0.072 A 
HETATM   26  N   UNL     1     -44.832  57.788 -57.010  1.00  0.00    -0.262 NA
HETATM   27  C   UNL     1     -44.985  57.601 -58.342  1.00  0.00     0.117 A 
HETATM   28  C   UNL     1     -43.958  57.222 -59.185  1.00  0.00     0.019 A 
HETATM   29  C   UNL     1     -42.697  57.028 -58.637  1.00  0.00     0.003 A 
HETATM   30  C   UNL     1     -42.502  57.216 -57.270  1.00  0.00     0.030 A 
ENDBRANCH   1  25
BRANCH   5  31
HETATM   31  C   UNL     1     -43.139  61.139 -53.247  1.00  0.00     0.168 C 
BRANCH  31  32
HETATM   32  C   UNL     1     -43.215  60.891 -51.734  1.00  0.00     0.140 C 
HETATM   33  O   UNL     1     -42.897  62.091 -50.986  1.00  0.00    -0.384 OA
HETATM   34  C   UNL     1     -43.729  62.113 -49.811  1.00  0.00     0.168 C 
HETATM   35  C   UNL     1     -44.520  60.820 -49.793  1.00  0.00     0.029 C 
HETATM   36  C   UNL     1     -44.593  60.468 -51.259  1.00  0.00     0.036 C 
ENDBRANCH  31  32
ENDBRANCH   5  31
TORSDOF 6
ENDMDL
MODEL 2
REMARK VINA RESULT:      -8.7      1.713      5.466
REMARK  6 active torsions:
REMARK  status: ('A' for Active; 'I' for Inactive)
REMARK    1  A    between atoms: C_4  and  C_5 
REMARK    2  A    between atoms: C_5  and  N_6 
REMARK    3  A    between atoms: C_10  and  C_11 
REMARK    4  A    between atoms: C_11  and  C_12 
REMARK    5  A    between atoms: N_21  and  C_22 
REMARK    6  A    between atoms: C_22  and  C_23 
ROOT
HETATM    1  C   UNL     1     -42.998  59.390 -52.344  1.00  0.00     0.164 A 
HETATM    2  N   UNL     1     -43.859  58.253 -52.638  1.00  0.00    -0.319 N 
HETATM    3  C   UNL     1     -44.376  58.306 -53.910  1.00  0.00     0.326 A 
HETATM    4  O   UNL     1     -45.164  57.477 -54.331  1.00  0.00    -0.247 OA
HETATM    5  N   UNL     1     -43.838  59.366 -54.560  1.00  0.00    -0.265 N 
HETATM    6  C   UNL     1     -43.056  60.103 -53.714  1.00  0.00     0.263 A 
HETATM    7  O   UNL     1     -42.435  61.113 -54.015  1.00  0.00    -0.270 OA
HETATM    8  H   UNL     1     -44.509  57.933 -51.924  1.00  0.00     0.166 HD
ENDROOT
BRANCH   1   9
HETATM    9  C   UNL     1     -41.521  58.957 -52.021  1.00  0.00     0.033 C 
HETATM   10  C   UNL     1     -40.730  58.359 -53.201  1.00  0.00     0.036 C 
HETATM   11  C   UNL     1     -41.191  56.972 -53.622  1.00  0.00     0.235 C 
HETATM   12  N   UNL     1     -41.226  56.017 -52.450  1.00  0.00    -0.067 N 
HETATM   13  H   UNL     1     -40.247  55.782 -52.252  1.00  0.00     0.280 HD
HETATM   14  C   UNL     1     -41.838  56.555 -51.175  1.00  0.00     0.235 C 
HETATM   15  C   UNL     1     -41.358  57.962 -50.856  1.00  0.00     0.036 C 
BRANCH  12  16
HETATM   16  C   UNL     1     -41.919  54.703 -52.814  1.00  0.00     0.274 C 
BRANCH  16  17
HETATM   17  C   UNL     1     -41.046  53.475 -52.753  1.00  0.00    -0.026 A 
HETATM   18  C   UNL     1     -40.977  52.769 -51.531  1.00  0.00     0.016 A 
HETATM   19  C   UNL     1     -40.214  51.607 -51.401  1.00  0.00    -0.061 A 
HETATM   20  C   UNL     1     -40.126  50.883 -50.087  1.00  0.00     0.048 C 
HETATM   21  C   UNL     1     -39.488  51.153 -52.500  1.00  0.00     0.007 A 
HETATM   22  C   UNL     1     -39.536  51.842 -53.713  1.00  0.00     0.008 A 
HETATM   23  C   UNL     1     -40.316  53.000 -53.861  1.00  0.00    -0.054 A 
HETATM   24  C   UNL     1     -40.268  53.731 -55.176  1.00  0.00     0.049 C 
ENDBRANCH  16  17
ENDBRANCH  12  16
ENDBRANCH   1   9
BRANCH   1  25
HETATM   25  C   UNL     1     -43.626  60.191 -51.209  1.00  0.00     0.072 A 
HETATM   26  N   UNL     1     -44.828  59.712 -50.762  1.00  0.00    -0.262 NA
HETATM   27  C   UNL     1     -45.440  60.386 -49.761  1.00  0.00     0.117 A 
HETATM   28  C   UNL     1     -44.916  61.518 -49.167  1.00  0.00     0.019 A 
HETATM   29  C   UNL     1     -43.688  61.986 -49.618  1.00  0.00     0.003 A 
HETATM   30  C   UNL     1     -43.028  61.314 -50.643  1.00  0.00     0.030 A 
ENDBRANCH   1  25
BRANCH   5  31
HETATM   31  C   UNL     1     -43.965  59.601 -55.989  1.00  0.00     0.168 C 
BRANCH  31  32
HETATM   32  C   UNL     1     -43.036  58.673 -56.785  1.00  0.00     0.140 C 
HETATM   33  O   UNL     1     -43.788  57.668 -57.509  1.00  0.00    -0.384 OA
HETATM   34  C   UNL     1     -43.121  57.433 -58.763  1.00  0.00     0.168 C 
HETATM   35  C   UNL     1     -41.852  58.261 -58.760  1.00  0.00     0.029 C 
HETATM   36  C   UNL     1     -42.210  59.396 -57.833  1.00  0.00     0.036 C 
ENDBRANCH  31  32
ENDBRANCH   5  31
TORSDOF 6
ENDMDL
MODEL 3
REMARK VINA RESULT:      -8.7      1.670      5.239
REMARK  6 active torsions:
REMARK  status: ('A' for Active; 'I' for Inactive)
REMARK    1  A    between atoms: C_4  and  C_5 
REMARK    2  A    between atoms: C_5  and  N_6 
REMARK    3  A    between atoms: C_10  and  C_11 
REMARK    4  A    between atoms: C_11  and  C_12 
REMARK    5  A    between atoms: N_21  and  C_22 
REMARK    6  A    between atoms: C_22  and  C_23 
ROOT
HETATM    1  C   UNL     1     -42.937  59.102 -52.624  1.00  0.00     0.164 A 
HETATM    2  N   UNL     1     -43.790  57.945 -52.854  1.00  0.00    -0.319 N 
HETATM    3  C   UNL     1     -44.354  57.954 -54.108  1.00  0.00     0.326 A 
HETATM    4  O   UNL     1     -45.143  57.101 -54.476  1.00  0.00    -0.247 OA
HETATM    5  N   UNL     1     -43.856  59.003 -54.806  1.00  0.00    -0.265 N 
HETATM    6  C   UNL     1     -43.056  59.774 -54.010  1.00  0.00     0.263 A 
HETATM    7  O   UNL     1     -42.463  60.785 -54.362  1.00  0.00    -0.270 OA
HETATM    8  H   UNL     1     -44.408  57.635 -52.108  1.00  0.00     0.166 HD
ENDROOT
BRANCH   1   9
HETATM    9  C   UNL     1     -41.443  58.701 -52.343  1.00  0.00     0.033 C 
HETATM   10  C   UNL     1     -40.748  57.900 -53.463  1.00  0.00     0.036 C 
HETATM   11  C   UNL     1     -41.247  56.472 -53.612  1.00  0.00     0.235 C 
HETATM   12  N   UNL     1     -41.200  55.725 -52.298  1.00  0.00    -0.067 N 
HETATM   13  H   UNL     1     -40.211  55.507 -52.137  1.00  0.00     0.280 HD
HETATM   14  C   UNL     1     -41.710  56.477 -51.089  1.00  0.00     0.235 C 
HETATM   15  C   UNL     1     -41.198  57.908 -51.044  1.00  0.00     0.036 C 
BRANCH  12  16
HETATM   16  C   UNL     1     -41.927  54.382 -52.387  1.00  0.00     0.274 C 
BRANCH  16  17
HETATM   17  C   UNL     1     -41.046  53.163 -52.273  1.00  0.00    -0.026 A 
HETATM   18  C   UNL     1     -40.801  52.410 -53.443  1.00  0.00     0.016 A 
HETATM   19  C   UNL     1     -39.974  51.284 -53.427  1.00  0.00    -0.061 A 
HETATM   20  C   UNL     1     -39.746  50.476 -54.673  1.00  0.00     0.048 C 
HETATM   21  C   UNL     1     -39.400  50.889 -52.221  1.00  0.00     0.007 A 
HETATM   22  C   UNL     1     -39.639  51.615 -51.052  1.00  0.00     0.008 A 
HETATM   23  C   UNL     1     -40.452  52.760 -51.061  1.00  0.00    -0.054 A 
HETATM   24  C   UNL     1     -40.721  53.455 -49.753  1.00  0.00     0.049 C 
ENDBRANCH  16  17
ENDBRANCH  12  16
ENDBRANCH   1   9
BRANCH   1  25
HETATM   25  C   UNL     1     -43.536  59.926 -51.489  1.00  0.00     0.072 A 
HETATM   26  N   UNL     1     -44.735  59.466 -51.014  1.00  0.00    -0.262 NA
HETATM   27  C   UNL     1     -45.322  60.160 -50.012  1.00  0.00     0.117 A 
HETATM   28  C   UNL     1     -44.775  61.295 -49.444  1.00  0.00     0.019 A 
HETATM   29  C   UNL     1     -43.551  61.744 -49.923  1.00  0.00     0.003 A 
HETATM   30  C   UNL     1     -42.916  61.050 -50.951  1.00  0.00     0.030 A 
ENDBRANCH   1  25
BRANCH   5  31
HETATM   31  C   UNL     1     -44.039  59.194 -56.236  1.00  0.00     0.168 C 
BRANCH  31  32
HETATM   32  C   UNL     1     -42.998  58.399 -57.036  1.00  0.00     0.140 C 
HETATM   33  O   UNL     1     -43.580  57.210 -57.624  1.00  0.00    -0.384 OA
HETATM   34  C   UNL     1     -42.963  57.002 -58.908  1.00  0.00     0.168 C 
HETATM   35  C   UNL     1     -41.886  58.057 -59.066  1.00  0.00     0.029 C 
HETATM   36  C   UNL     1     -42.403  59.176 -58.196  1.00  0.00     0.036 C 
ENDBRANCH  31  32
ENDBRANCH   5  31
TORSDOF 6
ENDMDL
MODEL 4
REMARK VINA RESULT:      -8.3      1.230      2.308
REMARK  6 active torsions:
REMARK  status: ('A' for Active; 'I' for Inactive)
REMARK    1  A    between atoms: C_4  and  C_5 
REMARK    2  A    between atoms: C_5  and  N_6 
REMARK    3  A    between atoms: C_10  and  C_11 
REMARK    4  A    between atoms: C_11  and  C_12 
REMARK    5  A    between atoms: N_21  and  C_22 
REMARK    6  A    between atoms: C_22  and  C_23 
ROOT
HETATM    1  C   UNL     1     -43.358  57.756 -56.181  1.00  0.00     0.164 A 
HETATM    2  N   UNL     1     -42.056  57.982 -55.572  1.00  0.00    -0.319 N 
HETATM    3  C   UNL     1     -42.054  59.072 -54.734  1.00  0.00     0.326 A 
HETATM    4  O   UNL     1     -41.047  59.461 -54.169  1.00  0.00    -0.247 OA
HETATM    5  N   UNL     1     -43.316  59.558 -54.642  1.00  0.00    -0.265 N 
HETATM    6  C   UNL     1     -44.151  58.892 -55.496  1.00  0.00     0.263 A 
HETATM    7  O   UNL     1     -45.348  59.104 -55.632  1.00  0.00    -0.270 OA
HETATM    8  H   UNL     1     -41.222  57.880 -56.145  1.00  0.00     0.166 HD
ENDROOT
BRANCH   1   9
HETATM    9  C   UNL     1     -43.969  56.359 -55.793  1.00  0.00     0.033 C 
HETATM   10  C   UNL     1     -44.218  56.137 -54.288  1.00  0.00     0.036 C 
HETATM   11  C   UNL     1     -42.951  55.966 -53.464  1.00  0.00     0.235 C 
HETATM   12  N   UNL     1     -42.057  54.888 -54.034  1.00  0.00    -0.067 N 
HETATM   13  H   UNL     1     -42.502  53.997 -53.786  1.00  0.00     0.280 HD
HETATM   14  C   UNL     1     -41.868  54.907 -55.535  1.00  0.00     0.235 C 
HETATM   15  C   UNL     1     -43.177  55.128 -56.276  1.00  0.00     0.036 C 
BRANCH  12  16
HETATM   16  C   UNL     1     -40.682  54.882 -53.363  1.00  0.00     0.274 C 
BRANCH  16  17
HETATM   17  C   UNL     1     -40.482  53.822 -52.310  1.00  0.00    -0.026 A 
HETATM   18  C   UNL     1     -40.623  54.196 -50.955  1.00  0.00     0.016 A 
HETATM   19  C   UNL     1     -40.481  53.268 -49.922  1.00  0.00    -0.061 A 
HETATM   20  C   UNL     1     -40.604  53.686 -48.484  1.00  0.00     0.048 C 
HETATM   21  C   UNL     1     -40.172  51.948 -50.243  1.00  0.00     0.007 A 
HETATM   22  C   UNL     1     -40.019  51.560 -51.576  1.00  0.00     0.008 A 
HETATM   23  C   UNL     1     -40.180  52.482 -52.623  1.00  0.00    -0.054 A 
HETATM   24  C   UNL     1     -39.934  52.012 -54.032  1.00  0.00     0.049 C 
ENDBRANCH  16  17
ENDBRANCH  12  16
ENDBRANCH   1   9
BRANCH   1  25
HETATM   25  C   UNL     1     -43.222  57.927 -57.690  1.00  0.00     0.072 A 
HETATM   26  N   UNL     1     -41.958  58.224 -58.124  1.00  0.00    -0.262 NA
HETATM   27  C   UNL     1     -41.775  58.397 -59.454  1.00  0.00     0.117 A 
HETATM   28  C   UNL     1     -42.787  58.282 -60.388  1.00  0.00     0.019 A 
HETATM   29  C   UNL     1     -44.061  57.965 -59.937  1.00  0.00     0.003 A 
HETATM   30  C   UNL     1     -44.286  57.775 -58.576  1.00  0.00     0.030 A 
ENDBRANCH   1  25
BRANCH   5  31
HETATM   31  C   UNL     1     -43.742  60.552 -53.671  1.00  0.00     0.168 C 
BRANCH  31  32
HETATM   32  C   UNL     1     -43.998  59.909 -52.300  1.00  0.00     0.140 C 
HETATM   33  O   UNL     1     -43.607  60.793 -51.221  1.00  0.00    -0.384 OA
HETATM   34  C   UNL     1     -44.542  60.613 -50.141  1.00  0.00     0.168 C 
HETATM   35  C   UNL     1     -45.486  59.498 -50.542  1.00  0.00     0.029 C 
HETATM   36  C   UNL     1     -45.458  59.580 -52.049  1.00  0.00     0.036 C 
ENDBRANCH  31  32
ENDBRANCH   5  31
TORSDOF 6
ENDMDL
MODEL 5
REMARK VINA RESULT:      -8.3      2.518      7.844
REMARK  6 active torsions:
REMARK  status: ('A' for Active; 'I' for Inactive)
REMARK    1  A    between atoms: C_4  and  C_5 
REMARK    2  A    between atoms: C_5  and  N_6 
REMARK    3  A    between atoms: C_10  and  C_11 
REMARK    4  A    between atoms: C_11  and  C_12 
REMARK    5  A    between atoms: N_21  and  C_22 
REMARK    6  A    between atoms: C_22  and  C_23 
ROOT
HETATM    1  C   UNL     1     -42.248  57.350 -52.737  1.00  0.00     0.164 A 
HETATM    2  N   UNL     1     -41.736  57.184 -54.090  1.00  0.00    -0.319 N 
HETATM    3  C   UNL     1     -41.490  55.866 -54.396  1.00  0.00     0.326 A 
HETATM    4  O   UNL     1     -41.007  55.521 -55.460  1.00  0.00    -0.247 OA
HETATM    5  N   UNL     1     -41.903  55.090 -53.365  1.00  0.00    -0.265 N 
HETATM    6  C   UNL     1     -42.315  55.864 -52.316  1.00  0.00     0.263 A 
HETATM    7  O   UNL     1     -42.746  55.449 -51.249  1.00  0.00    -0.270 OA
HETATM    8  H   UNL     1     -41.042  57.841 -54.436  1.00  0.00     0.166 HD
ENDROOT
BRANCH   1   9
HETATM    9  C   UNL     1     -43.687  57.985 -52.713  1.00  0.00     0.033 C 
HETATM   10  C   UNL     1     -44.752  57.250 -53.549  1.00  0.00     0.036 C 
HETATM   11  C   UNL     1     -44.569  57.385 -55.053  1.00  0.00     0.235 C 
HETATM   12  N   UNL     1     -44.450  58.833 -55.473  1.00  0.00    -0.067 N 
HETATM   13  H   UNL     1     -45.400  59.218 -55.416  1.00  0.00     0.280 HD
HETATM   14  C   UNL     1     -43.550  59.699 -54.619  1.00  0.00     0.235 C 
HETATM   15  C   UNL     1     -43.768  59.466 -53.133  1.00  0.00     0.036 C 
BRANCH  12  16
HETATM   16  C   UNL     1     -44.020  58.963 -56.935  1.00  0.00     0.274 C 
BRANCH  16  17
HETATM   17  C   UNL     1     -44.804  58.127 -57.914  1.00  0.00    -0.026 A 
HETATM   18  C   UNL     1     -44.155  57.022 -58.512  1.00  0.00     0.016 A 
HETATM   19  C   UNL     1     -44.820  56.182 -59.408  1.00  0.00    -0.061 A 
HETATM   20  C   UNL     1     -44.110  55.029 -60.058  1.00  0.00     0.048 C 
HETATM   21  C   UNL     1     -46.146  56.460 -59.732  1.00  0.00     0.007 A 
HETATM   22  C   UNL     1     -46.801  57.553 -59.160  1.00  0.00     0.008 A 
HETATM   23  C   UNL     1     -46.148  58.392 -58.242  1.00  0.00    -0.054 A 
HETATM   24  C   UNL     1     -46.892  59.590 -57.716  1.00  0.00     0.049 C 
ENDBRANCH  16  17
ENDBRANCH  12  16
ENDBRANCH   1   9
BRANCH   1  25
HETATM   25  C   UNL     1     -41.241  58.170 -51.938  1.00  0.00     0.072 A 
HETATM   26  N   UNL     1     -40.104  58.510 -52.619  1.00  0.00    -0.262 NA
HETATM   27  C   UNL     1     -39.168  59.231 -51.960  1.00  0.00     0.117 A 
HETATM   28  C   UNL     1     -39.303  59.644 -50.648  1.00  0.00     0.019 A 
HETATM   29  C   UNL     1     -40.468  59.306 -49.971  1.00  0.00     0.003 A 
HETATM   30  C   UNL     1     -41.455  58.569 -50.621  1.00  0.00     0.030 A 
ENDBRANCH   1  25
BRANCH   5  31
HETATM   31  C   UNL     1     -42.022  53.643 -53.426  1.00  0.00     0.168 C 
BRANCH  31  32
HETATM   32  C   UNL     1     -40.639  52.975 -53.409  1.00  0.00     0.140 C 
HETATM   33  O   UNL     1     -40.239  52.626 -52.061  1.00  0.00    -0.384 OA
HETATM   34  C   UNL     1     -39.509  51.386 -52.123  1.00  0.00     0.168 C 
HETATM   35  C   UNL     1     -39.374  51.015 -53.586  1.00  0.00     0.029 C 
HETATM   36  C   UNL     1     -40.582  51.681 -54.199  1.00  0.00     0.036 C 
ENDBRANCH  31  32
ENDBRANCH   5  31
TORSDOF 6
ENDMDL
MODEL 6
REMARK VINA RESULT:      -8.1      1.881      5.538
REMARK  6 active torsions:
REMARK  status: ('A' for Active; 'I' for Inactive)
REMARK    1  A    between atoms: C_4  and  C_5 
REMARK    2  A    between atoms: C_5  and  N_6 
REMARK    3  A    between atoms: C_10  and  C_11 
REMARK    4  A    between atoms: C_11  and  C_12 
REMARK    5  A    between atoms: N_21  and  C_22 
REMARK    6  A    between atoms: C_22  and  C_23 
ROOT
HETATM    1  C   UNL     1     -42.814  60.173 -51.841  1.00  0.00     0.164 A 
HETATM    2  N   UNL     1     -43.725  59.042 -51.740  1.00  0.00    -0.319 N 
HETATM    3  C   UNL     1     -44.409  58.818 -52.912  1.00  0.00     0.326 A 
HETATM    4  O   UNL     1     -45.259  57.952 -53.018  1.00  0.00    -0.247 OA
HETATM    5  N   UNL     1     -43.946  59.667 -53.861  1.00  0.00    -0.265 N 
HETATM    6  C   UNL     1     -43.045  60.543 -53.323  1.00  0.00     0.263 A 
HETATM    7  O   UNL     1     -42.454  61.423 -53.935  1.00  0.00    -0.270 OA
HETATM    8  H   UNL     1     -44.278  58.931 -50.894  1.00  0.00     0.166 HD
ENDROOT
BRANCH   1   9
HETATM    9  C   UNL     1     -41.314  59.757 -51.614  1.00  0.00     0.033 C 
HETATM   10  C   UNL     1     -40.713  58.825 -52.684  1.00  0.00     0.036 C 
HETATM   11  C   UNL     1     -41.255  57.404 -52.650  1.00  0.00     0.235 C 
HETATM   12  N   UNL     1     -41.139  56.796 -51.270  1.00  0.00    -0.067 N 
HETATM   13  H   UNL     1     -40.146  56.567 -51.149  1.00  0.00     0.280 HD
HETATM   14  C   UNL     1     -41.550  57.685 -50.117  1.00  0.00     0.235 C 
HETATM   15  C   UNL     1     -41.004  59.097 -50.256  1.00  0.00     0.036 C 
BRANCH  12  16
HETATM   16  C   UNL     1     -41.901  55.474 -51.171  1.00  0.00     0.274 C 
BRANCH  16  17
HETATM   17  C   UNL     1     -41.095  54.239 -51.483  1.00  0.00    -0.026 A 
HETATM   18  C   UNL     1     -41.088  53.770 -52.815  1.00  0.00     0.016 A 
HETATM   19  C   UNL     1     -40.344  52.649 -53.191  1.00  0.00    -0.061 A 
HETATM   20  C   UNL     1     -40.370  52.143 -54.606  1.00  0.00     0.048 C 
HETATM   21  C   UNL     1     -39.611  51.972 -52.219  1.00  0.00     0.007 A 
HETATM   22  C   UNL     1     -39.613  52.415 -50.895  1.00  0.00     0.008 A 
HETATM   23  C   UNL     1     -40.341  53.552 -50.510  1.00  0.00    -0.054 A 
HETATM   24  C   UNL     1     -40.353  53.934 -49.055  1.00  0.00     0.049 C 
ENDBRANCH  16  17
ENDBRANCH  12  16
ENDBRANCH   1   9
BRANCH   1  25
HETATM   25  C   UNL     1     -43.269  61.249 -50.861  1.00  0.00     0.072 A 
HETATM   26  N   UNL     1     -44.231  60.849 -49.973  1.00  0.00    -0.262 NA
HETATM   27  C   UNL     1     -44.684  61.763 -49.083  1.00  0.00     0.117 A 
HETATM   28  C   UNL     1     -44.223  63.064 -49.020  1.00  0.00     0.019 A 
HETATM   29  C   UNL     1     -43.236  63.454 -49.916  1.00  0.00     0.003 A 
HETATM   30  C   UNL     1     -42.743  62.537 -50.843  1.00  0.00     0.030 A 
ENDBRANCH   1  25
BRANCH   5  31
HETATM   31  C   UNL     1     -44.261  59.563 -55.276  1.00  0.00     0.168 C 
BRANCH  31  32
HETATM   32  C   UNL     1     -43.136  58.852 -56.041  1.00  0.00     0.140 C 
HETATM   33  O   UNL     1     -43.139  57.427 -55.779  1.00  0.00    -0.384 OA
HETATM   34  C   UNL     1     -42.759  56.752 -56.993  1.00  0.00     0.168 C 
HETATM   35  C   UNL     1     -42.415  57.819 -58.013  1.00  0.00     0.029 C 
HETATM   36  C   UNL     1     -43.248  58.988 -57.549  1.00  0.00     0.036 C 
ENDBRANCH  31  32
ENDBRANCH   5  31
TORSDOF 6
ENDMDL
MODEL 7
REMARK VINA RESULT:      -8.0      2.006      5.281
REMARK  6 active torsions:
REMARK  status: ('A' for Active; 'I' for Inactive)
REMARK    1  A    between atoms: C_4  and  C_5 
REMARK    2  A    between atoms: C_5  and  N_6 
REMARK    3  A    between atoms: C_10  and  C_11 
REMARK    4  A    between atoms: C_11  and  C_12 
REMARK    5  A    between atoms: N_21  and  C_22 
REMARK    6  A    between atoms: C_22  and  C_23 
ROOT
HETATM    1  C   UNL     1     -43.252  59.774 -53.825  1.00  0.00     0.164 A 
HETATM    2  N   UNL     1     -44.273  58.745 -53.693  1.00  0.00    -0.319 N 
HETATM    3  C   UNL     1     -44.132  57.749 -54.631  1.00  0.00     0.326 A 
HETATM    4  O   UNL     1     -44.919  56.823 -54.724  1.00  0.00    -0.247 OA
HETATM    5  N   UNL     1     -43.003  57.973 -55.345  1.00  0.00    -0.265 N 
HETATM    6  C   UNL     1     -42.438  59.166 -54.990  1.00  0.00     0.263 A 
HETATM    7  O   UNL     1     -41.409  59.635 -55.457  1.00  0.00    -0.270 OA
HETATM    8  H   UNL     1     -45.232  59.026 -53.507  1.00  0.00     0.166 HD
ENDROOT
BRANCH   1   9
HETATM    9  C   UNL     1     -42.352  59.896 -52.541  1.00  0.00     0.033 C 
HETATM   10  C   UNL     1     -41.129  58.958 -52.495  1.00  0.00     0.036 C 
HETATM   11  C   UNL     1     -41.474  57.492 -52.282  1.00  0.00     0.235 C 
HETATM   12  N   UNL     1     -42.356  57.297 -51.070  1.00  0.00    -0.067 N 
HETATM   13  H   UNL     1     -41.742  57.412 -50.257  1.00  0.00     0.280 HD
HETATM   14  C   UNL     1     -43.504  58.271 -50.921  1.00  0.00     0.235 C 
HETATM   15  C   UNL     1     -43.080  59.705 -51.196  1.00  0.00     0.036 C 
BRANCH  12  16
HETATM   16  C   UNL     1     -42.906  55.871 -50.996  1.00  0.00     0.274 C 
BRANCH  16  17
HETATM   17  C   UNL     1     -41.892  54.777 -51.213  1.00  0.00    -0.026 A 
HETATM   18  C   UNL     1     -41.829  54.174 -52.489  1.00  0.00     0.016 A 
HETATM   19  C   UNL     1     -40.899  53.173 -52.779  1.00  0.00    -0.061 A 
HETATM   20  C   UNL     1     -40.864  52.519 -54.131  1.00  0.00     0.048 C 
HETATM   21  C   UNL     1     -40.032  52.750 -51.774  1.00  0.00     0.007 A 
HETATM   22  C   UNL     1     -40.085  53.327 -50.504  1.00  0.00     0.008 A 
HETATM   23  C   UNL     1     -41.002  54.349 -50.207  1.00  0.00    -0.054 A 
HETATM   24  C   UNL     1     -41.051  54.878 -48.800  1.00  0.00     0.049 C 
ENDBRANCH  16  17
ENDBRANCH  12  16
ENDBRANCH   1   9
BRANCH   1  25
HETATM   25  C   UNL     1     -43.936  61.091 -54.176  1.00  0.00     0.072 A 
HETATM   26  N   UNL     1     -43.166  62.207 -53.991  1.00  0.00    -0.262 NA
HETATM   27  C   UNL     1     -43.721  63.408 -54.277  1.00  0.00     0.117 A 
HETATM   28  C   UNL     1     -45.010  63.563 -54.750  1.00  0.00     0.019 A 
HETATM   29  C   UNL     1     -45.776  62.422 -54.950  1.00  0.00     0.003 A 
HETATM   30  C   UNL     1     -45.235  61.169 -54.670  1.00  0.00     0.030 A 
ENDBRANCH   1  25
BRANCH   5  31
HETATM   31  C   UNL     1     -42.407  57.010 -56.257  1.00  0.00     0.168 C 
BRANCH  31  32
HETATM   32  C   UNL     1     -42.888  57.242 -57.696  1.00  0.00     0.140 C 
HETATM   33  O   UNL     1     -41.952  58.061 -58.440  1.00  0.00    -0.384 OA
HETATM   34  C   UNL     1     -41.931  57.586 -59.799  1.00  0.00     0.168 C 
HETATM   35  C   UNL     1     -42.975  56.492 -59.910  1.00  0.00     0.029 C 
HETATM   36  C   UNL     1     -43.037  55.963 -58.499  1.00  0.00     0.036 C 
ENDBRANCH  31  32
ENDBRANCH   5  31
TORSDOF 6
ENDMDL
MODEL 8
REMARK VINA RESULT:      -7.9      2.365      4.372
REMARK  6 active torsions:
REMARK  status: ('A' for Active; 'I' for Inactive)
REMARK    1  A    between atoms: C_4  and  C_5 
REMARK    2  A    between atoms: C_5  and  N_6 
REMARK    3  A    between atoms: C_10  and  C_11 
REMARK    4  A    between atoms: C_11  and  C_12 
REMARK    5  A    between atoms: N_21  and  C_22 
REMARK    6  A    between atoms: C_22  and  C_23 
ROOT
HETATM    1  C   UNL     1     -42.761  59.065 -52.495  1.00  0.00     0.164 A 
HETATM    2  N   UNL     1     -43.516  58.035 -51.796  1.00  0.00    -0.319 N 
HETATM    3  C   UNL     1     -44.649  58.534 -51.198  1.00  0.00     0.326 A 
HETATM    4  O   UNL     1     -45.388  57.844 -50.518  1.00  0.00    -0.247 OA
HETATM    5  N   UNL     1     -44.783  59.840 -51.531  1.00  0.00    -0.265 N 
HETATM    6  C   UNL     1     -43.699  60.268 -52.246  1.00  0.00     0.263 A 
HETATM    7  O   UNL     1     -43.538  61.397 -52.690  1.00  0.00    -0.270 OA
HETATM    8  H   UNL     1     -43.010  57.344 -51.247  1.00  0.00     0.166 HD
ENDROOT
BRANCH   1   9
HETATM    9  C   UNL     1     -42.643  58.780 -54.037  1.00  0.00     0.033 C 
HETATM   10  C   UNL     1     -43.938  58.309 -54.728  1.00  0.00     0.036 C 
HETATM   11  C   UNL     1     -44.363  56.896 -54.360  1.00  0.00     0.235 C 
HETATM   12  N   UNL     1     -43.241  55.904 -54.570  1.00  0.00    -0.067 N 
HETATM   13  H   UNL     1     -43.176  55.767 -55.585  1.00  0.00     0.280 HD
HETATM   14  C   UNL     1     -41.877  56.331 -54.074  1.00  0.00     0.235 C 
HETATM   15  C   UNL     1     -41.554  57.769 -54.446  1.00  0.00     0.036 C 
BRANCH  12  16
HETATM   16  C   UNL     1     -43.578  54.537 -53.973  1.00  0.00     0.274 C 
BRANCH  16  17
HETATM   17  C   UNL     1     -42.460  53.871 -53.213  1.00  0.00    -0.026 A 
HETATM   18  C   UNL     1     -41.529  53.099 -53.943  1.00  0.00     0.016 A 
HETATM   19  C   UNL     1     -40.448  52.473 -53.317  1.00  0.00    -0.061 A 
HETATM   20  C   UNL     1     -39.483  51.631 -54.102  1.00  0.00     0.048 C 
HETATM   21  C   UNL     1     -40.306  52.599 -51.937  1.00  0.00     0.007 A 
HETATM   22  C   UNL     1     -41.222  53.350 -51.197  1.00  0.00     0.008 A 
HETATM   23  C   UNL     1     -42.299  54.000 -51.819  1.00  0.00    -0.054 A 
HETATM   24  C   UNL     1     -43.286  54.736 -50.953  1.00  0.00     0.049 C 
ENDBRANCH  16  17
ENDBRANCH  12  16
ENDBRANCH   1   9
BRANCH   1  25
HETATM   25  C   UNL     1     -41.398  59.202 -51.827  1.00  0.00     0.072 A 
HETATM   26  N   UNL     1     -40.331  59.168 -52.683  1.00  0.00    -0.262 NA
HETATM   27  C   UNL     1     -39.092  59.276 -52.149  1.00  0.00     0.117 A 
HETATM   28  C   UNL     1     -38.852  59.425 -50.797  1.00  0.00     0.019 A 
HETATM   29  C   UNL     1     -39.942  59.473 -49.938  1.00  0.00     0.003 A 
HETATM   30  C   UNL     1     -41.232  59.371 -50.455  1.00  0.00     0.030 A 
ENDBRANCH   1  25
BRANCH   5  31
HETATM   31  C   UNL     1     -45.978  60.630 -51.282  1.00  0.00     0.168 C 
BRANCH  31  32
HETATM   32  C   UNL     1     -45.739  61.655 -50.164  1.00  0.00     0.140 C 
HETATM   33  O   UNL     1     -46.882  62.528 -49.995  1.00  0.00    -0.384 OA
HETATM   34  C   UNL     1     -47.014  62.818 -48.591  1.00  0.00     0.168 C 
HETATM   35  C   UNL     1     -45.839  62.172 -47.885  1.00  0.00     0.029 C 
HETATM   36  C   UNL     1     -45.504  61.024 -48.804  1.00  0.00     0.036 C 
ENDBRANCH  31  32
ENDBRANCH   5  31
TORSDOF 6
ENDMDL
MODEL 9
REMARK VINA RESULT:      -7.9      1.927      2.681
REMARK  6 active torsions:
REMARK  status: ('A' for Active; 'I' for Inactive)
REMARK    1  A    between atoms: C_4  and  C_5 
REMARK    2  A    between atoms: C_5  and  N_6 
REMARK    3  A    between atoms: C_10  and  C_11 
REMARK    4  A    between atoms: C_11  and  C_12 
REMARK    5  A    between atoms: N_21  and  C_22 
REMARK    6  A    between atoms: C_22  and  C_23 
ROOT
HETATM    1  C   UNL     1     -44.111  59.419 -53.001  1.00  0.00     0.164 A 
HETATM    2  N   UNL     1     -42.858  59.613 -52.286  1.00  0.00    -0.319 N 
HETATM    3  C   UNL     1     -42.920  60.661 -51.399  1.00  0.00     0.326 A 
HETATM    4  O   UNL     1     -41.959  61.021 -50.743  1.00  0.00    -0.247 OA
HETATM    5  N   UNL     1     -44.186  61.145 -51.378  1.00  0.00    -0.265 N 
HETATM    6  C   UNL     1     -44.954  60.522 -52.322  1.00  0.00     0.263 A 
HETATM    7  O   UNL     1     -46.139  60.743 -52.536  1.00  0.00    -0.270 OA
HETATM    8  H   UNL     1     -41.983  59.538 -52.801  1.00  0.00     0.166 HD
ENDROOT
BRANCH   1   9
HETATM    9  C   UNL     1     -44.747  58.007 -52.728  1.00  0.00     0.033 C 
HETATM   10  C   UNL     1     -44.417  57.383 -51.357  1.00  0.00     0.036 C 
HETATM   11  C   UNL     1     -42.977  56.916 -51.214  1.00  0.00     0.235 C 
HETATM   12  N   UNL     1     -42.575  55.994 -52.343  1.00  0.00    -0.067 N 
HETATM   13  H   UNL     1     -43.031  55.096 -52.145  1.00  0.00     0.280 HD
HETATM   14  C   UNL     1     -42.992  56.425 -53.732  1.00  0.00     0.235 C 
HETATM   15  C   UNL     1     -44.429  56.920 -53.774  1.00  0.00     0.036 C 
BRANCH  12  16
HETATM   16  C   UNL     1     -41.070  55.722 -52.340  1.00  0.00     0.274 C 
BRANCH  16  17
HETATM   17  C   UNL     1     -40.674  54.284 -52.117  1.00  0.00    -0.026 A 
HETATM   18  C   UNL     1     -40.567  53.442 -53.247  1.00  0.00     0.016 A 
HETATM   19  C   UNL     1     -40.179  52.106 -53.128  1.00  0.00    -0.061 A 
HETATM   20  C   UNL     1     -40.098  51.214 -54.334  1.00  0.00     0.048 C 
HETATM   21  C   UNL     1     -39.915  51.594 -51.859  1.00  0.00     0.007 A 
HETATM   22  C   UNL     1     -40.025  52.407 -50.730  1.00  0.00     0.008 A 
HETATM   23  C   UNL     1     -40.394  53.758 -50.840  1.00  0.00    -0.054 A 
HETATM   24  C   UNL     1     -40.559  54.559 -49.577  1.00  0.00     0.049 C 
ENDBRANCH  16  17
ENDBRANCH  12  16
ENDBRANCH   1   9
BRANCH   1  25
HETATM   25  C   UNL     1     -43.863  59.663 -54.486  1.00  0.00     0.072 A 
HETATM   26  N   UNL     1     -42.548  59.808 -54.834  1.00  0.00    -0.262 NA
HETATM   27  C   UNL     1     -42.264  60.037 -56.137  1.00  0.00     0.117 A 
HETATM   28  C   UNL     1     -43.224  60.122 -57.127  1.00  0.00     0.019 A 
HETATM   29  C   UNL     1     -44.555  59.958 -56.764  1.00  0.00     0.003 A 
HETATM   30  C   UNL     1     -44.883  59.717 -55.432  1.00  0.00     0.030 A 
ENDBRANCH   1  25
BRANCH   5  31
HETATM   31  C   UNL     1     -44.684  62.091 -50.393  1.00  0.00     0.168 C 
BRANCH  31  32
HETATM   32  C   UNL     1     -44.545  61.531 -48.970  1.00  0.00     0.140 C 
HETATM   33  O   UNL     1     -44.549  62.592 -47.984  1.00  0.00    -0.384 OA
HETATM   34  C   UNL     1     -45.239  62.108 -46.816  1.00  0.00     0.168 C 
HETATM   35  C   UNL     1     -45.584  60.653 -47.067  1.00  0.00     0.029 C 
HETATM   36  C   UNL     1     -45.675  60.600 -48.572  1.00  0.00     0.036 C 
ENDBRANCH  31  32
ENDBRANCH   5  31
TORSDOF 6
ENDMDL
MODEL 10
REMARK VINA RESULT:      -7.9      1.954      5.097
REMARK  6 active torsions:
REMARK  status: ('A' for Active; 'I' for Inactive)
REMARK    1  A    between atoms: C_4  and  C_5 
REMARK    2  A    between atoms: C_5  and  N_6 
REMARK    3  A    between atoms: C_10  and  C_11 
REMARK    4  A    between atoms: C_11  and  C_12 
REMARK    5  A    between atoms: N_21  and  C_22 
REMARK    6  A    between atoms: C_22  and  C_23 
ROOT
HETATM    1  C   UNL     1     -42.997  59.512 -52.548  1.00  0.00     0.164 A 
HETATM    2  N   UNL     1     -43.841  58.334 -52.692  1.00  0.00    -0.319 N 
HETATM    3  C   UNL     1     -44.437  58.268 -53.929  1.00  0.00     0.326 A 
HETATM    4  O   UNL     1     -45.224  57.388 -54.229  1.00  0.00    -0.247 OA
HETATM    5  N   UNL     1     -43.970  59.282 -54.697  1.00  0.00    -0.265 N 
HETATM    6  C   UNL     1     -43.159  60.105 -53.966  1.00  0.00     0.263 A 
HETATM    7  O   UNL     1     -42.588  61.101 -54.388  1.00  0.00    -0.270 OA
HETATM    8  H   UNL     1     -44.435  58.060 -51.914  1.00  0.00     0.166 HD
ENDROOT
BRANCH   1   9
HETATM    9  C   UNL     1     -41.490  59.143 -52.285  1.00  0.00     0.033 C 
HETATM   10  C   UNL     1     -40.830  58.246 -53.351  1.00  0.00     0.036 C 
HETATM   11  C   UNL     1     -41.325  56.808 -53.352  1.00  0.00     0.235 C 
HETATM   12  N   UNL     1     -41.227  56.184 -51.978  1.00  0.00    -0.067 N 
HETATM   13  H   UNL     1     -40.231  55.986 -51.833  1.00  0.00     0.280 HD
HETATM   14  C   UNL     1     -41.698  57.042 -50.825  1.00  0.00     0.235 C 
HETATM   15  C   UNL     1     -41.195  58.473 -50.929  1.00  0.00     0.036 C 
BRANCH  12  16
HETATM   16  C   UNL     1     -41.947  54.836 -51.918  1.00  0.00     0.274 C 
BRANCH  16  17
HETATM   17  C   UNL     1     -41.051  53.624 -51.942  1.00  0.00    -0.026 A 
HETATM   18  C   UNL     1     -40.909  52.927 -53.163  1.00  0.00     0.016 A 
HETATM   19  C   UNL     1     -40.076  51.812 -53.275  1.00  0.00    -0.061 A 
HETATM   20  C   UNL     1     -39.958  51.063 -54.572  1.00  0.00     0.048 C 
HETATM   21  C   UNL     1     -39.390  51.370 -52.146  1.00  0.00     0.007 A 
HETATM   22  C   UNL     1     -39.525  52.039 -50.928  1.00  0.00     0.008 A 
HETATM   23  C   UNL     1     -40.344  53.174 -50.809  1.00  0.00    -0.054 A 
HETATM   24  C   UNL     1     -40.496  53.805 -49.452  1.00  0.00     0.049 C 
ENDBRANCH  16  17
ENDBRANCH  12  16
ENDBRANCH   1   9
BRANCH   1  25
HETATM   25  C   UNL     1     -43.576  60.390 -51.445  1.00  0.00     0.072 A 
HETATM   26  N   UNL     1     -44.680  59.876 -50.820  1.00  0.00    -0.262 NA
HETATM   27  C   UNL     1     -45.247  60.615 -49.837  1.00  0.00     0.117 A 
HETATM   28  C   UNL     1     -44.767  61.845 -49.431  1.00  0.00     0.019 A 
HETATM   29  C   UNL     1     -43.638  62.350 -50.062  1.00  0.00     0.003 A 
HETATM   30  C   UNL     1     -43.026  61.614 -51.074  1.00  0.00     0.030 A 
ENDBRANCH   1  25
BRANCH   5  31
HETATM   31  C   UNL     1     -44.192  59.392 -56.129  1.00  0.00     0.168 C 
BRANCH  31  32
HETATM   32  C   UNL     1     -45.659  59.722 -56.437  1.00  0.00     0.140 C 
HETATM   33  O   UNL     1     -45.787  61.019 -57.070  1.00  0.00    -0.384 OA
HETATM   34  C   UNL     1     -46.854  60.938 -58.033  1.00  0.00     0.168 C 
HETATM   35  C   UNL     1     -47.468  59.558 -57.911  1.00  0.00     0.029 C 
HETATM   36  C   UNL     1     -46.315  58.738 -57.389  1.00  0.00     0.036 C 
ENDBRANCH  31  32
ENDBRANCH   5  31
TORSDOF 6
ENDMDL
