MODEL 1
REMARK VINA RESULT:      -7.7      0.000      0.000
REMARK  2 active torsions:
REMARK  status: ('A' for Active; 'I' for Inactive)
REMARK    1  A    between atoms: C_2  and  C_3 
REMARK    2  A    between atoms: C_4  and  N_5 
ROOT
HETATM    1  N   UNL     1     -42.001  55.664 -51.620  1.00  0.00    -0.321 N 
HETATM    2  C   UNL     1     -43.393  55.865 -51.423  1.00  0.00     0.141 C 
HETATM    3  N   UNL     1     -44.181  54.936 -50.966  1.00  0.00    -0.380 N 
HETATM    4  H   UNL     1     -45.162  55.134 -50.833  1.00  0.00     0.158 HD
HETATM    5  H   UNL     1     -43.790  54.036 -50.727  1.00  0.00     0.158 HD
HETATM    6  S   UNL     1     -43.911  57.452 -51.819  1.00  0.00    -0.086 SA
HETATM    7  C   UNL     1     -42.277  57.853 -52.580  1.00  0.00     0.093 C 
HETATM    8  C   UNL     1     -41.261  56.920 -51.876  1.00  0.00     0.121 C 
HETATM    9  C   UNL     1     -41.831  59.289 -52.406  1.00  0.00     0.158 C 
HETATM   10  S   UNL     1     -40.895  59.340 -50.898  1.00  0.00     0.147 S 
HETATM   11  O   UNL     1     -41.691  59.976 -49.873  1.00  0.00    -0.228 OA
HETATM   12  O   UNL     1     -39.549  59.766 -51.217  1.00  0.00    -0.228 OA
HETATM   13  C   UNL     1     -40.851  57.598 -50.569  1.00  0.00     0.167 C 
ENDROOT
BRANCH   1  14
HETATM   14  C   UNL     1     -41.288  54.454 -51.671  1.00  0.00     0.043 A 
HETATM   15  C   UNL     1     -40.969  53.807 -52.892  1.00  0.00    -0.028 A 
HETATM   16  C   UNL     1     -40.291  52.567 -52.847  1.00  0.00     0.010 A 
HETATM   17  C   UNL     1     -39.917  51.982 -51.640  1.00  0.00     0.001 A 
HETATM   18  C   UNL     1     -40.212  52.623 -50.449  1.00  0.00     0.002 A 
HETATM   19  C   UNL     1     -40.891  53.841 -50.467  1.00  0.00     0.030 A 
BRANCH  15  20
HETATM   20  C   UNL     1     -41.244  54.420 -54.264  1.00  0.00     0.013 C 
HETATM   21  C   UNL     1     -42.606  53.989 -54.822  1.00  0.00     0.015 C 
HETATM   22  C   UNL     1     -40.129  54.089 -55.264  1.00  0.00     0.015 C 
ENDBRANCH  15  20
ENDBRANCH   1  14
TORSDOF 2
ENDMDL
MODEL 2
REMARK VINA RESULT:      -7.6      1.627      2.844
REMARK  2 active torsions:
REMARK  status: ('A' for Active; 'I' for Inactive)
REMARK    1  A    between atoms: C_2  and  C_3 
REMARK    2  A    between atoms: C_4  and  N_5 
ROOT
HETATM    1  N   UNL     1     -41.798  55.107 -53.235  1.00  0.00    -0.321 N 
HETATM    2  C   UNL     1     -43.210  55.255 -53.275  1.00  0.00     0.141 C 
HETATM    3  N   UNL     1     -44.026  54.347 -52.824  1.00  0.00    -0.380 N 
HETATM    4  H   UNL     1     -45.022  54.506 -52.865  1.00  0.00     0.158 HD
HETATM    5  H   UNL     1     -43.645  53.506 -52.416  1.00  0.00     0.158 HD
HETATM    6  S   UNL     1     -43.716  56.751 -53.944  1.00  0.00    -0.086 SA
HETATM    7  C   UNL     1     -41.999  57.145 -54.499  1.00  0.00     0.093 C 
HETATM    8  C   UNL     1     -41.072  56.360 -53.538  1.00  0.00     0.121 C 
HETATM    9  C   UNL     1     -41.636  58.613 -54.446  1.00  0.00     0.158 C 
HETATM   10  S   UNL     1     -40.945  58.897 -52.835  1.00  0.00     0.147 S 
HETATM   11  O   UNL     1     -41.912  59.610 -52.029  1.00  0.00    -0.228 OA
HETATM   12  O   UNL     1     -39.583  59.353 -53.003  1.00  0.00    -0.228 OA
HETATM   13  C   UNL     1     -40.892  57.213 -52.282  1.00  0.00     0.167 C 
ENDROOT
BRANCH   1  14
HETATM   14  C   UNL     1     -41.044  53.939 -53.024  1.00  0.00     0.043 A 
HETATM   15  C   UNL     1     -40.458  53.624 -51.771  1.00  0.00    -0.028 A 
HETATM   16  C   UNL     1     -39.676  52.452 -51.663  1.00  0.00     0.010 A 
HETATM   17  C   UNL     1     -39.486  51.597 -52.746  1.00  0.00     0.001 A 
HETATM   18  C   UNL     1     -40.074  51.895 -53.963  1.00  0.00     0.002 A 
HETATM   19  C   UNL     1     -40.841  53.052 -54.098  1.00  0.00     0.030 A 
BRANCH  15  20
HETATM   20  C   UNL     1     -40.697  54.443 -50.503  1.00  0.00     0.013 C 
HETATM   21  C   UNL     1     -39.573  54.251 -49.477  1.00  0.00     0.015 C 
HETATM   22  C   UNL     1     -42.056  54.122 -49.872  1.00  0.00     0.015 C 
ENDBRANCH  15  20
ENDBRANCH   1  14
TORSDOF 2
ENDMDL
MODEL 3
REMARK VINA RESULT:      -7.1      1.910      2.153
REMARK  2 active torsions:
REMARK  status: ('A' for Active; 'I' for Inactive)
REMARK    1  A    between atoms: C_2  and  C_3 
REMARK    2  A    between atoms: C_4  and  N_5 
ROOT
HETATM    1  N   UNL     1     -42.031  55.365 -52.841  1.00  0.00    -0.321 N 
HETATM    2  C   UNL     1     -43.393  55.125 -53.164  1.00  0.00     0.141 C 
HETATM    3  N   UNL     1     -44.110  54.220 -52.563  1.00  0.00    -0.380 N 
HETATM    4  H   UNL     1     -45.078  54.097 -52.822  1.00  0.00     0.158 HD
HETATM    5  H   UNL     1     -43.689  53.670 -51.828  1.00  0.00     0.158 HD
HETATM    6  S   UNL     1     -43.992  56.164 -54.390  1.00  0.00    -0.086 SA
HETATM    7  C   UNL     1     -42.297  56.797 -54.756  1.00  0.00     0.093 C 
HETATM    8  C   UNL     1     -41.500  56.609 -53.441  1.00  0.00     0.121 C 
HETATM    9  C   UNL     1     -42.237  58.253 -55.165  1.00  0.00     0.158 C 
HETATM   10  S   UNL     1     -42.023  59.182 -53.666  1.00  0.00     0.147 S 
HETATM   11  O   UNL     1     -43.272  59.832 -53.335  1.00  0.00    -0.228 OA
HETATM   12  O   UNL     1     -40.770  59.900 -53.756  1.00  0.00    -0.228 OA
HETATM   13  C   UNL     1     -41.792  57.819 -52.555  1.00  0.00     0.167 C 
ENDROOT
BRANCH   1  14
HETATM   14  C   UNL     1     -41.147  54.552 -52.111  1.00  0.00     0.043 A 
HETATM   15  C   UNL     1     -40.600  53.354 -52.637  1.00  0.00    -0.028 A 
HETATM   16  C   UNL     1     -39.756  52.573 -51.814  1.00  0.00     0.010 A 
HETATM   17  C   UNL     1     -39.438  52.962 -50.516  1.00  0.00     0.001 A 
HETATM   18  C   UNL     1     -39.957  54.141 -50.009  1.00  0.00     0.002 A 
HETATM   19  C   UNL     1     -40.801  54.923 -50.797  1.00  0.00     0.030 A 
BRANCH  15  20
HETATM   20  C   UNL     1     -40.806  52.900 -54.082  1.00  0.00     0.013 C 
HETATM   21  C   UNL     1     -40.414  51.432 -54.283  1.00  0.00     0.015 C 
HETATM   22  C   UNL     1     -40.047  53.795 -55.068  1.00  0.00     0.015 C 
ENDBRANCH  15  20
ENDBRANCH   1  14
TORSDOF 2
ENDMDL
MODEL 4
REMARK VINA RESULT:      -6.6      3.665      4.857
REMARK  2 active torsions:
REMARK  status: ('A' for Active; 'I' for Inactive)
REMARK    1  A    between atoms: C_2  and  C_3 
REMARK    2  A    between atoms: C_4  and  N_5 
ROOT
HETATM    1  N   UNL     1     -41.940  56.663 -54.446  1.00  0.00    -0.321 N 
HETATM    2  C   UNL     1     -41.519  57.911 -53.915  1.00  0.00     0.141 C 
HETATM    3  N   UNL     1     -40.393  58.061 -53.279  1.00  0.00    -0.380 N 
HETATM    4  H   UNL     1     -40.135  58.973 -52.931  1.00  0.00     0.158 HD
HETATM    5  H   UNL     1     -39.784  57.264 -53.167  1.00  0.00     0.158 HD
HETATM    6  S   UNL     1     -42.623  59.186 -54.224  1.00  0.00    -0.086 SA
HETATM    7  C   UNL     1     -43.898  58.004 -54.847  1.00  0.00     0.093 C 
HETATM    8  C   UNL     1     -43.099  56.779 -55.359  1.00  0.00     0.121 C 
HETATM    9  C   UNL     1     -44.760  58.535 -55.971  1.00  0.00     0.158 C 
HETATM   10  S   UNL     1     -43.933  58.100 -57.481  1.00  0.00     0.147 S 
HETATM   11  O   UNL     1     -43.326  59.286 -58.043  1.00  0.00    -0.228 OA
HETATM   12  O   UNL     1     -44.811  57.238 -58.244  1.00  0.00    -0.228 OA
HETATM   13  C   UNL     1     -42.651  57.092 -56.786  1.00  0.00     0.167 C 
ENDROOT
BRANCH   1  14
HETATM   14  C   UNL     1     -41.451  55.377 -54.157  1.00  0.00     0.043 A 
HETATM   15  C   UNL     1     -41.744  54.703 -52.944  1.00  0.00    -0.028 A 
HETATM   16  C   UNL     1     -41.170  53.431 -52.718  1.00  0.00     0.010 A 
HETATM   17  C   UNL     1     -40.345  52.823 -53.661  1.00  0.00     0.001 A 
HETATM   18  C   UNL     1     -40.075  53.473 -54.853  1.00  0.00     0.002 A 
HETATM   19  C   UNL     1     -40.620  54.734 -55.095  1.00  0.00     0.030 A 
BRANCH  15  20
HETATM   20  C   UNL     1     -42.720  55.242 -51.899  1.00  0.00     0.013 C 
HETATM   21  C   UNL     1     -41.997  56.000 -50.778  1.00  0.00     0.015 C 
HETATM   22  C   UNL     1     -43.591  54.125 -51.312  1.00  0.00     0.015 C 
ENDBRANCH  15  20
ENDBRANCH   1  14
TORSDOF 2
ENDMDL
MODEL 5
REMARK VINA RESULT:      -6.5      2.387      3.259
REMARK  2 active torsions:
REMARK  status: ('A' for Active; 'I' for Inactive)
REMARK    1  A    between atoms: C_2  and  C_3 
REMARK    2  A    between atoms: C_4  and  N_5 
ROOT
HETATM    1  N   UNL     1     -41.894  57.462 -51.835  1.00  0.00    -0.321 N 
HETATM    2  C   UNL     1     -41.312  58.439 -52.687  1.00  0.00     0.141 C 
HETATM    3  N   UNL     1     -40.390  58.152 -53.560  1.00  0.00    -0.380 N 
HETATM    4  H   UNL     1     -40.017  58.881 -54.150  1.00  0.00     0.158 HD
HETATM    5  H   UNL     1     -40.081  57.194 -53.648  1.00  0.00     0.158 HD
HETATM    6  S   UNL     1     -41.967  60.008 -52.466  1.00  0.00    -0.086 SA
HETATM    7  C   UNL     1     -42.881  59.472 -50.953  1.00  0.00     0.093 C 
HETATM    8  C   UNL     1     -43.101  57.949 -51.130  1.00  0.00     0.121 C 
HETATM    9  C   UNL     1     -44.222  60.143 -50.750  1.00  0.00     0.158 C 
HETATM   10  S   UNL     1     -45.420  59.121 -51.571  1.00  0.00     0.147 S 
HETATM   11  O   UNL     1     -45.830  59.770 -52.796  1.00  0.00    -0.228 OA
HETATM   12  O   UNL     1     -46.366  58.653 -50.581  1.00  0.00    -0.228 OA
HETATM   13  C   UNL     1     -44.353  57.767 -51.987  1.00  0.00     0.167 C 
ENDROOT
BRANCH   1  14
HETATM   14  C   UNL     1     -41.432  56.168 -51.540  1.00  0.00     0.043 A 
HETATM   15  C   UNL     1     -41.568  55.084 -52.445  1.00  0.00    -0.028 A 
HETATM   16  C   UNL     1     -41.116  53.805 -52.045  1.00  0.00     0.010 A 
HETATM   17  C   UNL     1     -40.529  53.594 -50.801  1.00  0.00     0.001 A 
HETATM   18  C   UNL     1     -40.379  54.655 -49.925  1.00  0.00     0.002 A 
HETATM   19  C   UNL     1     -40.827  55.924 -50.292  1.00  0.00     0.030 A 
BRANCH  15  20
HETATM   20  C   UNL     1     -42.101  55.240 -53.868  1.00  0.00     0.013 C 
HETATM   21  C   UNL     1     -43.519  54.675 -54.014  1.00  0.00     0.015 C 
HETATM   22  C   UNL     1     -41.163  54.598 -54.896  1.00  0.00     0.015 C 
ENDBRANCH  15  20
ENDBRANCH   1  14
TORSDOF 2
ENDMDL
MODEL 6
REMARK VINA RESULT:      -6.1      3.099      3.707
REMARK  2 active torsions:
REMARK  status: ('A' for Active; 'I' for Inactive)
REMARK    1  A    between atoms: C_2  and  C_3 
REMARK    2  A    between atoms: C_4  and  N_5 
ROOT
HETATM    1  N   UNL     1     -42.566  56.113 -54.145  1.00  0.00    -0.321 N 
HETATM    2  C   UNL     1     -43.685  55.531 -54.799  1.00  0.00     0.141 C 
HETATM    3  N   UNL     1     -44.465  54.664 -54.222  1.00  0.00    -0.380 N 
HETATM    4  H   UNL     1     -45.255  54.289 -54.727  1.00  0.00     0.158 HD
HETATM    5  H   UNL     1     -44.279  54.398 -53.266  1.00  0.00     0.158 HD
HETATM    6  S   UNL     1     -43.914  56.112 -56.397  1.00  0.00    -0.086 SA
HETATM    7  C   UNL     1     -42.282  56.976 -56.373  1.00  0.00     0.093 C 
HETATM    8  C   UNL     1     -41.996  57.265 -54.878  1.00  0.00     0.121 C 
HETATM    9  C   UNL     1     -42.241  58.278 -57.143  1.00  0.00     0.158 C 
HETATM   10  S   UNL     1     -42.686  59.553 -55.990  1.00  0.00     0.147 S 
HETATM   11  O   UNL     1     -44.034  59.993 -56.274  1.00  0.00    -0.228 OA
HETATM   12  O   UNL     1     -41.573  60.470 -55.881  1.00  0.00    -0.228 OA
HETATM   13  C   UNL     1     -42.720  58.562 -54.520  1.00  0.00     0.167 C 
ENDROOT
BRANCH   1  14
HETATM   14  C   UNL     1     -41.920  55.690 -52.971  1.00  0.00     0.043 A 
HETATM   15  C   UNL     1     -41.195  54.473 -52.894  1.00  0.00    -0.028 A 
HETATM   16  C   UNL     1     -40.616  54.104 -51.658  1.00  0.00     0.010 A 
HETATM   17  C   UNL     1     -40.727  54.911 -50.529  1.00  0.00     0.001 A 
HETATM   18  C   UNL     1     -41.418  56.108 -50.609  1.00  0.00     0.002 A 
HETATM   19  C   UNL     1     -42.007  56.489 -51.815  1.00  0.00     0.030 A 
BRANCH  15  20
HETATM   20  C   UNL     1     -40.931  53.575 -54.102  1.00  0.00     0.013 C 
HETATM   21  C   UNL     1     -40.396  52.199 -53.687  1.00  0.00     0.015 C 
HETATM   22  C   UNL     1     -39.977  54.239 -55.101  1.00  0.00     0.015 C 
ENDBRANCH  15  20
ENDBRANCH   1  14
TORSDOF 2
ENDMDL
MODEL 7
REMARK VINA RESULT:      -6.1      3.806      4.843
REMARK  2 active torsions:
REMARK  status: ('A' for Active; 'I' for Inactive)
REMARK    1  A    between atoms: C_2  and  C_3 
REMARK    2  A    between atoms: C_4  and  N_5 
ROOT
HETATM    1  N   UNL     1     -43.050  57.001 -55.418  1.00  0.00    -0.321 N 
HETATM    2  C   UNL     1     -44.455  57.168 -55.299  1.00  0.00     0.141 C 
HETATM    3  N   UNL     1     -45.158  56.583 -54.373  1.00  0.00    -0.380 N 
HETATM    4  H   UNL     1     -46.153  56.745 -54.324  1.00  0.00     0.158 HD
HETATM    5  H   UNL     1     -44.688  55.994 -53.701  1.00  0.00     0.158 HD
HETATM    6  S   UNL     1     -45.113  58.234 -56.471  1.00  0.00    -0.086 SA
HETATM    7  C   UNL     1     -43.519  58.279 -57.403  1.00  0.00     0.093 C 
HETATM    8  C   UNL     1     -42.425  57.965 -56.352  1.00  0.00     0.121 C 
HETATM    9  C   UNL     1     -43.205  59.605 -58.060  1.00  0.00     0.158 C 
HETATM   10  S   UNL     1     -42.282  60.545 -56.869  1.00  0.00     0.147 S 
HETATM   11  O   UNL     1     -43.136  61.575 -56.320  1.00  0.00    -0.228 OA
HETATM   12  O   UNL     1     -40.979  60.830 -57.430  1.00  0.00    -0.228 OA
HETATM   13  C   UNL     1     -42.083  59.276 -55.646  1.00  0.00     0.167 C 
ENDROOT
BRANCH   1  14
HETATM   14  C   UNL     1     -42.231  56.019 -54.834  1.00  0.00     0.043 A 
HETATM   15  C   UNL     1     -41.738  56.125 -53.509  1.00  0.00    -0.028 A 
HETATM   16  C   UNL     1     -40.881  55.113 -53.019  1.00  0.00     0.010 A 
HETATM   17  C   UNL     1     -40.530  54.014 -53.799  1.00  0.00     0.001 A 
HETATM   18  C   UNL     1     -41.026  53.901 -55.086  1.00  0.00     0.002 A 
HETATM   19  C   UNL     1     -41.864  54.893 -55.596  1.00  0.00     0.030 A 
BRANCH  15  20
HETATM   20  C   UNL     1     -42.152  57.237 -52.545  1.00  0.00     0.013 C 
HETATM   21  C   UNL     1     -40.944  58.028 -52.030  1.00  0.00     0.015 C 
HETATM   22  C   UNL     1     -42.971  56.689 -51.371  1.00  0.00     0.015 C 
ENDBRANCH  15  20
ENDBRANCH   1  14
TORSDOF 2
ENDMDL
MODEL 8
REMARK VINA RESULT:      -6.1      4.101      4.916
REMARK  2 active torsions:
REMARK  status: ('A' for Active; 'I' for Inactive)
REMARK    1  A    between atoms: C_2  and  C_3 
REMARK    2  A    between atoms: C_4  and  N_5 
ROOT
HETATM    1  N   UNL     1     -42.921  57.643 -55.243  1.00  0.00    -0.321 N 
HETATM    2  C   UNL     1     -44.233  57.417 -55.738  1.00  0.00     0.141 C 
HETATM    3  N   UNL     1     -45.201  56.975 -54.990  1.00  0.00    -0.380 N 
HETATM    4  H   UNL     1     -46.119  56.842 -55.388  1.00  0.00     0.158 HD
HETATM    5  H   UNL     1     -45.021  56.795 -54.013  1.00  0.00     0.158 HD
HETATM    6  S   UNL     1     -44.409  57.814 -57.398  1.00  0.00    -0.086 SA
HETATM    7  C   UNL     1     -42.585  58.031 -57.594  1.00  0.00     0.093 C 
HETATM    8  C   UNL     1     -42.066  58.402 -56.183  1.00  0.00     0.121 C 
HETATM    9  C   UNL     1     -42.175  59.112 -58.571  1.00  0.00     0.158 C 
HETATM   10  S   UNL     1     -42.030  60.608 -57.625  1.00  0.00     0.147 S 
HETATM   11  O   UNL     1     -43.164  61.458 -57.914  1.00  0.00    -0.228 OA
HETATM   12  O   UNL     1     -40.663  61.071 -57.722  1.00  0.00    -0.228 OA
HETATM   13  C   UNL     1     -42.254  59.908 -56.010  1.00  0.00     0.167 C 
ENDROOT
BRANCH   1  14
HETATM   14  C   UNL     1     -42.344  57.184 -54.046  1.00  0.00     0.043 A 
HETATM   15  C   UNL     1     -41.764  55.895 -53.924  1.00  0.00    -0.028 A 
HETATM   16  C   UNL     1     -41.249  55.498 -52.669  1.00  0.00     0.010 A 
HETATM   17  C   UNL     1     -41.284  56.345 -51.564  1.00  0.00     0.001 A 
HETATM   18  C   UNL     1     -41.833  57.610 -51.688  1.00  0.00     0.002 A 
HETATM   19  C   UNL     1     -42.357  58.020 -52.914  1.00  0.00     0.030 A 
BRANCH  15  20
HETATM   20  C   UNL     1     -41.586  54.939 -55.103  1.00  0.00     0.013 C 
HETATM   21  C   UNL     1     -42.754  53.952 -55.221  1.00  0.00     0.015 C 
HETATM   22  C   UNL     1     -40.255  54.183 -55.020  1.00  0.00     0.015 C 
ENDBRANCH  15  20
ENDBRANCH   1  14
TORSDOF 2
ENDMDL
MODEL 9
REMARK VINA RESULT:      -6.0      4.528      6.325
REMARK  2 active torsions:
REMARK  status: ('A' for Active; 'I' for Inactive)
REMARK    1  A    between atoms: C_2  and  C_3 
REMARK    2  A    between atoms: C_4  and  N_5 
ROOT
HETATM    1  N   UNL     1     -43.341  56.901 -55.930  1.00  0.00    -0.321 N 
HETATM    2  C   UNL     1     -44.517  57.287 -55.233  1.00  0.00     0.141 C 
HETATM    3  N   UNL     1     -45.645  57.527 -55.834  1.00  0.00    -0.380 N 
HETATM    4  H   UNL     1     -46.456  57.787 -55.290  1.00  0.00     0.158 HD
HETATM    5  H   UNL     1     -45.697  57.424 -56.837  1.00  0.00     0.158 HD
HETATM    6  S   UNL     1     -44.300  57.370 -53.533  1.00  0.00    -0.086 SA
HETATM    7  C   UNL     1     -42.471  57.174 -53.703  1.00  0.00     0.093 C 
HETATM    8  C   UNL     1     -42.267  56.414 -55.037  1.00  0.00     0.121 C 
HETATM    9  C   UNL     1     -41.809  56.397 -52.586  1.00  0.00     0.158 C 
HETATM   10  S   UNL     1     -41.819  54.694 -53.091  1.00  0.00     0.147 S 
HETATM   11  O   UNL     1     -42.823  53.985 -52.329  1.00  0.00    -0.228 OA
HETATM   12  O   UNL     1     -40.447  54.243 -53.182  1.00  0.00    -0.228 OA
HETATM   13  C   UNL     1     -42.428  54.923 -54.740  1.00  0.00     0.167 C 
ENDROOT
BRANCH   1  14
HETATM   14  C   UNL     1     -43.066  56.997 -57.305  1.00  0.00     0.043 A 
HETATM   15  C   UNL     1     -42.740  58.225 -57.935  1.00  0.00    -0.028 A 
HETATM   16  C   UNL     1     -42.526  58.236 -59.333  1.00  0.00     0.010 A 
HETATM   17  C   UNL     1     -42.610  57.074 -60.094  1.00  0.00     0.001 A 
HETATM   18  C   UNL     1     -42.909  55.871 -59.476  1.00  0.00     0.002 A 
HETATM   19  C   UNL     1     -43.136  55.837 -58.100  1.00  0.00     0.030 A 
BRANCH  15  20
HETATM   20  C   UNL     1     -42.523  59.530 -57.170  1.00  0.00     0.013 C 
HETATM   21  C   UNL     1     -43.812  60.354 -57.064  1.00  0.00     0.015 C 
HETATM   22  C   UNL     1     -41.402  60.370 -57.793  1.00  0.00     0.015 C 
ENDBRANCH  15  20
ENDBRANCH   1  14
TORSDOF 2
ENDMDL
MODEL 10
REMARK VINA RESULT:      -6.0     15.508     17.478
REMARK  2 active torsions:
REMARK  status: ('A' for Active; 'I' for Inactive)
REMARK    1  A    between atoms: C_2  and  C_3 
REMARK    2  A    between atoms: C_4  and  N_5 
ROOT
HETATM    1  N   UNL     1     -35.564  40.545 -56.433  1.00  0.00    -0.321 N 
HETATM    2  C   UNL     1     -34.185  40.367 -56.143  1.00  0.00     0.141 C 
HETATM    3  N   UNL     1     -33.246  40.603 -57.012  1.00  0.00    -0.380 N 
HETATM    4  H   UNL     1     -32.279  40.473 -56.752  1.00  0.00     0.158 HD
HETATM    5  H   UNL     1     -33.502  40.939 -57.930  1.00  0.00     0.158 HD
HETATM    6  S   UNL     1     -33.892  39.845 -54.535  1.00  0.00    -0.086 SA
HETATM    7  C   UNL     1     -35.691  39.540 -54.250  1.00  0.00     0.093 C 
HETATM    8  C   UNL     1     -36.424  40.488 -55.231  1.00  0.00     0.121 C 
HETATM    9  C   UNL     1     -36.168  39.821 -52.842  1.00  0.00     0.158 C 
HETATM   10  S   UNL     1     -36.677  41.523 -52.820  1.00  0.00     0.147 S 
HETATM   11  O   UNL     1     -35.682  42.301 -52.115  1.00  0.00    -0.228 OA
HETATM   12  O   UNL     1     -38.083  41.568 -52.484  1.00  0.00    -0.228 OA
HETATM   13  C   UNL     1     -36.520  41.856 -54.554  1.00  0.00     0.167 C 
ENDROOT
BRANCH   1  14
HETATM   14  C   UNL     1     -36.185  40.685 -57.686  1.00  0.00     0.043 A 
HETATM   15  C   UNL     1     -36.418  39.586 -58.551  1.00  0.00    -0.028 A 
HETATM   16  C   UNL     1     -37.006  39.827 -59.814  1.00  0.00     0.010 A 
HETATM   17  C   UNL     1     -37.374  41.109 -60.215  1.00  0.00     0.001 A 
HETATM   18  C   UNL     1     -37.164  42.179 -59.364  1.00  0.00     0.002 A 
HETATM   19  C   UNL     1     -36.575  41.968 -58.117  1.00  0.00     0.030 A 
BRANCH  15  20
HETATM   20  C   UNL     1     -36.145  38.135 -58.157  1.00  0.00     0.013 C 
HETATM   21  C   UNL     1     -35.793  37.267 -59.371  1.00  0.00     0.015 C 
HETATM   22  C   UNL     1     -37.326  37.527 -57.391  1.00  0.00     0.015 C 
ENDBRANCH  15  20
ENDBRANCH   1  14
TORSDOF 2
ENDMDL
