MODEL 1
REMARK VINA RESULT:      -9.3      0.000      0.000
REMARK  7 active torsions:
REMARK  status: ('A' for Active; 'I' for Inactive)
REMARK    1  A    between atoms: C_4  and  C_5 
REMARK    2  A    between atoms: C_5  and  O_6 
REMARK    3  A    between atoms: C_5  and  C_7 
REMARK    4  A    between atoms: C_9  and  C_10 
REMARK    5  A    between atoms: C_10  and  N_11 
REMARK       I    between atoms: N_11  and  C_12 
REMARK    6  A    between atoms: C_12  and  C_13 
REMARK       I    between atoms: C_13  and  N_14 
REMARK    7  A    between atoms: N_14  and  C_15 
ROOT
HETATM    1  N   UNL     1     -42.501  58.512 -54.833  1.00  0.00    -0.348 N 
HETATM    2  C   UNL     1     -42.218  58.285 -53.511  1.00  0.00     0.310 C 
HETATM    3  O   UNL     1     -41.879  59.119 -52.684  1.00  0.00    -0.262 OA
HETATM    4  H   UNL     1     -42.674  57.685 -55.400  1.00  0.00     0.163 HD
ENDROOT
BRANCH   2   5
HETATM    5  C   UNL     1     -42.330  56.795 -53.123  1.00  0.00     0.313 C 
HETATM    6  N   UNL     1     -41.107  56.159 -53.111  1.00  0.00    -0.319 N 
HETATM    7  H   UNL     1     -40.317  56.758 -53.342  1.00  0.00     0.169 HD
HETATM    8  O   UNL     1     -43.443  56.339 -52.897  1.00  0.00    -0.262 OA
BRANCH   6   9
HETATM    9  C   UNL     1     -40.857  54.797 -52.871  1.00  0.00     0.036 A 
HETATM   10  C   UNL     1     -40.789  53.836 -53.881  1.00  0.00     0.039 A 
HETATM   11  C   UNL     1     -40.484  52.500 -53.579  1.00  0.00    -0.028 A 
HETATM   12  C   UNL     1     -40.266  52.110 -52.254  1.00  0.00     0.050 A 
HETATM   13  C   UNL     1     -40.480  51.460 -54.661  1.00  0.00     0.050 C 
HETATM   14  N   UNL     1     -39.941  50.757 -51.969  1.00  0.00    -0.317 N 
HETATM   15  C   UNL     1     -40.394  53.056 -51.225  1.00  0.00    -0.028 A 
HETATM   16  C   UNL     1     -39.580  49.852 -52.963  1.00  0.00     0.224 C 
HETATM   17  C   UNL     1     -39.807  50.331 -50.580  1.00  0.00     0.132 C 
HETATM   18  O   UNL     1     -39.277  48.681 -52.728  1.00  0.00    -0.273 OA
HETATM   19  C   UNL     1     -39.437  50.408 -54.362  1.00  0.00     0.108 C 
HETATM   20  C   UNL     1     -40.583  51.195 -49.599  1.00  0.00     0.025 C 
HETATM   21  C   UNL     1     -40.204  52.655 -49.788  1.00  0.00     0.042 C 
HETATM   22  C   UNL     1     -40.666  54.397 -51.545  1.00  0.00     0.039 A 
ENDBRANCH   6   9
ENDBRANCH   2   5
BRANCH   1  23
HETATM   23  C   UNL     1     -42.281  59.781 -55.476  1.00  0.00     0.169 C 
BRANCH  23  24
HETATM   24  C   UNL     1     -42.110  59.519 -56.937  1.00  0.00     0.001 A 
HETATM   25  S   UNL     1     -42.424  57.959 -57.572  1.00  0.00    -0.095 SA
HETATM   26  C   UNL     1     -42.165  58.479 -59.186  1.00  0.00     0.017 A 
HETATM   27  C   UNL     1     -41.791  59.808 -59.226  1.00  0.00     0.018 A 
HETATM   28  C   UNL     1     -41.752  60.405 -57.932  1.00  0.00     0.017 A 
BRANCH  26  29
HETATM   29  C   UNL     1     -42.395  57.517 -60.322  1.00  0.00     0.198 C 
BRANCH  29  30
HETATM   30  C   UNL     1     -43.654  56.708 -60.185  1.00  0.00     0.016 A 
HETATM   31  S   UNL     1     -45.179  57.501 -60.200  1.00  0.00    -0.103 SA
HETATM   32  C   UNL     1     -46.025  56.026 -60.029  1.00  0.00     0.050 A 
HETATM   33  C   UNL     1     -45.175  54.946 -59.958  1.00  0.00     0.008 A 
HETATM   34  C   UNL     1     -43.809  55.339 -60.048  1.00  0.00     0.018 A 
ENDBRANCH  29  30
BRANCH  29  35
HETATM   35  O   UNL     1     -41.295  56.605 -60.306  1.00  0.00    -0.385 OA
HETATM   36  H   UNL     1     -40.549  57.092 -59.916  1.00  0.00     0.210 HD
ENDBRANCH  29  35
ENDBRANCH  26  29
ENDBRANCH  23  24
ENDBRANCH   1  23
TORSDOF 7
ENDMDL
MODEL 2
REMARK VINA RESULT:      -9.1      1.420      1.791
REMARK  7 active torsions:
REMARK  status: ('A' for Active; 'I' for Inactive)
REMARK    1  A    between atoms: C_4  and  C_5 
REMARK    2  A    between atoms: C_5  and  O_6 
REMARK    3  A    between atoms: C_5  and  C_7 
REMARK    4  A    between atoms: C_9  and  C_10 
REMARK    5  A    between atoms: C_10  and  N_11 
REMARK       I    between atoms: N_11  and  C_12 
REMARK    6  A    between atoms: C_12  and  C_13 
REMARK       I    between atoms: C_13  and  N_14 
REMARK    7  A    between atoms: N_14  and  C_15 
ROOT
HETATM    1  N   UNL     1     -42.118  59.810 -55.390  1.00  0.00    -0.348 N 
HETATM    2  C   UNL     1     -41.845  60.015 -54.063  1.00  0.00     0.310 C 
HETATM    3  O   UNL     1     -42.101  61.017 -53.412  1.00  0.00    -0.262 OA
HETATM    4  H   UNL     1     -41.747  58.953 -55.794  1.00  0.00     0.163 HD
ENDROOT
BRANCH   2   5
HETATM    5  C   UNL     1     -41.109  58.823 -53.413  1.00  0.00     0.313 C 
HETATM    6  N   UNL     1     -41.826  57.649 -53.499  1.00  0.00    -0.319 N 
HETATM    7  H   UNL     1     -42.717  57.733 -53.984  1.00  0.00     0.169 HD
HETATM    8  O   UNL     1     -40.023  59.031 -52.889  1.00  0.00    -0.262 OA
BRANCH   6   9
HETATM    9  C   UNL     1     -41.484  56.399 -52.954  1.00  0.00     0.036 A 
HETATM   10  C   UNL     1     -41.283  55.253 -53.723  1.00  0.00     0.039 A 
HETATM   11  C   UNL     1     -40.892  54.047 -53.122  1.00  0.00    -0.028 A 
HETATM   12  C   UNL     1     -40.719  53.975 -51.736  1.00  0.00     0.050 A 
HETATM   13  C   UNL     1     -40.745  52.801 -53.946  1.00  0.00     0.050 C 
HETATM   14  N   UNL     1     -40.306  52.750 -51.147  1.00  0.00    -0.317 N 
HETATM   15  C   UNL     1     -40.980  55.106 -50.948  1.00  0.00    -0.028 A 
HETATM   16  C   UNL     1     -39.818  51.687 -51.901  1.00  0.00     0.224 C 
HETATM   17  C   UNL     1     -40.218  52.649 -49.694  1.00  0.00     0.132 C 
HETATM   18  O   UNL     1     -39.438  50.626 -51.402  1.00  0.00    -0.273 OA
HETATM   19  C   UNL     1     -39.640  51.936 -53.382  1.00  0.00     0.108 C 
HETATM   20  C   UNL     1     -41.113  53.633 -48.958  1.00  0.00     0.025 C 
HETATM   21  C   UNL     1     -40.841  55.045 -49.451  1.00  0.00     0.042 C 
HETATM   22  C   UNL     1     -41.337  56.316 -51.566  1.00  0.00     0.039 A 
ENDBRANCH   6   9
ENDBRANCH   2   5
BRANCH   1  23
HETATM   23  C   UNL     1     -42.621  60.844 -56.257  1.00  0.00     0.169 C 
BRANCH  23  24
HETATM   24  C   UNL     1     -42.547  60.330 -57.658  1.00  0.00     0.001 A 
HETATM   25  S   UNL     1     -42.366  58.651 -57.949  1.00  0.00    -0.095 SA
HETATM   26  C   UNL     1     -42.504  58.851 -59.646  1.00  0.00     0.017 A 
HETATM   27  C   UNL     1     -42.629  60.186 -59.981  1.00  0.00     0.018 A 
HETATM   28  C   UNL     1     -42.647  61.037 -58.838  1.00  0.00     0.017 A 
BRANCH  26  29
HETATM   29  C   UNL     1     -42.516  57.638 -60.539  1.00  0.00     0.198 C 
BRANCH  29  30
HETATM   30  C   UNL     1     -43.693  56.730 -60.310  1.00  0.00     0.016 A 
HETATM   31  S   UNL     1     -45.283  57.384 -60.319  1.00  0.00    -0.103 SA
HETATM   32  C   UNL     1     -45.987  55.853 -60.032  1.00  0.00     0.050 A 
HETATM   33  C   UNL     1     -45.041  54.859 -59.927  1.00  0.00     0.008 A 
HETATM   34  C   UNL     1     -43.719  55.365 -60.087  1.00  0.00     0.018 A 
ENDBRANCH  29  30
BRANCH  29  35
HETATM   35  O   UNL     1     -41.335  56.896 -60.226  1.00  0.00    -0.385 OA
HETATM   36  H   UNL     1     -41.458  56.566 -59.320  1.00  0.00     0.210 HD
ENDBRANCH  29  35
ENDBRANCH  26  29
ENDBRANCH  23  24
ENDBRANCH   1  23
TORSDOF 7
ENDMDL
MODEL 3
REMARK VINA RESULT:      -9.0      0.832      2.188
REMARK  7 active torsions:
REMARK  status: ('A' for Active; 'I' for Inactive)
REMARK    1  A    between atoms: C_4  and  C_5 
REMARK    2  A    between atoms: C_5  and  O_6 
REMARK    3  A    between atoms: C_5  and  C_7 
REMARK    4  A    between atoms: C_9  and  C_10 
REMARK    5  A    between atoms: C_10  and  N_11 
REMARK       I    between atoms: N_11  and  C_12 
REMARK    6  A    between atoms: C_12  and  C_13 
REMARK       I    between atoms: C_13  and  N_14 
REMARK    7  A    between atoms: N_14  and  C_15 
ROOT
HETATM    1  N   UNL     1     -42.345  58.770 -54.943  1.00  0.00    -0.348 N 
HETATM    2  C   UNL     1     -43.108  58.621 -53.815  1.00  0.00     0.310 C 
HETATM    3  O   UNL     1     -43.827  59.466 -53.303  1.00  0.00    -0.262 OA
HETATM    4  H   UNL     1     -41.731  57.992 -55.172  1.00  0.00     0.163 HD
ENDROOT
BRANCH   2   5
HETATM    5  C   UNL     1     -42.956  57.226 -53.171  1.00  0.00     0.313 C 
HETATM    6  N   UNL     1     -41.688  56.707 -53.327  1.00  0.00    -0.319 N 
HETATM    7  H   UNL     1     -41.040  57.316 -53.823  1.00  0.00     0.169 HD
HETATM    8  O   UNL     1     -43.935  56.729 -52.631  1.00  0.00    -0.262 OA
BRANCH   6   9
HETATM    9  C   UNL     1     -41.230  55.440 -52.927  1.00  0.00     0.036 A 
HETATM   10  C   UNL     1     -40.956  55.102 -51.602  1.00  0.00     0.039 A 
HETATM   11  C   UNL     1     -40.551  53.803 -51.262  1.00  0.00    -0.028 A 
HETATM   12  C   UNL     1     -40.395  52.832 -52.257  1.00  0.00     0.050 A 
HETATM   13  C   UNL     1     -40.191  53.466 -49.844  1.00  0.00     0.050 C 
HETATM   14  N   UNL     1     -40.001  51.517 -51.893  1.00  0.00    -0.317 N 
HETATM   15  C   UNL     1     -40.607  53.178 -53.600  1.00  0.00    -0.028 A 
HETATM   16  C   UNL     1     -40.007  51.075 -50.573  1.00  0.00     0.224 C 
HETATM   17  C   UNL     1     -39.748  50.530 -52.938  1.00  0.00     0.132 C 
HETATM   18  O   UNL     1     -39.687  49.931 -50.245  1.00  0.00    -0.273 OA
HETATM   19  C   UNL     1     -40.565  52.032 -49.544  1.00  0.00     0.108 C 
HETATM   20  C   UNL     1     -39.363  51.144 -54.275  1.00  0.00     0.025 C 
HETATM   21  C   UNL     1     -40.409  52.165 -54.693  1.00  0.00     0.042 C 
HETATM   22  C   UNL     1     -41.046  54.474 -53.922  1.00  0.00     0.039 A 
ENDBRANCH   6   9
ENDBRANCH   2   5
BRANCH   1  23
HETATM   23  C   UNL     1     -42.168  60.034 -55.609  1.00  0.00     0.169 C 
BRANCH  23  24
HETATM   24  C   UNL     1     -42.111  59.762 -57.078  1.00  0.00     0.001 A 
HETATM   25  S   UNL     1     -42.233  58.155 -57.660  1.00  0.00    -0.095 SA
HETATM   26  C   UNL     1     -42.234  58.665 -59.297  1.00  0.00     0.017 A 
HETATM   27  C   UNL     1     -42.086  60.036 -59.391  1.00  0.00     0.018 A 
HETATM   28  C   UNL     1     -42.009  60.666 -58.115  1.00  0.00     0.017 A 
BRANCH  26  29
HETATM   29  C   UNL     1     -42.423  57.649 -60.392  1.00  0.00     0.198 C 
BRANCH  29  30
HETATM   30  C   UNL     1     -43.657  56.805 -60.227  1.00  0.00     0.016 A 
HETATM   31  S   UNL     1     -45.201  57.559 -60.185  1.00  0.00    -0.103 SA
HETATM   32  C   UNL     1     -46.003  56.061 -60.009  1.00  0.00     0.050 A 
HETATM   33  C   UNL     1     -45.124  55.002 -59.980  1.00  0.00     0.008 A 
HETATM   34  C   UNL     1     -43.772  55.431 -60.105  1.00  0.00     0.018 A 
ENDBRANCH  29  30
BRANCH  29  35
HETATM   35  O   UNL     1     -41.294  56.775 -60.329  1.00  0.00    -0.385 OA
HETATM   36  H   UNL     1     -40.814  56.895 -61.165  1.00  0.00     0.210 HD
ENDBRANCH  29  35
ENDBRANCH  26  29
ENDBRANCH  23  24
ENDBRANCH   1  23
TORSDOF 7
ENDMDL
MODEL 4
REMARK VINA RESULT:      -8.4      5.881      8.770
REMARK  7 active torsions:
REMARK  status: ('A' for Active; 'I' for Inactive)
REMARK    1  A    between atoms: C_4  and  C_5 
REMARK    2  A    between atoms: C_5  and  O_6 
REMARK    3  A    between atoms: C_5  and  C_7 
REMARK    4  A    between atoms: C_9  and  C_10 
REMARK    5  A    between atoms: C_10  and  N_11 
REMARK       I    between atoms: N_11  and  C_12 
REMARK    6  A    between atoms: C_12  and  C_13 
REMARK       I    between atoms: C_13  and  N_14 
REMARK    7  A    between atoms: N_14  and  C_15 
ROOT
HETATM    1  N   UNL     1     -44.404  60.604 -51.732  1.00  0.00    -0.348 N 
HETATM    2  C   UNL     1     -43.186  60.058 -51.423  1.00  0.00     0.310 C 
HETATM    3  O   UNL     1     -42.176  60.663 -51.097  1.00  0.00    -0.262 OA
HETATM    4  H   UNL     1     -45.109  59.957 -52.078  1.00  0.00     0.163 HD
ENDROOT
BRANCH   2   5
HETATM    5  C   UNL     1     -43.169  58.520 -51.562  1.00  0.00     0.313 C 
HETATM    6  N   UNL     1     -41.895  58.019 -51.724  1.00  0.00    -0.319 N 
HETATM    7  H   UNL     1     -41.159  58.722 -51.714  1.00  0.00     0.169 HD
HETATM    8  O   UNL     1     -44.238  57.926 -51.540  1.00  0.00    -0.262 OA
BRANCH   6   9
HETATM    9  C   UNL     1     -41.528  56.680 -51.947  1.00  0.00     0.036 A 
HETATM   10  C   UNL     1     -41.581  56.065 -53.198  1.00  0.00     0.039 A 
HETATM   11  C   UNL     1     -41.151  54.740 -53.364  1.00  0.00    -0.028 A 
HETATM   12  C   UNL     1     -40.681  54.010 -52.267  1.00  0.00     0.050 A 
HETATM   13  C   UNL     1     -41.277  54.062 -54.697  1.00  0.00     0.050 C 
HETATM   14  N   UNL     1     -40.233  52.676 -52.456  1.00  0.00    -0.317 N 
HETATM   15  C   UNL     1     -40.681  54.600 -50.994  1.00  0.00    -0.028 A 
HETATM   16  C   UNL     1     -39.999  52.140 -53.720  1.00  0.00     0.224 C 
HETATM   17  C   UNL     1     -39.831  51.884 -51.298  1.00  0.00     0.132 C 
HETATM   18  O   UNL     1     -39.592  50.990 -53.898  1.00  0.00    -0.273 OA
HETATM   19  C   UNL     1     -40.137  53.087 -54.890  1.00  0.00     0.108 C 
HETATM   20  C   UNL     1     -40.472  52.340 -49.996  1.00  0.00     0.025 C 
HETATM   21  C   UNL     1     -40.218  53.825 -49.791  1.00  0.00     0.042 C 
HETATM   22  C   UNL     1     -41.083  55.939 -50.848  1.00  0.00     0.039 A 
ENDBRANCH   6   9
ENDBRANCH   2   5
BRANCH   1  23
HETATM   23  C   UNL     1     -44.617  62.022 -51.864  1.00  0.00     0.169 C 
BRANCH  23  24
HETATM   24  C   UNL     1     -44.820  62.574 -50.490  1.00  0.00     0.001 A 
HETATM   25  S   UNL     1     -46.191  62.111 -49.572  1.00  0.00    -0.095 SA
HETATM   26  C   UNL     1     -45.657  62.978 -48.193  1.00  0.00     0.017 A 
HETATM   27  C   UNL     1     -44.480  63.654 -48.455  1.00  0.00     0.018 A 
HETATM   28  C   UNL     1     -44.003  63.427 -49.778  1.00  0.00     0.017 A 
BRANCH  26  29
HETATM   29  C   UNL     1     -46.443  62.893 -46.911  1.00  0.00     0.198 C 
BRANCH  29  30
HETATM   30  C   UNL     1     -45.589  62.700 -45.689  1.00  0.00     0.016 A 
HETATM   31  S   UNL     1     -44.850  61.174 -45.403  1.00  0.00    -0.103 SA
HETATM   32  C   UNL     1     -44.109  61.726 -43.966  1.00  0.00     0.050 A 
HETATM   33  C   UNL     1     -44.413  63.041 -43.698  1.00  0.00     0.008 A 
HETATM   34  C   UNL     1     -45.266  63.602 -44.691  1.00  0.00     0.018 A 
ENDBRANCH  29  30
BRANCH  29  35
HETATM   35  O   UNL     1     -47.285  61.744 -47.031  1.00  0.00    -0.385 OA
HETATM   36  H   UNL     1     -47.122  61.383 -47.919  1.00  0.00     0.210 HD
ENDBRANCH  29  35
ENDBRANCH  26  29
ENDBRANCH  23  24
ENDBRANCH   1  23
TORSDOF 7
ENDMDL
MODEL 5
REMARK VINA RESULT:      -8.3      5.870      8.931
REMARK  7 active torsions:
REMARK  status: ('A' for Active; 'I' for Inactive)
REMARK    1  A    between atoms: C_4  and  C_5 
REMARK    2  A    between atoms: C_5  and  O_6 
REMARK    3  A    between atoms: C_5  and  C_7 
REMARK    4  A    between atoms: C_9  and  C_10 
REMARK    5  A    between atoms: C_10  and  N_11 
REMARK       I    between atoms: N_11  and  C_12 
REMARK    6  A    between atoms: C_12  and  C_13 
REMARK       I    between atoms: C_13  and  N_14 
REMARK    7  A    between atoms: N_14  and  C_15 
ROOT
HETATM    1  N   UNL     1     -44.583  60.933 -51.762  1.00  0.00    -0.348 N 
HETATM    2  C   UNL     1     -43.321  60.462 -51.510  1.00  0.00     0.310 C 
HETATM    3  O   UNL     1     -42.321  61.132 -51.297  1.00  0.00    -0.262 OA
HETATM    4  H   UNL     1     -45.278  60.233 -52.013  1.00  0.00     0.163 HD
ENDROOT
BRANCH   2   5
HETATM    5  C   UNL     1     -43.238  58.921 -51.555  1.00  0.00     0.313 C 
HETATM    6  N   UNL     1     -41.939  58.461 -51.518  1.00  0.00    -0.319 N 
HETATM    7  H   UNL     1     -41.233  59.192 -51.453  1.00  0.00     0.169 HD
HETATM    8  O   UNL     1     -44.282  58.289 -51.638  1.00  0.00    -0.262 OA
BRANCH   6   9
HETATM    9  C   UNL     1     -41.504  57.128 -51.612  1.00  0.00     0.036 A 
HETATM   10  C   UNL     1     -40.978  56.411 -50.537  1.00  0.00     0.039 A 
HETATM   11  C   UNL     1     -40.610  55.065 -50.684  1.00  0.00    -0.028 A 
HETATM   12  C   UNL     1     -40.747  54.430 -51.923  1.00  0.00     0.050 A 
HETATM   13  C   UNL     1     -39.980  54.321 -49.543  1.00  0.00     0.050 C 
HETATM   14  N   UNL     1     -40.386  53.062 -52.049  1.00  0.00    -0.317 N 
HETATM   15  C   UNL     1     -41.216  55.159 -53.026  1.00  0.00    -0.028 A 
HETATM   16  C   UNL     1     -40.141  52.250 -50.945  1.00  0.00     0.224 C 
HETATM   17  C   UNL     1     -40.439  52.426 -53.361  1.00  0.00     0.132 C 
HETATM   18  O   UNL     1     -39.846  51.057 -51.039  1.00  0.00    -0.273 OA
HETATM   19  C   UNL     1     -40.390  52.866 -49.587  1.00  0.00     0.108 C 
HETATM   20  C   UNL     1     -40.305  53.403 -54.518  1.00  0.00     0.025 C 
HETATM   21  C   UNL     1     -41.335  54.512 -54.378  1.00  0.00     0.042 C 
HETATM   22  C   UNL     1     -41.613  56.496 -52.856  1.00  0.00     0.039 A 
ENDBRANCH   6   9
ENDBRANCH   2   5
BRANCH   1  23
HETATM   23  C   UNL     1     -44.875  62.328 -51.964  1.00  0.00     0.169 C 
BRANCH  23  24
HETATM   24  C   UNL     1     -45.216  62.913 -50.633  1.00  0.00     0.001 A 
HETATM   25  S   UNL     1     -46.284  62.086 -49.579  1.00  0.00    -0.095 SA
HETATM   26  C   UNL     1     -46.056  63.231 -48.323  1.00  0.00     0.017 A 
HETATM   27  C   UNL     1     -45.222  64.255 -48.729  1.00  0.00     0.018 A 
HETATM   28  C   UNL     1     -44.744  64.076 -50.059  1.00  0.00     0.017 A 
BRANCH  26  29
HETATM   29  C   UNL     1     -46.707  63.004 -46.984  1.00  0.00     0.198 C 
BRANCH  29  30
HETATM   30  C   UNL     1     -45.763  62.498 -45.930  1.00  0.00     0.016 A 
HETATM   31  S   UNL     1     -45.270  60.851 -45.952  1.00  0.00    -0.103 SA
HETATM   32  C   UNL     1     -44.282  61.057 -44.573  1.00  0.00     0.050 A 
HETATM   33  C   UNL     1     -44.320  62.347 -44.096  1.00  0.00     0.008 A 
HETATM   34  C   UNL     1     -45.173  63.177 -44.878  1.00  0.00     0.018 A 
ENDBRANCH  29  30
BRANCH  29  35
HETATM   35  O   UNL     1     -47.703  61.998 -47.186  1.00  0.00    -0.385 OA
HETATM   36  H   UNL     1     -48.399  62.174 -46.530  1.00  0.00     0.210 HD
ENDBRANCH  29  35
ENDBRANCH  26  29
ENDBRANCH  23  24
ENDBRANCH   1  23
TORSDOF 7
ENDMDL
MODEL 6
REMARK VINA RESULT:      -8.2      2.073      2.527
REMARK  7 active torsions:
REMARK  status: ('A' for Active; 'I' for Inactive)
REMARK    1  A    between atoms: C_4  and  C_5 
REMARK    2  A    between atoms: C_5  and  O_6 
REMARK    3  A    between atoms: C_5  and  C_7 
REMARK    4  A    between atoms: C_9  and  C_10 
REMARK    5  A    between atoms: C_10  and  N_11 
REMARK       I    between atoms: N_11  and  C_12 
REMARK    6  A    between atoms: C_12  and  C_13 
REMARK       I    between atoms: C_13  and  N_14 
REMARK    7  A    between atoms: N_14  and  C_15 
ROOT
HETATM    1  N   UNL     1     -44.943  59.366 -54.516  1.00  0.00    -0.348 N 
HETATM    2  C   UNL     1     -45.209  59.391 -53.172  1.00  0.00     0.310 C 
HETATM    3  O   UNL     1     -45.782  60.278 -52.558  1.00  0.00    -0.262 OA
HETATM    4  H   UNL     1     -44.370  58.591 -54.843  1.00  0.00     0.163 HD
ENDROOT
BRANCH   2   5
HETATM    5  C   UNL     1     -44.666  58.149 -52.433  1.00  0.00     0.313 C 
HETATM    6  N   UNL     1     -43.509  57.660 -53.002  1.00  0.00    -0.319 N 
HETATM    7  H   UNL     1     -43.178  58.188 -53.807  1.00  0.00     0.169 HD
HETATM    8  O   UNL     1     -45.296  57.726 -51.473  1.00  0.00    -0.262 OA
BRANCH   6   9
HETATM    9  C   UNL     1     -42.795  56.509 -52.626  1.00  0.00     0.036 A 
HETATM   10  C   UNL     1     -42.543  55.442 -53.488  1.00  0.00     0.039 A 
HETATM   11  C   UNL     1     -41.779  54.344 -53.065  1.00  0.00    -0.028 A 
HETATM   12  C   UNL     1     -41.275  54.298 -51.761  1.00  0.00     0.050 A 
HETATM   13  C   UNL     1     -41.571  53.169 -53.975  1.00  0.00     0.050 C 
HETATM   14  N   UNL     1     -40.488  53.187 -51.356  1.00  0.00    -0.317 N 
HETATM   15  C   UNL     1     -41.575  55.337 -50.867  1.00  0.00    -0.028 A 
HETATM   16  C   UNL     1     -39.979  52.263 -52.265  1.00  0.00     0.224 C 
HETATM   17  C   UNL     1     -40.043  53.093 -49.970  1.00  0.00     0.132 C 
HETATM   18  O   UNL     1     -39.279  51.306 -51.929  1.00  0.00    -0.273 OA
HETATM   19  C   UNL     1     -40.209  52.560 -53.729  1.00  0.00     0.108 C 
HETATM   20  C   UNL     1     -40.927  53.851 -48.993  1.00  0.00     0.025 C 
HETATM   21  C   UNL     1     -41.080  55.293 -49.448  1.00  0.00     0.042 C 
HETATM   22  C   UNL     1     -42.313  56.446 -51.314  1.00  0.00     0.039 A 
ENDBRANCH   6   9
ENDBRANCH   2   5
BRANCH   1  23
HETATM   23  C   UNL     1     -45.177  60.491 -55.383  1.00  0.00     0.169 C 
BRANCH  23  24
HETATM   24  C   UNL     1     -44.680  60.121 -56.743  1.00  0.00     0.001 A 
HETATM   25  S   UNL     1     -43.554  58.842 -56.927  1.00  0.00    -0.095 SA
HETATM   26  C   UNL     1     -43.604  58.941 -58.638  1.00  0.00     0.017 A 
HETATM   27  C   UNL     1     -44.425  59.971 -59.053  1.00  0.00     0.018 A 
HETATM   28  C   UNL     1     -45.039  60.655 -57.964  1.00  0.00     0.017 A 
BRANCH  26  29
HETATM   29  C   UNL     1     -42.837  57.941 -59.463  1.00  0.00     0.198 C 
BRANCH  29  30
HETATM   30  C   UNL     1     -43.594  56.671 -59.734  1.00  0.00     0.016 A 
HETATM   31  S   UNL     1     -43.367  55.312 -58.705  1.00  0.00    -0.103 SA
HETATM   32  C   UNL     1     -44.488  54.371 -59.588  1.00  0.00     0.050 A 
HETATM   33  C   UNL     1     -45.028  55.065 -60.646  1.00  0.00     0.008 A 
HETATM   34  C   UNL     1     -44.513  56.390 -60.730  1.00  0.00     0.018 A 
ENDBRANCH  29  30
BRANCH  29  35
HETATM   35  O   UNL     1     -41.679  57.594 -58.700  1.00  0.00    -0.385 OA
HETATM   36  H   UNL     1     -40.925  57.666 -59.309  1.00  0.00     0.210 HD
ENDBRANCH  29  35
ENDBRANCH  26  29
ENDBRANCH  23  24
ENDBRANCH   1  23
TORSDOF 7
ENDMDL
MODEL 7
REMARK VINA RESULT:      -8.1      2.710      5.034
REMARK  7 active torsions:
REMARK  status: ('A' for Active; 'I' for Inactive)
REMARK    1  A    between atoms: C_4  and  C_5 
REMARK    2  A    between atoms: C_5  and  O_6 
REMARK    3  A    between atoms: C_5  and  C_7 
REMARK    4  A    between atoms: C_9  and  C_10 
REMARK    5  A    between atoms: C_10  and  N_11 
REMARK       I    between atoms: N_11  and  C_12 
REMARK    6  A    between atoms: C_12  and  C_13 
REMARK       I    between atoms: C_13  and  N_14 
REMARK    7  A    between atoms: N_14  and  C_15 
ROOT
HETATM    1  N   UNL     1     -41.995  57.224 -58.000  1.00  0.00    -0.348 N 
HETATM    2  C   UNL     1     -42.737  56.074 -58.070  1.00  0.00     0.310 C 
HETATM    3  O   UNL     1     -43.389  55.684 -59.026  1.00  0.00    -0.262 OA
HETATM    4  H   UNL     1     -41.593  57.441 -57.090  1.00  0.00     0.163 HD
ENDROOT
BRANCH   2   5
HETATM    5  C   UNL     1     -42.719  55.271 -56.752  1.00  0.00     0.313 C 
HETATM    6  N   UNL     1     -41.723  55.686 -55.893  1.00  0.00    -0.319 N 
HETATM    7  H   UNL     1     -41.162  56.461 -56.240  1.00  0.00     0.169 HD
HETATM    8  O   UNL     1     -43.535  54.370 -56.613  1.00  0.00    -0.262 OA
BRANCH   6   9
HETATM    9  C   UNL     1     -41.384  55.129 -54.648  1.00  0.00     0.036 A 
HETATM   10  C   UNL     1     -41.472  55.825 -53.442  1.00  0.00     0.039 A 
HETATM   11  C   UNL     1     -41.166  55.195 -52.227  1.00  0.00    -0.028 A 
HETATM   12  C   UNL     1     -40.749  53.860 -52.212  1.00  0.00     0.050 A 
HETATM   13  C   UNL     1     -41.196  55.970 -50.941  1.00  0.00     0.050 C 
HETATM   14  N   UNL     1     -40.461  53.233 -50.971  1.00  0.00    -0.317 N 
HETATM   15  C   UNL     1     -40.597  53.170 -53.424  1.00  0.00    -0.028 A 
HETATM   16  C   UNL     1     -40.817  53.799 -49.749  1.00  0.00     0.224 C 
HETATM   17  C   UNL     1     -39.936  51.872 -50.961  1.00  0.00     0.132 C 
HETATM   18  O   UNL     1     -40.591  53.256 -48.665  1.00  0.00    -0.273 OA
HETATM   19  C   UNL     1     -41.632  55.071 -49.807  1.00  0.00     0.108 C 
HETATM   20  C   UNL     1     -39.211  51.489 -52.242  1.00  0.00     0.025 C 
HETATM   21  C   UNL     1     -40.112  51.747 -53.439  1.00  0.00     0.042 C 
HETATM   22  C   UNL     1     -40.939  53.803 -54.631  1.00  0.00     0.039 A 
ENDBRANCH   6   9
ENDBRANCH   2   5
BRANCH   1  23
HETATM   23  C   UNL     1     -42.011  58.232 -59.027  1.00  0.00     0.169 C 
BRANCH  23  24
HETATM   24  C   UNL     1     -42.246  59.549 -58.361  1.00  0.00     0.001 A 
HETATM   25  S   UNL     1     -43.544  59.733 -57.258  1.00  0.00    -0.095 SA
HETATM   26  C   UNL     1     -43.079  61.335 -56.858  1.00  0.00     0.017 A 
HETATM   27  C   UNL     1     -41.984  61.735 -57.600  1.00  0.00     0.018 A 
HETATM   28  C   UNL     1     -41.509  60.710 -58.469  1.00  0.00     0.017 A 
BRANCH  26  29
HETATM   29  C   UNL     1     -43.830  62.080 -55.786  1.00  0.00     0.198 C 
BRANCH  29  30
HETATM   30  C   UNL     1     -44.113  61.257 -54.561  1.00  0.00     0.016 A 
HETATM   31  S   UNL     1     -42.825  60.845 -53.499  1.00  0.00    -0.103 SA
HETATM   32  C   UNL     1     -43.873  59.999 -52.447  1.00  0.00     0.050 A 
HETATM   33  C   UNL     1     -45.177  60.020 -52.886  1.00  0.00     0.008 A 
HETATM   34  C   UNL     1     -45.315  60.745 -54.105  1.00  0.00     0.018 A 
ENDBRANCH  29  30
BRANCH  29  35
HETATM   35  O   UNL     1     -45.088  62.447 -56.357  1.00  0.00    -0.385 OA
HETATM   36  H   UNL     1     -45.712  61.747 -56.102  1.00  0.00     0.210 HD
ENDBRANCH  29  35
ENDBRANCH  26  29
ENDBRANCH  23  24
ENDBRANCH   1  23
TORSDOF 7
ENDMDL
MODEL 8
REMARK VINA RESULT:      -8.1      3.292      9.031
REMARK  7 active torsions:
REMARK  status: ('A' for Active; 'I' for Inactive)
REMARK    1  A    between atoms: C_4  and  C_5 
REMARK    2  A    between atoms: C_5  and  O_6 
REMARK    3  A    between atoms: C_5  and  C_7 
REMARK    4  A    between atoms: C_9  and  C_10 
REMARK    5  A    between atoms: C_10  and  N_11 
REMARK       I    between atoms: N_11  and  C_12 
REMARK    6  A    between atoms: C_12  and  C_13 
REMARK       I    between atoms: C_13  and  N_14 
REMARK    7  A    between atoms: N_14  and  C_15 
ROOT
HETATM    1  N   UNL     1     -41.963  57.834 -52.700  1.00  0.00    -0.348 N 
HETATM    2  C   UNL     1     -41.243  58.624 -53.557  1.00  0.00     0.310 C 
HETATM    3  O   UNL     1     -40.186  59.187 -53.317  1.00  0.00    -0.262 OA
HETATM    4  H   UNL     1     -42.873  57.525 -53.036  1.00  0.00     0.163 HD
ENDROOT
BRANCH   2   5
HETATM    5  C   UNL     1     -41.929  58.795 -54.930  1.00  0.00     0.313 C 
HETATM    6  N   UNL     1     -42.758  57.738 -55.241  1.00  0.00    -0.319 N 
HETATM    7  H   UNL     1     -42.810  57.016 -54.526  1.00  0.00     0.169 HD
HETATM    8  O   UNL     1     -41.664  59.792 -55.588  1.00  0.00    -0.262 OA
BRANCH   6   9
HETATM    9  C   UNL     1     -43.475  57.540 -56.434  1.00  0.00     0.036 A 
HETATM   10  C   UNL     1     -43.094  56.631 -57.420  1.00  0.00     0.039 A 
HETATM   11  C   UNL     1     -43.882  56.443 -58.566  1.00  0.00    -0.028 A 
HETATM   12  C   UNL     1     -45.055  57.186 -58.742  1.00  0.00     0.050 A 
HETATM   13  C   UNL     1     -43.431  55.514 -59.655  1.00  0.00     0.050 C 
HETATM   14  N   UNL     1     -45.850  56.970 -59.899  1.00  0.00    -0.317 N 
HETATM   15  C   UNL     1     -45.414  58.147 -57.786  1.00  0.00    -0.028 A 
HETATM   16  C   UNL     1     -45.659  55.879 -60.743  1.00  0.00     0.224 C 
HETATM   17  C   UNL     1     -47.021  57.810 -60.129  1.00  0.00     0.132 C 
HETATM   18  O   UNL     1     -46.354  55.669 -61.739  1.00  0.00    -0.273 OA
HETATM   19  C   UNL     1     -44.629  54.862 -60.307  1.00  0.00     0.108 C 
HETATM   20  C   UNL     1     -46.940  59.168 -59.451  1.00  0.00     0.025 C 
HETATM   21  C   UNL     1     -46.648  58.987 -57.970  1.00  0.00     0.042 C 
HETATM   22  C   UNL     1     -44.633  58.300 -56.627  1.00  0.00     0.039 A 
ENDBRANCH   6   9
ENDBRANCH   2   5
BRANCH   1  23
HETATM   23  C   UNL     1     -41.632  57.682 -51.307  1.00  0.00     0.169 C 
BRANCH  23  24
HETATM   24  C   UNL     1     -41.571  56.218 -51.017  1.00  0.00     0.001 A 
HETATM   25  S   UNL     1     -40.228  55.293 -51.544  1.00  0.00    -0.095 SA
HETATM   26  C   UNL     1     -40.796  53.878 -50.760  1.00  0.00     0.017 A 
HETATM   27  C   UNL     1     -42.019  54.101 -50.156  1.00  0.00     0.018 A 
HETATM   28  C   UNL     1     -42.468  55.444 -50.309  1.00  0.00     0.017 A 
BRANCH  26  29
HETATM   29  C   UNL     1     -39.950  52.632 -50.770  1.00  0.00     0.198 C 
BRANCH  29  30
HETATM   30  C   UNL     1     -39.974  51.894 -52.079  1.00  0.00     0.016 A 
HETATM   31  S   UNL     1     -39.558  50.226 -52.120  1.00  0.00    -0.103 SA
HETATM   32  C   UNL     1     -39.824  50.132 -53.806  1.00  0.00     0.050 A 
HETATM   33  C   UNL     1     -40.220  51.338 -54.336  1.00  0.00     0.008 A 
HETATM   34  C   UNL     1     -40.306  52.353 -53.341  1.00  0.00     0.018 A 
ENDBRANCH  29  30
BRANCH  29  35
HETATM   35  O   UNL     1     -40.501  51.763 -49.777  1.00  0.00    -0.385 OA
HETATM   36  H   UNL     1     -39.766  51.207 -49.469  1.00  0.00     0.210 HD
ENDBRANCH  29  35
ENDBRANCH  26  29
ENDBRANCH  23  24
ENDBRANCH   1  23
TORSDOF 7
ENDMDL
MODEL 9
REMARK VINA RESULT:      -8.0      2.547      3.991
REMARK  7 active torsions:
REMARK  status: ('A' for Active; 'I' for Inactive)
REMARK    1  A    between atoms: C_4  and  C_5 
REMARK    2  A    between atoms: C_5  and  O_6 
REMARK    3  A    between atoms: C_5  and  C_7 
REMARK    4  A    between atoms: C_9  and  C_10 
REMARK    5  A    between atoms: C_10  and  N_11 
REMARK       I    between atoms: N_11  and  C_12 
REMARK    6  A    between atoms: C_12  and  C_13 
REMARK       I    between atoms: C_13  and  N_14 
REMARK    7  A    between atoms: N_14  and  C_15 
ROOT
HETATM    1  N   UNL     1     -45.326  59.568 -52.594  1.00  0.00    -0.348 N 
HETATM    2  C   UNL     1     -45.153  59.158 -51.298  1.00  0.00     0.310 C 
HETATM    3  O   UNL     1     -45.409  59.799 -50.290  1.00  0.00    -0.262 OA
HETATM    4  H   UNL     1     -44.968  58.942 -53.312  1.00  0.00     0.163 HD
ENDROOT
BRANCH   2   5
HETATM    5  C   UNL     1     -44.534  57.747 -51.196  1.00  0.00     0.313 C 
HETATM    6  N   UNL     1     -43.312  57.659 -51.826  1.00  0.00    -0.319 N 
HETATM    7  H   UNL     1     -42.990  58.528 -52.249  1.00  0.00     0.169 HD
HETATM    8  O   UNL     1     -45.170  56.879 -50.613  1.00  0.00    -0.262 OA
BRANCH   6   9
HETATM    9  C   UNL     1     -42.514  56.513 -51.983  1.00  0.00     0.036 A 
HETATM   10  C   UNL     1     -41.866  55.874 -50.926  1.00  0.00     0.039 A 
HETATM   11  C   UNL     1     -41.125  54.702 -51.142  1.00  0.00    -0.028 A 
HETATM   12  C   UNL     1     -41.011  54.170 -52.431  1.00  0.00     0.050 A 
HETATM   13  C   UNL     1     -40.374  54.059 -50.013  1.00  0.00     0.050 C 
HETATM   14  N   UNL     1     -40.273  52.973 -52.629  1.00  0.00    -0.317 N 
HETATM   15  C   UNL     1     -41.607  54.839 -53.510  1.00  0.00    -0.028 A 
HETATM   16  C   UNL     1     -39.869  52.162 -51.571  1.00  0.00     0.224 C 
HETATM   17  C   UNL     1     -40.074  52.470 -53.984  1.00  0.00     0.132 C 
HETATM   18  O   UNL     1     -39.244  51.112 -51.729  1.00  0.00    -0.273 OA
HETATM   19  C   UNL     1     -40.353  52.559 -50.195  1.00  0.00     0.108 C 
HETATM   20  C   UNL     1     -40.159  53.547 -55.053  1.00  0.00     0.025 C 
HETATM   21  C   UNL     1     -41.467  54.310 -54.911  1.00  0.00     0.042 C 
HETATM   22  C   UNL     1     -42.374  55.993 -53.274  1.00  0.00     0.039 A 
ENDBRANCH   6   9
ENDBRANCH   2   5
BRANCH   1  23
HETATM   23  C   UNL     1     -45.704  60.911 -52.949  1.00  0.00     0.169 C 
BRANCH  23  24
HETATM   24  C   UNL     1     -44.775  61.369 -54.026  1.00  0.00     0.001 A 
HETATM   25  S   UNL     1     -44.172  60.248 -55.173  1.00  0.00    -0.095 SA
HETATM   26  C   UNL     1     -43.378  61.474 -56.070  1.00  0.00     0.017 A 
HETATM   27  C   UNL     1     -43.528  62.708 -55.467  1.00  0.00     0.018 A 
HETATM   28  C   UNL     1     -44.326  62.647 -54.288  1.00  0.00     0.017 A 
BRANCH  26  29
HETATM   29  C   UNL     1     -42.680  61.120 -57.357  1.00  0.00     0.198 C 
BRANCH  29  30
HETATM   30  C   UNL     1     -42.874  59.690 -57.777  1.00  0.00     0.016 A 
HETATM   31  S   UNL     1     -44.107  59.299 -58.909  1.00  0.00    -0.103 SA
HETATM   32  C   UNL     1     -43.705  57.638 -58.877  1.00  0.00     0.050 A 
HETATM   33  C   UNL     1     -42.657  57.375 -58.025  1.00  0.00     0.008 A 
HETATM   34  C   UNL     1     -42.179  58.557 -57.391  1.00  0.00     0.018 A 
ENDBRANCH  29  30
BRANCH  29  35
HETATM   35  O   UNL     1     -41.282  61.312 -57.122  1.00  0.00    -0.385 OA
HETATM   36  H   UNL     1     -41.131  62.270 -57.174  1.00  0.00     0.210 HD
ENDBRANCH  29  35
ENDBRANCH  26  29
ENDBRANCH  23  24
ENDBRANCH   1  23
TORSDOF 7
ENDMDL
MODEL 10
REMARK VINA RESULT:      -8.0      3.375      4.944
REMARK  7 active torsions:
REMARK  status: ('A' for Active; 'I' for Inactive)
REMARK    1  A    between atoms: C_4  and  C_5 
REMARK    2  A    between atoms: C_5  and  O_6 
REMARK    3  A    between atoms: C_5  and  C_7 
REMARK    4  A    between atoms: C_9  and  C_10 
REMARK    5  A    between atoms: C_10  and  N_11 
REMARK       I    between atoms: N_11  and  C_12 
REMARK    6  A    between atoms: C_12  and  C_13 
REMARK       I    between atoms: C_13  and  N_14 
REMARK    7  A    between atoms: N_14  and  C_15 
ROOT
HETATM    1  N   UNL     1     -43.780  55.939 -58.333  1.00  0.00    -0.348 N 
HETATM    2  C   UNL     1     -42.974  56.757 -57.585  1.00  0.00     0.310 C 
HETATM    3  O   UNL     1     -42.332  57.716 -57.987  1.00  0.00    -0.262 OA
HETATM    4  H   UNL     1     -44.163  55.129 -57.852  1.00  0.00     0.163 HD
ENDROOT
BRANCH   2   5
HETATM    5  C   UNL     1     -42.902  56.330 -56.103  1.00  0.00     0.313 C 
HETATM    6  N   UNL     1     -41.737  55.657 -55.803  1.00  0.00    -0.319 N 
HETATM    7  H   UNL     1     -41.095  55.554 -56.587  1.00  0.00     0.169 HD
HETATM    8  O   UNL     1     -43.851  56.597 -55.377  1.00  0.00    -0.262 OA
BRANCH   6   9
HETATM    9  C   UNL     1     -41.381  55.073 -54.575  1.00  0.00     0.036 A 
HETATM   10  C   UNL     1     -41.431  55.750 -53.356  1.00  0.00     0.039 A 
HETATM   11  C   UNL     1     -41.112  55.093 -52.158  1.00  0.00    -0.028 A 
HETATM   12  C   UNL     1     -40.718  53.751 -52.175  1.00  0.00     0.050 A 
HETATM   13  C   UNL     1     -41.100  55.846 -50.860  1.00  0.00     0.050 C 
HETATM   14  N   UNL     1     -40.416  53.097 -50.951  1.00  0.00    -0.317 N 
HETATM   15  C   UNL     1     -40.605  53.079 -53.401  1.00  0.00    -0.028 A 
HETATM   16  C   UNL     1     -40.735  53.648 -49.712  1.00  0.00     0.224 C 
HETATM   17  C   UNL     1     -39.915  51.727 -50.976  1.00  0.00     0.132 C 
HETATM   18  O   UNL     1     -40.497  53.083 -48.643  1.00  0.00    -0.273 OA
HETATM   19  C   UNL     1     -41.528  54.935 -49.731  1.00  0.00     0.108 C 
HETATM   20  C   UNL     1     -39.225  51.354 -52.278  1.00  0.00     0.025 C 
HETATM   21  C   UNL     1     -40.146  51.648 -53.451  1.00  0.00     0.042 C 
HETATM   22  C   UNL     1     -40.961  53.739 -54.590  1.00  0.00     0.039 A 
ENDBRANCH   6   9
ENDBRANCH   2   5
BRANCH   1  23
HETATM   23  C   UNL     1     -43.856  56.014 -59.769  1.00  0.00     0.169 C 
BRANCH  23  24
HETATM   24  C   UNL     1     -45.146  56.685 -60.114  1.00  0.00     0.001 A 
HETATM   25  S   UNL     1     -45.226  58.394 -60.216  1.00  0.00    -0.095 SA
HETATM   26  C   UNL     1     -46.853  58.364 -60.755  1.00  0.00     0.017 A 
HETATM   27  C   UNL     1     -47.339  57.071 -60.800  1.00  0.00     0.018 A 
HETATM   28  C   UNL     1     -46.360  56.106 -60.425  1.00  0.00     0.017 A 
BRANCH  26  29
HETATM   29  C   UNL     1     -47.533  59.652 -61.139  1.00  0.00     0.198 C 
BRANCH  29  30
HETATM   30  C   UNL     1     -48.148  60.381 -59.978  1.00  0.00     0.016 A 
HETATM   31  S   UNL     1     -47.135  61.214 -58.867  1.00  0.00    -0.103 SA
HETATM   32  C   UNL     1     -48.470  61.744 -57.941  1.00  0.00     0.050 A 
HETATM   33  C   UNL     1     -49.667  61.300 -58.456  1.00  0.00     0.008 A 
HETATM   34  C   UNL     1     -49.481  60.515 -59.630  1.00  0.00     0.018 A 
ENDBRANCH  29  30
BRANCH  29  35
HETATM   35  O   UNL     1     -48.591  59.297 -62.032  1.00  0.00    -0.385 OA
HETATM   36  H   UNL     1     -49.040  58.536 -61.627  1.00  0.00     0.210 HD
ENDBRANCH  29  35
ENDBRANCH  26  29
ENDBRANCH  23  24
ENDBRANCH   1  23
TORSDOF 7
ENDMDL
