MODEL 1
REMARK VINA RESULT:      -7.5      0.000      0.000
REMARK  5 active torsions:
REMARK  status: ('A' for Active; 'I' for Inactive)
REMARK    1  A    between atoms: O_2  and  C_3 
REMARK    2  A    between atoms: C_4  and  C_5 
REMARK       I    between atoms: C_5  and  N_6 
REMARK    3  A    between atoms: N_6  and  C_7 
REMARK    4  A    between atoms: C_7  and  C_8 
REMARK    5  A    between atoms: C_8  and  C_9 
ROOT
HETATM    1  C   UNL     1     -43.696  56.289 -51.153  1.00  0.00     0.256 C 
HETATM    2  N   UNL     1     -42.348  56.185 -50.884  1.00  0.00    -0.356 N 
HETATM    3  O   UNL     1     -44.562  55.727 -50.493  1.00  0.00    -0.268 OA
HETATM    4  H   UNL     1     -41.672  56.569 -51.532  1.00  0.00     0.162 HD
ENDROOT
BRANCH   2   5
HETATM    5  C   UNL     1     -41.855  55.327 -49.820  1.00  0.00     0.130 C 
BRANCH   5   6
HETATM    6  C   UNL     1     -40.393  54.926 -50.018  1.00  0.00     0.098 C 
BRANCH   6   7
HETATM    7  C   UNL     1     -40.277  53.816 -51.002  1.00  0.00     0.106 A 
HETATM    8  N   UNL     1     -40.505  53.889 -52.297  1.00  0.00    -0.233 NA
HETATM    9  C   UNL     1     -40.271  52.626 -52.783  1.00  0.00     0.085 A 
HETATM   10  C   UNL     1     -39.881  51.765 -51.764  1.00  0.00     0.062 A 
HETATM   11  C   UNL     1     -40.370  52.138 -54.095  1.00  0.00     0.034 A 
HETATM   12  N   UNL     1     -39.893  52.547 -50.638  1.00  0.00    -0.343 N 
HETATM   13  C   UNL     1     -39.575  50.419 -51.975  1.00  0.00     0.032 A 
HETATM   14  H   UNL     1     -39.662  52.246 -49.702  1.00  0.00     0.167 HD
HETATM   15  C   UNL     1     -39.680  49.948 -53.289  1.00  0.00     0.002 A 
HETATM   16  C   UNL     1     -40.071  50.790 -54.333  1.00  0.00     0.002 A 
ENDBRANCH   6   7
ENDBRANCH   5   6
ENDBRANCH   2   5
BRANCH   1  17
HETATM   17  C   UNL     1     -44.058  57.154 -52.299  1.00  0.00     0.088 A 
HETATM   18  C   UNL     1     -43.616  56.807 -53.589  1.00  0.00     0.107 A 
HETATM   19  C   UNL     1     -43.905  57.646 -54.676  1.00  0.00     0.068 A 
HETATM   20  C   UNL     1     -44.660  58.805 -54.490  1.00  0.00     0.028 A 
HETATM   21 CL   UNL     1     -43.359  57.279 -56.272  1.00  0.00    -0.081 Cl
HETATM   22  C   UNL     1     -45.110  59.144 -53.215  1.00  0.00     0.027 A 
HETATM   23  C   UNL     1     -44.806  58.329 -52.119  1.00  0.00     0.052 A 
HETATM   24 CL   UNL     1     -45.362  58.865 -50.571  1.00  0.00    -0.083 Cl
BRANCH  18  25
HETATM   25  O   UNL     1     -42.841  55.693 -53.808  1.00  0.00    -0.353 OA
HETATM   26  C   UNL     1     -43.634  54.581 -54.222  1.00  0.00     0.210 C 
ENDBRANCH  18  25
ENDBRANCH   1  17
TORSDOF 5
ENDMDL
MODEL 2
REMARK VINA RESULT:      -7.3      3.189      6.771
REMARK  5 active torsions:
REMARK  status: ('A' for Active; 'I' for Inactive)
REMARK    1  A    between atoms: O_2  and  C_3 
REMARK    2  A    between atoms: C_4  and  C_5 
REMARK       I    between atoms: C_5  and  N_6 
REMARK    3  A    between atoms: N_6  and  C_7 
REMARK    4  A    between atoms: C_7  and  C_8 
REMARK    5  A    between atoms: C_8  and  C_9 
ROOT
HETATM    1  C   UNL     1     -42.109  54.707 -53.987  1.00  0.00     0.256 C 
HETATM    2  N   UNL     1     -41.482  55.784 -54.578  1.00  0.00    -0.356 N 
HETATM    3  O   UNL     1     -43.142  54.209 -54.417  1.00  0.00    -0.268 OA
HETATM    4  H   UNL     1     -40.701  56.232 -54.113  1.00  0.00     0.162 HD
ENDROOT
BRANCH   2   5
HETATM    5  C   UNL     1     -42.056  56.451 -55.733  1.00  0.00     0.130 C 
BRANCH   5   6
HETATM    6  C   UNL     1     -42.435  57.904 -55.445  1.00  0.00     0.098 C 
BRANCH   6   7
HETATM    7  C   UNL     1     -41.883  58.346 -54.136  1.00  0.00     0.106 A 
HETATM    8  N   UNL     1     -40.610  58.438 -53.813  1.00  0.00    -0.233 NA
HETATM    9  C   UNL     1     -40.591  58.883 -52.513  1.00  0.00     0.085 A 
HETATM   10  C   UNL     1     -41.882  59.078 -52.036  1.00  0.00     0.062 A 
HETATM   11  C   UNL     1     -39.501  59.148 -51.672  1.00  0.00     0.034 A 
HETATM   12  N   UNL     1     -42.688  58.728 -53.089  1.00  0.00    -0.343 N 
HETATM   13  C   UNL     1     -42.161  59.531 -50.745  1.00  0.00     0.032 A 
HETATM   14  H   UNL     1     -43.698  58.744 -53.097  1.00  0.00     0.167 HD
HETATM   15  C   UNL     1     -41.061  59.790 -49.919  1.00  0.00     0.002 A 
HETATM   16  C   UNL     1     -39.752  59.602 -50.371  1.00  0.00     0.002 A 
ENDBRANCH   6   7
ENDBRANCH   5   6
ENDBRANCH   2   5
BRANCH   1  17
HETATM   17  C   UNL     1     -41.444  54.157 -52.783  1.00  0.00     0.088 A 
HETATM   18  C   UNL     1     -41.600  54.815 -51.549  1.00  0.00     0.107 A 
HETATM   19  C   UNL     1     -40.932  54.336 -50.413  1.00  0.00     0.068 A 
HETATM   20  C   UNL     1     -40.142  53.189 -50.491  1.00  0.00     0.028 A 
HETATM   21 CL   UNL     1     -41.068  55.127 -48.883  1.00  0.00    -0.081 Cl
HETATM   22  C   UNL     1     -39.996  52.527 -51.710  1.00  0.00     0.027 A 
HETATM   23  C   UNL     1     -40.637  53.011 -52.856  1.00  0.00     0.052 A 
HETATM   24 CL   UNL     1     -40.349  52.152 -54.330  1.00  0.00    -0.083 Cl
BRANCH  18  25
HETATM   25  O   UNL     1     -42.341  55.967 -51.439  1.00  0.00    -0.353 OA
HETATM   26  C   UNL     1     -43.678  55.689 -51.023  1.00  0.00     0.210 C 
ENDBRANCH  18  25
ENDBRANCH   1  17
TORSDOF 5
ENDMDL
MODEL 3
REMARK VINA RESULT:      -7.3      1.534      2.554
REMARK  5 active torsions:
REMARK  status: ('A' for Active; 'I' for Inactive)
REMARK    1  A    between atoms: O_2  and  C_3 
REMARK    2  A    between atoms: C_4  and  C_5 
REMARK       I    between atoms: C_5  and  N_6 
REMARK    3  A    between atoms: N_6  and  C_7 
REMARK    4  A    between atoms: C_7  and  C_8 
REMARK    5  A    between atoms: C_8  and  C_9 
ROOT
HETATM    1  C   UNL     1     -43.174  55.268 -52.323  1.00  0.00     0.256 C 
HETATM    2  N   UNL     1     -42.301  55.829 -51.414  1.00  0.00    -0.356 N 
HETATM    3  O   UNL     1     -43.753  54.205 -52.134  1.00  0.00    -0.268 OA
HETATM    4  H   UNL     1     -41.759  56.644 -51.671  1.00  0.00     0.162 HD
ENDROOT
BRANCH   2   5
HETATM    5  C   UNL     1     -41.954  55.145 -50.180  1.00  0.00     0.130 C 
BRANCH   5   6
HETATM    6  C   UNL     1     -40.484  54.724 -50.136  1.00  0.00     0.098 C 
BRANCH   6   7
HETATM    7  C   UNL     1     -40.257  53.505 -50.956  1.00  0.00     0.106 A 
HETATM    8  N   UNL     1     -40.177  53.447 -52.269  1.00  0.00    -0.233 NA
HETATM    9  C   UNL     1     -39.963  52.123 -52.567  1.00  0.00     0.085 A 
HETATM   10  C   UNL     1     -39.901  51.357 -51.409  1.00  0.00     0.062 A 
HETATM   11  C   UNL     1     -39.810  51.498 -53.814  1.00  0.00     0.034 A 
HETATM   12  N   UNL     1     -40.092  52.260 -50.396  1.00  0.00    -0.343 N 
HETATM   13  C   UNL     1     -39.689  49.977 -51.415  1.00  0.00     0.032 A 
HETATM   14  H   UNL     1     -40.110  52.051 -49.407  1.00  0.00     0.167 HD
HETATM   15  C   UNL     1     -39.538  49.369 -52.667  1.00  0.00     0.002 A 
HETATM   16  C   UNL     1     -39.598  50.114 -53.848  1.00  0.00     0.002 A 
ENDBRANCH   6   7
ENDBRANCH   5   6
ENDBRANCH   2   5
BRANCH   1  17
HETATM   17  C   UNL     1     -43.398  56.045 -53.563  1.00  0.00     0.088 A 
HETATM   18  C   UNL     1     -44.119  57.251 -53.499  1.00  0.00     0.107 A 
HETATM   19  C   UNL     1     -44.385  57.970 -54.674  1.00  0.00     0.068 A 
HETATM   20  C   UNL     1     -43.909  57.512 -55.903  1.00  0.00     0.028 A 
HETATM   21 CL   UNL     1     -45.291  59.440 -54.650  1.00  0.00    -0.081 Cl
HETATM   22  C   UNL     1     -43.182  56.323 -55.968  1.00  0.00     0.027 A 
HETATM   23  C   UNL     1     -42.933  55.585 -54.806  1.00  0.00     0.052 A 
HETATM   24 CL   UNL     1     -42.072  54.096 -54.998  1.00  0.00    -0.083 Cl
BRANCH  18  25
HETATM   25  O   UNL     1     -44.635  57.717 -52.313  1.00  0.00    -0.353 OA
HETATM   26  C   UNL     1     -43.856  58.795 -51.793  1.00  0.00     0.210 C 
ENDBRANCH  18  25
ENDBRANCH   1  17
TORSDOF 5
ENDMDL
MODEL 4
REMARK VINA RESULT:      -7.3      3.549      6.481
REMARK  5 active torsions:
REMARK  status: ('A' for Active; 'I' for Inactive)
REMARK    1  A    between atoms: O_2  and  C_3 
REMARK    2  A    between atoms: C_4  and  C_5 
REMARK       I    between atoms: C_5  and  N_6 
REMARK    3  A    between atoms: N_6  and  C_7 
REMARK    4  A    between atoms: C_7  and  C_8 
REMARK    5  A    between atoms: C_8  and  C_9 
ROOT
HETATM    1  C   UNL     1     -42.383  55.425 -52.199  1.00  0.00     0.256 C 
HETATM    2  N   UNL     1     -41.979  56.468 -53.006  1.00  0.00    -0.356 N 
HETATM    3  O   UNL     1     -43.471  55.389 -51.637  1.00  0.00    -0.268 OA
HETATM    4  H   UNL     1     -41.026  56.504 -53.346  1.00  0.00     0.162 HD
ENDROOT
BRANCH   2   5
HETATM    5  C   UNL     1     -42.808  57.647 -53.187  1.00  0.00     0.130 C 
BRANCH   5   6
HETATM    6  C   UNL     1     -43.981  57.400 -54.137  1.00  0.00     0.098 C 
BRANCH   6   7
HETATM    7  C   UNL     1     -43.514  57.329 -55.548  1.00  0.00     0.106 A 
HETATM    8  N   UNL     1     -42.791  58.230 -56.180  1.00  0.00    -0.233 NA
HETATM    9  C   UNL     1     -42.612  57.733 -57.448  1.00  0.00     0.085 A 
HETATM   10  C   UNL     1     -43.230  56.496 -57.590  1.00  0.00     0.062 A 
HETATM   11  C   UNL     1     -41.925  58.286 -58.539  1.00  0.00     0.034 A 
HETATM   12  N   UNL     1     -43.799  56.261 -56.365  1.00  0.00    -0.343 N 
HETATM   13  C   UNL     1     -43.205  55.759 -58.776  1.00  0.00     0.032 A 
HETATM   14  H   UNL     1     -44.337  55.446 -56.105  1.00  0.00     0.167 HD
HETATM   15  C   UNL     1     -42.516  56.327 -59.854  1.00  0.00     0.002 A 
HETATM   16  C   UNL     1     -41.886  57.569 -59.742  1.00  0.00     0.002 A 
ENDBRANCH   6   7
ENDBRANCH   5   6
ENDBRANCH   2   5
BRANCH   1  17
HETATM   17  C   UNL     1     -41.418  54.311 -52.057  1.00  0.00     0.088 A 
HETATM   18  C   UNL     1     -41.194  53.451 -53.149  1.00  0.00     0.107 A 
HETATM   19  C   UNL     1     -40.324  52.360 -53.011  1.00  0.00     0.068 A 
HETATM   20  C   UNL     1     -39.652  52.141 -51.808  1.00  0.00     0.028 A 
HETATM   21 CL   UNL     1     -40.039  51.260 -54.312  1.00  0.00    -0.081 Cl
HETATM   22  C   UNL     1     -39.863  52.999 -50.728  1.00  0.00     0.027 A 
HETATM   23  C   UNL     1     -40.748  54.076 -50.846  1.00  0.00     0.052 A 
HETATM   24 CL   UNL     1     -40.984  55.048 -49.434  1.00  0.00    -0.083 Cl
BRANCH  18  25
HETATM   25  O   UNL     1     -41.862  53.612 -54.339  1.00  0.00    -0.353 OA
HETATM   26  C   UNL     1     -41.030  54.224 -55.325  1.00  0.00     0.210 C 
ENDBRANCH  18  25
ENDBRANCH   1  17
TORSDOF 5
ENDMDL
MODEL 5
REMARK VINA RESULT:      -7.1      4.103      7.392
REMARK  5 active torsions:
REMARK  status: ('A' for Active; 'I' for Inactive)
REMARK    1  A    between atoms: O_2  and  C_3 
REMARK    2  A    between atoms: C_4  and  C_5 
REMARK       I    between atoms: C_5  and  N_6 
REMARK    3  A    between atoms: N_6  and  C_7 
REMARK    4  A    between atoms: C_7  and  C_8 
REMARK    5  A    between atoms: C_8  and  C_9 
ROOT
HETATM    1  C   UNL     1     -42.493  54.791 -53.702  1.00  0.00     0.256 C 
HETATM    2  N   UNL     1     -42.419  56.164 -53.813  1.00  0.00    -0.356 N 
HETATM    3  O   UNL     1     -43.202  54.094 -54.418  1.00  0.00    -0.268 OA
HETATM    4  H   UNL     1     -41.914  56.700 -53.118  1.00  0.00     0.162 HD
ENDROOT
BRANCH   2   5
HETATM    5  C   UNL     1     -43.247  56.890 -54.760  1.00  0.00     0.130 C 
BRANCH   5   6
HETATM    6  C   UNL     1     -42.507  57.216 -56.058  1.00  0.00     0.098 C 
BRANCH   6   7
HETATM    7  C   UNL     1     -43.286  56.760 -57.241  1.00  0.00     0.106 A 
HETATM    8  N   UNL     1     -43.000  55.738 -58.021  1.00  0.00    -0.233 NA
HETATM    9  C   UNL     1     -43.995  55.709 -58.968  1.00  0.00     0.085 A 
HETATM   10  C   UNL     1     -44.914  56.730 -58.755  1.00  0.00     0.062 A 
HETATM   11  C   UNL     1     -44.180  54.833 -60.047  1.00  0.00     0.034 A 
HETATM   12  N   UNL     1     -44.439  57.386 -57.648  1.00  0.00    -0.343 N 
HETATM   13  C   UNL     1     -46.032  56.935 -59.566  1.00  0.00     0.032 A 
HETATM   14  H   UNL     1     -44.861  58.191 -57.207  1.00  0.00     0.167 HD
HETATM   15  C   UNL     1     -46.201  56.051 -60.638  1.00  0.00     0.002 A 
HETATM   16  C   UNL     1     -45.292  55.017 -60.878  1.00  0.00     0.002 A 
ENDBRANCH   6   7
ENDBRANCH   5   6
ENDBRANCH   2   5
BRANCH   1  17
HETATM   17  C   UNL     1     -41.636  54.183 -52.658  1.00  0.00     0.088 A 
HETATM   18  C   UNL     1     -41.778  54.601 -51.322  1.00  0.00     0.107 A 
HETATM   19  C   UNL     1     -40.936  54.073 -50.332  1.00  0.00     0.068 A 
HETATM   20  C   UNL     1     -39.981  53.110 -50.659  1.00  0.00     0.028 A 
HETATM   21 CL   UNL     1     -41.051  54.577 -48.684  1.00  0.00    -0.081 Cl
HETATM   22  C   UNL     1     -39.848  52.684 -51.981  1.00  0.00     0.027 A 
HETATM   23  C   UNL     1     -40.665  53.222 -52.981  1.00  0.00     0.052 A 
HETATM   24 CL   UNL     1     -40.384  52.671 -54.596  1.00  0.00    -0.083 Cl
BRANCH  18  25
HETATM   25  O   UNL     1     -42.682  55.573 -50.965  1.00  0.00    -0.353 OA
HETATM   26  C   UNL     1     -43.915  55.003 -50.528  1.00  0.00     0.210 C 
ENDBRANCH  18  25
ENDBRANCH   1  17
TORSDOF 5
ENDMDL
MODEL 6
REMARK VINA RESULT:      -6.9      3.937      7.100
REMARK  5 active torsions:
REMARK  status: ('A' for Active; 'I' for Inactive)
REMARK    1  A    between atoms: O_2  and  C_3 
REMARK    2  A    between atoms: C_4  and  C_5 
REMARK       I    between atoms: C_5  and  N_6 
REMARK    3  A    between atoms: N_6  and  C_7 
REMARK    4  A    between atoms: C_7  and  C_8 
REMARK    5  A    between atoms: C_8  and  C_9 
ROOT
HETATM    1  C   UNL     1     -42.418  55.899 -53.984  1.00  0.00     0.256 C 
HETATM    2  N   UNL     1     -42.058  57.228 -54.054  1.00  0.00    -0.356 N 
HETATM    3  O   UNL     1     -43.277  55.394 -54.698  1.00  0.00    -0.268 OA
HETATM    4  H   UNL     1     -41.433  57.619 -53.360  1.00  0.00     0.162 HD
ENDROOT
BRANCH   2   5
HETATM    5  C   UNL     1     -42.738  58.148 -54.949  1.00  0.00     0.130 C 
BRANCH   5   6
HETATM    6  C   UNL     1     -42.111  58.183 -56.343  1.00  0.00     0.098 C 
BRANCH   6   7
HETATM    7  C   UNL     1     -42.987  57.504 -57.335  1.00  0.00     0.106 A 
HETATM    8  N   UNL     1     -44.071  58.001 -57.894  1.00  0.00    -0.233 NA
HETATM    9  C   UNL     1     -44.537  57.018 -58.732  1.00  0.00     0.085 A 
HETATM   10  C   UNL     1     -43.713  55.899 -58.692  1.00  0.00     0.062 A 
HETATM   11  C   UNL     1     -45.665  57.011 -59.565  1.00  0.00     0.034 A 
HETATM   12  N   UNL     1     -42.733  56.233 -57.794  1.00  0.00    -0.343 N 
HETATM   13  C   UNL     1     -43.947  54.749 -59.449  1.00  0.00     0.032 A 
HETATM   14  H   UNL     1     -41.957  55.649 -57.515  1.00  0.00     0.167 HD
HETATM   15  C   UNL     1     -45.077  54.759 -60.275  1.00  0.00     0.002 A 
HETATM   16  C   UNL     1     -45.925  55.869 -60.334  1.00  0.00     0.002 A 
ENDBRANCH   6   7
ENDBRANCH   5   6
ENDBRANCH   2   5
BRANCH   1  17
HETATM   17  C   UNL     1     -41.683  55.084 -52.990  1.00  0.00     0.088 A 
HETATM   18  C   UNL     1     -41.796  55.399 -51.623  1.00  0.00     0.107 A 
HETATM   19  C   UNL     1     -41.062  54.670 -50.675  1.00  0.00     0.068 A 
HETATM   20  C   UNL     1     -40.247  53.612 -51.077  1.00  0.00     0.028 A 
HETATM   21 CL   UNL     1     -41.146  55.038 -48.990  1.00  0.00    -0.081 Cl
HETATM   22  C   UNL     1     -40.143  53.290 -52.430  1.00  0.00     0.027 A 
HETATM   23  C   UNL     1     -40.850  54.026 -53.387  1.00  0.00     0.052 A 
HETATM   24 CL   UNL     1     -40.610  53.585 -55.043  1.00  0.00    -0.083 Cl
BRANCH  18  25
HETATM   25  O   UNL     1     -42.561  56.456 -51.191  1.00  0.00    -0.353 OA
HETATM   26  C   UNL     1     -43.880  56.036 -50.842  1.00  0.00     0.210 C 
ENDBRANCH  18  25
ENDBRANCH   1  17
TORSDOF 5
ENDMDL
MODEL 7
REMARK VINA RESULT:      -6.9      4.297      5.969
REMARK  5 active torsions:
REMARK  status: ('A' for Active; 'I' for Inactive)
REMARK    1  A    between atoms: O_2  and  C_3 
REMARK    2  A    between atoms: C_4  and  C_5 
REMARK       I    between atoms: C_5  and  N_6 
REMARK    3  A    between atoms: N_6  and  C_7 
REMARK    4  A    between atoms: C_7  and  C_8 
REMARK    5  A    between atoms: C_8  and  C_9 
ROOT
HETATM    1  C   UNL     1     -43.749  56.761 -58.339  1.00  0.00     0.256 C 
HETATM    2  N   UNL     1     -43.997  56.537 -57.001  1.00  0.00    -0.356 N 
HETATM    3  O   UNL     1     -42.622  56.813 -58.816  1.00  0.00    -0.268 OA
HETATM    4  H   UNL     1     -44.939  56.624 -56.640  1.00  0.00     0.162 HD
ENDROOT
BRANCH   2   5
HETATM    5  C   UNL     1     -42.913  56.415 -56.042  1.00  0.00     0.130 C 
BRANCH   5   6
HETATM    6  C   UNL     1     -43.378  55.860 -54.695  1.00  0.00     0.098 C 
BRANCH   6   7
HETATM    7  C   UNL     1     -42.448  54.807 -54.207  1.00  0.00     0.106 A 
HETATM    8  N   UNL     1     -41.897  53.852 -54.927  1.00  0.00    -0.233 NA
HETATM    9  C   UNL     1     -41.124  53.130 -54.050  1.00  0.00     0.085 A 
HETATM   10  C   UNL     1     -41.196  53.663 -52.769  1.00  0.00     0.062 A 
HETATM   11  C   UNL     1     -40.326  52.000 -54.280  1.00  0.00     0.034 A 
HETATM   12  N   UNL     1     -42.046  54.731 -52.894  1.00  0.00    -0.343 N 
HETATM   13  C   UNL     1     -40.505  53.130 -51.678  1.00  0.00     0.032 A 
HETATM   14  H   UNL     1     -42.332  55.355 -52.153  1.00  0.00     0.167 HD
HETATM   15  C   UNL     1     -39.714  52.002 -51.925  1.00  0.00     0.002 A 
HETATM   16  C   UNL     1     -39.624  51.443 -53.203  1.00  0.00     0.002 A 
ENDBRANCH   6   7
ENDBRANCH   5   6
ENDBRANCH   2   5
BRANCH   1  17
HETATM   17  C   UNL     1     -44.946  56.921 -59.197  1.00  0.00     0.088 A 
HETATM   18  C   UNL     1     -45.619  58.156 -59.215  1.00  0.00     0.107 A 
HETATM   19  C   UNL     1     -46.785  58.304 -59.981  1.00  0.00     0.068 A 
HETATM   20  C   UNL     1     -47.261  57.244 -60.753  1.00  0.00     0.028 A 
HETATM   21 CL   UNL     1     -47.663  59.791 -60.012  1.00  0.00    -0.081 Cl
HETATM   22  C   UNL     1     -46.588  56.023 -60.747  1.00  0.00     0.027 A 
HETATM   23  C   UNL     1     -45.439  55.855 -59.966  1.00  0.00     0.052 A 
HETATM   24 CL   UNL     1     -44.708  54.286 -59.983  1.00  0.00    -0.083 Cl
BRANCH  18  25
HETATM   25  O   UNL     1     -45.202  59.213 -58.442  1.00  0.00    -0.353 OA
HETATM   26  C   UNL     1     -44.351  60.092 -59.177  1.00  0.00     0.210 C 
ENDBRANCH  18  25
ENDBRANCH   1  17
TORSDOF 5
ENDMDL
MODEL 8
REMARK VINA RESULT:      -6.9      3.400      7.839
REMARK  5 active torsions:
REMARK  status: ('A' for Active; 'I' for Inactive)
REMARK    1  A    between atoms: O_2  and  C_3 
REMARK    2  A    between atoms: C_4  and  C_5 
REMARK       I    between atoms: C_5  and  N_6 
REMARK    3  A    between atoms: N_6  and  C_7 
REMARK    4  A    between atoms: C_7  and  C_8 
REMARK    5  A    between atoms: C_8  and  C_9 
ROOT
HETATM    1  C   UNL     1     -42.001  55.988 -51.709  1.00  0.00     0.256 C 
HETATM    2  N   UNL     1     -43.291  55.895 -52.186  1.00  0.00    -0.356 N 
HETATM    3  O   UNL     1     -41.488  57.042 -51.352  1.00  0.00    -0.268 OA
HETATM    4  H   UNL     1     -43.622  55.023 -52.580  1.00  0.00     0.162 HD
ENDROOT
BRANCH   2   5
HETATM    5  C   UNL     1     -44.117  57.076 -52.365  1.00  0.00     0.130 C 
BRANCH   5   6
HETATM    6  C   UNL     1     -45.069  57.311 -51.191  1.00  0.00     0.098 C 
BRANCH   6   7
HETATM    7  C   UNL     1     -44.965  58.710 -50.696  1.00  0.00     0.106 A 
HETATM    8  N   UNL     1     -45.891  59.382 -50.045  1.00  0.00    -0.233 NA
HETATM    9  C   UNL     1     -45.344  60.618 -49.800  1.00  0.00     0.085 A 
HETATM   10  C   UNL     1     -44.051  60.698 -50.302  1.00  0.00     0.062 A 
HETATM   11  C   UNL     1     -45.898  61.730 -49.147  1.00  0.00     0.034 A 
HETATM   12  N   UNL     1     -43.832  59.469 -50.869  1.00  0.00    -0.343 N 
HETATM   13  C   UNL     1     -43.255  61.840 -50.190  1.00  0.00     0.032 A 
HETATM   14  H   UNL     1     -42.987  59.171 -51.335  1.00  0.00     0.167 HD
HETATM   15  C   UNL     1     -43.823  62.940 -49.536  1.00  0.00     0.002 A 
HETATM   16  C   UNL     1     -45.122  62.889 -49.022  1.00  0.00     0.002 A 
ENDBRANCH   6   7
ENDBRANCH   5   6
ENDBRANCH   2   5
BRANCH   1  17
HETATM   17  C   UNL     1     -41.251  54.714 -51.628  1.00  0.00     0.088 A 
HETATM   18  C   UNL     1     -40.984  53.996 -52.808  1.00  0.00     0.107 A 
HETATM   19  C   UNL     1     -40.323  52.761 -52.741  1.00  0.00     0.068 A 
HETATM   20  C   UNL     1     -39.896  52.257 -51.512  1.00  0.00     0.028 A 
HETATM   21 CL   UNL     1     -39.999  51.830 -54.159  1.00  0.00    -0.081 Cl
HETATM   22  C   UNL     1     -40.148  52.972 -50.341  1.00  0.00     0.027 A 
HETATM   23  C   UNL     1     -40.830  54.193 -50.394  1.00  0.00     0.052 A 
HETATM   24 CL   UNL     1     -41.142  54.976 -48.883  1.00  0.00    -0.083 Cl
BRANCH  18  25
HETATM   25  O   UNL     1     -41.418  54.443 -54.034  1.00  0.00    -0.353 OA
HETATM   26  C   UNL     1     -40.404  55.189 -54.706  1.00  0.00     0.210 C 
ENDBRANCH  18  25
ENDBRANCH   1  17
TORSDOF 5
ENDMDL
MODEL 9
REMARK VINA RESULT:      -6.8      4.117      6.943
REMARK  5 active torsions:
REMARK  status: ('A' for Active; 'I' for Inactive)
REMARK    1  A    between atoms: O_2  and  C_3 
REMARK    2  A    between atoms: C_4  and  C_5 
REMARK       I    between atoms: C_5  and  N_6 
REMARK    3  A    between atoms: N_6  and  C_7 
REMARK    4  A    between atoms: C_7  and  C_8 
REMARK    5  A    between atoms: C_8  and  C_9 
ROOT
HETATM    1  C   UNL     1     -42.834  55.239 -53.632  1.00  0.00     0.256 C 
HETATM    2  N   UNL     1     -42.360  56.503 -53.910  1.00  0.00    -0.356 N 
HETATM    3  O   UNL     1     -43.865  54.783 -54.113  1.00  0.00    -0.268 OA
HETATM    4  H   UNL     1     -41.572  56.873 -53.393  1.00  0.00     0.162 HD
ENDROOT
BRANCH   2   5
HETATM    5  C   UNL     1     -43.107  57.420 -54.755  1.00  0.00     0.130 C 
BRANCH   5   6
HETATM    6  C   UNL     1     -42.405  57.696 -56.085  1.00  0.00     0.098 C 
BRANCH   6   7
HETATM    7  C   UNL     1     -43.204  57.168 -57.224  1.00  0.00     0.106 A 
HETATM    8  N   UNL     1     -44.240  57.750 -57.792  1.00  0.00    -0.233 NA
HETATM    9  C   UNL     1     -44.642  56.895 -58.788  1.00  0.00     0.085 A 
HETATM   10  C   UNL     1     -43.827  55.771 -58.838  1.00  0.00     0.062 A 
HETATM   11  C   UNL     1     -45.703  57.015 -59.698  1.00  0.00     0.034 A 
HETATM   12  N   UNL     1     -42.918  55.968 -57.830  1.00  0.00    -0.343 N 
HETATM   13  C   UNL     1     -44.004  54.736 -59.759  1.00  0.00     0.032 A 
HETATM   14  H   UNL     1     -42.168  55.342 -57.574  1.00  0.00     0.167 HD
HETATM   15  C   UNL     1     -45.067  54.872 -60.659  1.00  0.00     0.002 A 
HETATM   16  C   UNL     1     -45.905  55.990 -60.632  1.00  0.00     0.002 A 
ENDBRANCH   6   7
ENDBRANCH   5   6
ENDBRANCH   2   5
BRANCH   1  17
HETATM   17  C   UNL     1     -42.003  54.428 -52.713  1.00  0.00     0.088 A 
HETATM   18  C   UNL     1     -41.134  53.458 -53.245  1.00  0.00     0.107 A 
HETATM   19  C   UNL     1     -40.381  52.646 -52.384  1.00  0.00     0.068 A 
HETATM   20  C   UNL     1     -40.463  52.819 -51.002  1.00  0.00     0.028 A 
HETATM   21 CL   UNL     1     -39.324  51.422 -52.989  1.00  0.00    -0.081 Cl
HETATM   22  C   UNL     1     -41.314  53.788 -50.472  1.00  0.00     0.027 A 
HETATM   23  C   UNL     1     -42.089  54.586 -51.320  1.00  0.00     0.052 A 
HETATM   24 CL   UNL     1     -43.154  55.721 -50.564  1.00  0.00    -0.083 Cl
BRANCH  18  25
HETATM   25  O   UNL     1     -41.051  53.234 -54.599  1.00  0.00    -0.353 OA
HETATM   26  C   UNL     1     -40.061  54.065 -55.205  1.00  0.00     0.210 C 
ENDBRANCH  18  25
ENDBRANCH   1  17
TORSDOF 5
ENDMDL
MODEL 10
REMARK VINA RESULT:      -6.7      3.096      6.474
REMARK  5 active torsions:
REMARK  status: ('A' for Active; 'I' for Inactive)
REMARK    1  A    between atoms: O_2  and  C_3 
REMARK    2  A    between atoms: C_4  and  C_5 
REMARK       I    between atoms: C_5  and  N_6 
REMARK    3  A    between atoms: N_6  and  C_7 
REMARK    4  A    between atoms: C_7  and  C_8 
REMARK    5  A    between atoms: C_8  and  C_9 
ROOT
HETATM    1  C   UNL     1     -42.062  56.052 -51.236  1.00  0.00     0.256 C 
HETATM    2  N   UNL     1     -41.362  57.217 -51.465  1.00  0.00    -0.356 N 
HETATM    3  O   UNL     1     -43.247  56.026 -50.929  1.00  0.00    -0.268 OA
HETATM    4  H   UNL     1     -40.358  57.186 -51.596  1.00  0.00     0.162 HD
ENDROOT
BRANCH   2   5
HETATM    5  C   UNL     1     -41.982  58.518 -51.285  1.00  0.00     0.130 C 
BRANCH   5   6
HETATM    6  C   UNL     1     -41.380  59.589 -52.196  1.00  0.00     0.098 C 
BRANCH   6   7
HETATM    7  C   UNL     1     -41.713  59.320 -53.620  1.00  0.00     0.106 A 
HETATM    8  N   UNL     1     -41.942  58.142 -54.163  1.00  0.00    -0.233 NA
HETATM    9  C   UNL     1     -42.203  58.393 -55.488  1.00  0.00     0.085 A 
HETATM   10  C   UNL     1     -42.143  59.755 -55.758  1.00  0.00     0.062 A 
HETATM   11  C   UNL     1     -42.504  57.500 -56.527  1.00  0.00     0.034 A 
HETATM   12  N   UNL     1     -41.828  60.325 -54.551  1.00  0.00    -0.343 N 
HETATM   13  C   UNL     1     -42.371  60.295 -57.026  1.00  0.00     0.032 A 
HETATM   14  H   UNL     1     -41.701  61.311 -54.374  1.00  0.00     0.167 HD
HETATM   15  C   UNL     1     -42.669  59.390 -58.050  1.00  0.00     0.002 A 
HETATM   16  C   UNL     1     -42.735  58.015 -57.810  1.00  0.00     0.002 A 
ENDBRANCH   6   7
ENDBRANCH   5   6
ENDBRANCH   2   5
BRANCH   1  17
HETATM   17  C   UNL     1     -41.294  54.797 -51.404  1.00  0.00     0.088 A 
HETATM   18  C   UNL     1     -41.099  54.276 -52.696  1.00  0.00     0.107 A 
HETATM   19  C   UNL     1     -40.420  53.060 -52.865  1.00  0.00     0.068 A 
HETATM   20  C   UNL     1     -39.907  52.381 -51.760  1.00  0.00     0.028 A 
HETATM   21 CL   UNL     1     -40.183  52.366 -54.429  1.00  0.00    -0.081 Cl
HETATM   22  C   UNL     1     -40.087  52.901 -50.478  1.00  0.00     0.027 A 
HETATM   23  C   UNL     1     -40.785  54.100 -50.296  1.00  0.00     0.052 A 
HETATM   24 CL   UNL     1     -41.004  54.633 -48.665  1.00  0.00    -0.083 Cl
BRANCH  18  25
HETATM   25  O   UNL     1     -41.619  54.897 -53.806  1.00  0.00    -0.353 OA
HETATM   26  C   UNL     1     -42.927  54.412 -54.109  1.00  0.00     0.210 C 
ENDBRANCH  18  25
ENDBRANCH   1  17
TORSDOF 5
ENDMDL
