MODEL 1
REMARK VINA RESULT:      -9.7      0.000      0.000
REMARK  6 active torsions:
REMARK  status: ('A' for Active; 'I' for Inactive)
REMARK    1  A    between atoms: C_2  and  O_3 
REMARK    2  A    between atoms: C_2  and  C_4 
REMARK    3  A    between atoms: C_6  and  N_7 
REMARK       I    between atoms: N_7  and  C_8 
REMARK    4  A    between atoms: C_8  and  C_9 
REMARK    5  A    between atoms: C_12  and  C_13 
REMARK    6  A    between atoms: C_18  and  C_19 
ROOT
HETATM    1  C   UNL     1     -42.241  55.939 -54.376  1.00  0.00     0.096 A 
HETATM    2  C   UNL     1     -41.504  55.174 -53.490  1.00  0.00     0.138 A 
HETATM    3  N   UNL     1     -41.453  55.900 -52.320  1.00  0.00    -0.240 N 
HETATM    4  C   UNL     1     -40.827  55.434 -51.093  1.00  0.00     0.221 C 
HETATM    5  C   UNL     1     -40.670  53.901 -51.131  1.00  0.00     0.066 C 
HETATM    6  C   UNL     1     -40.079  53.469 -52.477  1.00  0.00     0.118 C 
HETATM    7  N   UNL     1     -40.932  53.943 -53.570  1.00  0.00    -0.365 N 
HETATM    8  N   UNL     1     -42.016  57.111 -52.414  1.00  0.00    -0.181 NA
HETATM    9  C   UNL     1     -42.536  57.115 -53.644  1.00  0.00     0.160 A 
HETATM   10  H   UNL     1     -41.371  53.204 -54.122  1.00  0.00     0.161 HD
ENDROOT
BRANCH   1  11
HETATM   11  C   UNL     1     -42.637  55.662 -55.748  1.00  0.00     0.261 C 
HETATM   12  N   UNL     1     -42.798  56.799 -56.517  1.00  0.00    -0.323 N 
HETATM   13  H   UNL     1     -42.745  57.675 -56.008  1.00  0.00     0.169 HD
HETATM   14  O   UNL     1     -42.823  54.509 -56.118  1.00  0.00    -0.267 OA
BRANCH  12  15
HETATM   15  C   UNL     1     -43.080  56.883 -57.894  1.00  0.00     0.035 A 
HETATM   16  C   UNL     1     -44.050  56.109 -58.537  1.00  0.00     0.039 A 
HETATM   17  C   UNL     1     -44.273  56.223 -59.923  1.00  0.00    -0.028 A 
HETATM   18  C   UNL     1     -43.508  57.139 -60.654  1.00  0.00     0.010 A 
HETATM   19  C   UNL     1     -42.535  57.913 -60.023  1.00  0.00     0.003 A 
HETATM   20  C   UNL     1     -42.322  57.782 -58.649  1.00  0.00     0.029 A 
BRANCH  17  21
HETATM   21  C   UNL     1     -45.352  55.384 -60.574  1.00  0.00     0.147 C 
HETATM   22  C   UNL     1     -46.694  56.107 -60.577  1.00  0.00     0.044 C 
BRANCH  21  23
HETATM   23  O   UNL     1     -44.990  55.068 -61.918  1.00  0.00    -0.391 OA
HETATM   24  H   UNL     1     -44.391  55.769 -62.220  1.00  0.00     0.210 HD
ENDBRANCH  21  23
ENDBRANCH  17  21
ENDBRANCH  12  15
ENDBRANCH   1  11
BRANCH   4  25
HETATM   25  C   UNL     1     -41.612  55.827 -49.858  1.00  0.00     0.409 C 
HETATM   26  F   UNL     1     -42.942  55.633 -50.005  1.00  0.00    -0.169 F 
HETATM   27  F   UNL     1     -41.223  55.047 -48.811  1.00  0.00    -0.169 F 
HETATM   28  F   UNL     1     -41.404  57.101 -49.466  1.00  0.00    -0.169 F 
ENDBRANCH   4  25
BRANCH   6  29
HETATM   29  C   UNL     1     -39.890  51.969 -52.581  1.00  0.00    -0.035 A 
HETATM   30  C   UNL     1     -39.882  51.310 -53.822  1.00  0.00     0.009 A 
HETATM   31  C   UNL     1     -39.706  49.927 -53.893  1.00  0.00     0.001 A 
HETATM   32  C   UNL     1     -39.537  49.183 -52.727  1.00  0.00     0.000 A 
HETATM   33  C   UNL     1     -39.538  49.822 -51.489  1.00  0.00     0.001 A 
HETATM   34  C   UNL     1     -39.711  51.206 -51.416  1.00  0.00     0.009 A 
ENDBRANCH   6  29
TORSDOF 6
ENDMDL
MODEL 2
REMARK VINA RESULT:      -9.2      1.376      2.195
REMARK  6 active torsions:
REMARK  status: ('A' for Active; 'I' for Inactive)
REMARK    1  A    between atoms: C_2  and  O_3 
REMARK    2  A    between atoms: C_2  and  C_4 
REMARK    3  A    between atoms: C_6  and  N_7 
REMARK       I    between atoms: N_7  and  C_8 
REMARK    4  A    between atoms: C_8  and  C_9 
REMARK    5  A    between atoms: C_12  and  C_13 
REMARK    6  A    between atoms: C_18  and  C_19 
ROOT
HETATM    1  C   UNL     1     -42.561  55.982 -53.789  1.00  0.00     0.096 A 
HETATM    2  C   UNL     1     -41.725  55.106 -53.121  1.00  0.00     0.138 A 
HETATM    3  N   UNL     1     -41.600  55.606 -51.843  1.00  0.00    -0.240 N 
HETATM    4  C   UNL     1     -40.857  54.956 -50.777  1.00  0.00     0.221 C 
HETATM    5  C   UNL     1     -40.650  53.465 -51.113  1.00  0.00     0.066 C 
HETATM    6  C   UNL     1     -40.161  53.318 -52.557  1.00  0.00     0.118 C 
HETATM    7  N   UNL     1     -41.119  53.940 -53.473  1.00  0.00    -0.365 N 
HETATM    8  N   UNL     1     -42.211  56.785 -51.666  1.00  0.00    -0.181 NA
HETATM    9  C   UNL     1     -42.833  56.988 -52.830  1.00  0.00     0.160 A 
HETATM   10  H   UNL     1     -41.578  53.294 -54.118  1.00  0.00     0.161 HD
ENDROOT
BRANCH   1  11
HETATM   11  C   UNL     1     -43.063  55.942 -55.154  1.00  0.00     0.261 C 
HETATM   12  N   UNL     1     -43.368  57.188 -55.668  1.00  0.00    -0.323 N 
HETATM   13  H   UNL     1     -43.327  57.951 -55.001  1.00  0.00     0.169 HD
HETATM   14  O   UNL     1     -43.205  54.869 -55.730  1.00  0.00    -0.267 OA
BRANCH  12  15
HETATM   15  C   UNL     1     -43.781  57.510 -56.974  1.00  0.00     0.035 A 
HETATM   16  C   UNL     1     -42.936  57.477 -58.087  1.00  0.00     0.039 A 
HETATM   17  C   UNL     1     -43.403  57.830 -59.368  1.00  0.00    -0.028 A 
HETATM   18  C   UNL     1     -44.742  58.209 -59.515  1.00  0.00     0.010 A 
HETATM   19  C   UNL     1     -45.592  58.250 -58.411  1.00  0.00     0.003 A 
HETATM   20  C   UNL     1     -45.112  57.903 -57.146  1.00  0.00     0.029 A 
BRANCH  17  21
HETATM   21  C   UNL     1     -42.460  57.756 -60.550  1.00  0.00     0.147 C 
HETATM   22  C   UNL     1     -41.851  59.118 -60.863  1.00  0.00     0.044 C 
BRANCH  21  23
HETATM   23  O   UNL     1     -41.410  56.826 -60.288  1.00  0.00    -0.391 OA
HETATM   24  H   UNL     1     -40.780  57.271 -59.699  1.00  0.00     0.210 HD
ENDBRANCH  21  23
ENDBRANCH  17  21
ENDBRANCH  12  15
ENDBRANCH   1  11
BRANCH   4  25
HETATM   25  C   UNL     1     -41.547  55.077 -49.433  1.00  0.00     0.409 C 
HETATM   26  F   UNL     1     -41.372  56.292 -48.869  1.00  0.00    -0.169 F 
HETATM   27  F   UNL     1     -42.889  54.921 -49.603  1.00  0.00    -0.169 F 
HETATM   28  F   UNL     1     -41.174  54.132 -48.546  1.00  0.00    -0.169 F 
ENDBRANCH   4  25
BRANCH   6  29
HETATM   29  C   UNL     1     -39.929  51.873 -52.953  1.00  0.00    -0.035 A 
HETATM   30  C   UNL     1     -39.572  50.896 -52.008  1.00  0.00     0.009 A 
HETATM   31  C   UNL     1     -39.363  49.572 -52.397  1.00  0.00     0.001 A 
HETATM   32  C   UNL     1     -39.507  49.205 -53.734  1.00  0.00     0.000 A 
HETATM   33  C   UNL     1     -39.864  50.160 -54.682  1.00  0.00     0.001 A 
HETATM   34  C   UNL     1     -40.075  51.485 -54.295  1.00  0.00     0.009 A 
ENDBRANCH   6  29
TORSDOF 6
ENDMDL
MODEL 3
REMARK VINA RESULT:      -9.1      1.740      2.459
REMARK  6 active torsions:
REMARK  status: ('A' for Active; 'I' for Inactive)
REMARK    1  A    between atoms: C_2  and  O_3 
REMARK    2  A    between atoms: C_2  and  C_4 
REMARK    3  A    between atoms: C_6  and  N_7 
REMARK       I    between atoms: N_7  and  C_8 
REMARK    4  A    between atoms: C_8  and  C_9 
REMARK    5  A    between atoms: C_12  and  C_13 
REMARK    6  A    between atoms: C_18  and  C_19 
ROOT
HETATM    1  C   UNL     1     -42.138  56.205 -52.181  1.00  0.00     0.096 A 
HETATM    2  C   UNL     1     -41.289  55.151 -51.894  1.00  0.00     0.138 A 
HETATM    3  N   UNL     1     -40.889  55.335 -50.588  1.00  0.00    -0.240 N 
HETATM    4  C   UNL     1     -40.037  54.415 -49.854  1.00  0.00     0.221 C 
HETATM    5  C   UNL     1     -40.044  53.033 -50.537  1.00  0.00     0.066 C 
HETATM    6  C   UNL     1     -39.836  53.195 -52.047  1.00  0.00     0.118 C 
HETATM    7  N   UNL     1     -40.874  54.066 -52.601  1.00  0.00    -0.365 N 
HETATM    8  N   UNL     1     -41.338  56.474 -50.045  1.00  0.00    -0.181 NA
HETATM    9  C   UNL     1     -42.134  56.976 -50.993  1.00  0.00     0.160 A 
HETATM   10  H   UNL     1     -41.503  53.614 -53.268  1.00  0.00     0.161 HD
ENDROOT
BRANCH   1  11
HETATM   11  C   UNL     1     -42.875  56.510 -53.397  1.00  0.00     0.261 C 
HETATM   12  N   UNL     1     -42.096  57.078 -54.388  1.00  0.00    -0.323 N 
HETATM   13  H   UNL     1     -41.154  57.325 -54.107  1.00  0.00     0.169 HD
HETATM   14  O   UNL     1     -44.078  56.286 -53.464  1.00  0.00    -0.267 OA
BRANCH  12  15
HETATM   15  C   UNL     1     -42.471  57.403 -55.705  1.00  0.00     0.035 A 
HETATM   16  C   UNL     1     -42.372  56.519 -56.783  1.00  0.00     0.039 A 
HETATM   17  C   UNL     1     -42.744  56.909 -58.083  1.00  0.00    -0.028 A 
HETATM   18  C   UNL     1     -43.229  58.207 -58.283  1.00  0.00     0.010 A 
HETATM   19  C   UNL     1     -43.327  59.099 -57.217  1.00  0.00     0.003 A 
HETATM   20  C   UNL     1     -42.948  58.698 -55.934  1.00  0.00     0.029 A 
BRANCH  17  21
HETATM   21  C   UNL     1     -42.645  55.911 -59.217  1.00  0.00     0.147 C 
HETATM   22  C   UNL     1     -43.987  55.729 -59.918  1.00  0.00     0.044 C 
BRANCH  21  23
HETATM   23  O   UNL     1     -41.676  56.340 -60.172  1.00  0.00    -0.391 OA
HETATM   24  H   UNL     1     -41.134  57.018 -59.738  1.00  0.00     0.210 HD
ENDBRANCH  21  23
ENDBRANCH  17  21
ENDBRANCH  12  15
ENDBRANCH   1  11
BRANCH   4  25
HETATM   25  C   UNL     1     -40.462  54.261 -48.407  1.00  0.00     0.409 C 
HETATM   26  F   UNL     1     -41.146  53.117 -48.187  1.00  0.00    -0.169 F 
HETATM   27  F   UNL     1     -39.353  54.204 -47.618  1.00  0.00    -0.169 F 
HETATM   28  F   UNL     1     -41.192  55.296 -47.945  1.00  0.00    -0.169 F 
ENDBRANCH   4  25
BRANCH   6  29
HETATM   29  C   UNL     1     -39.824  51.870 -52.783  1.00  0.00    -0.035 A 
HETATM   30  C   UNL     1     -39.499  50.667 -52.134  1.00  0.00     0.009 A 
HETATM   31  C   UNL     1     -39.494  49.459 -52.833  1.00  0.00     0.001 A 
HETATM   32  C   UNL     1     -39.812  49.435 -54.189  1.00  0.00     0.000 A 
HETATM   33  C   UNL     1     -40.140  50.618 -54.847  1.00  0.00     0.001 A 
HETATM   34  C   UNL     1     -40.148  51.828 -54.148  1.00  0.00     0.009 A 
ENDBRANCH   6  29
TORSDOF 6
ENDMDL
MODEL 4
REMARK VINA RESULT:      -8.9      2.310      3.131
REMARK  6 active torsions:
REMARK  status: ('A' for Active; 'I' for Inactive)
REMARK    1  A    between atoms: C_2  and  O_3 
REMARK    2  A    between atoms: C_2  and  C_4 
REMARK    3  A    between atoms: C_6  and  N_7 
REMARK       I    between atoms: N_7  and  C_8 
REMARK    4  A    between atoms: C_8  and  C_9 
REMARK    5  A    between atoms: C_12  and  C_13 
REMARK    6  A    between atoms: C_18  and  C_19 
ROOT
HETATM    1  C   UNL     1     -41.978  56.168 -52.028  1.00  0.00     0.096 A 
HETATM    2  C   UNL     1     -41.150  55.102 -51.725  1.00  0.00     0.138 A 
HETATM    3  N   UNL     1     -40.771  55.282 -50.413  1.00  0.00    -0.240 N 
HETATM    4  C   UNL     1     -39.946  54.349 -49.663  1.00  0.00     0.221 C 
HETATM    5  C   UNL     1     -39.961  52.967 -50.345  1.00  0.00     0.066 C 
HETATM    6  C   UNL     1     -39.724  53.124 -51.850  1.00  0.00     0.118 C 
HETATM    7  N   UNL     1     -40.739  54.010 -52.425  1.00  0.00    -0.365 N 
HETATM    8  N   UNL     1     -41.212  56.428 -49.878  1.00  0.00    -0.181 NA
HETATM    9  C   UNL     1     -41.983  56.941 -50.841  1.00  0.00     0.160 A 
HETATM   10  H   UNL     1     -41.362  53.566 -53.102  1.00  0.00     0.161 HD
ENDROOT
BRANCH   1  11
HETATM   11  C   UNL     1     -42.688  56.482 -53.258  1.00  0.00     0.261 C 
HETATM   12  N   UNL     1     -41.857  56.650 -54.350  1.00  0.00    -0.323 N 
HETATM   13  H   UNL     1     -40.865  56.658 -54.139  1.00  0.00     0.169 HD
HETATM   14  O   UNL     1     -43.908  56.602 -53.255  1.00  0.00    -0.267 OA
BRANCH  12  15
HETATM   15  C   UNL     1     -42.221  56.865 -55.692  1.00  0.00     0.035 A 
HETATM   16  C   UNL     1     -42.157  58.109 -56.326  1.00  0.00     0.039 A 
HETATM   17  C   UNL     1     -42.555  58.266 -57.667  1.00  0.00    -0.028 A 
HETATM   18  C   UNL     1     -43.012  57.144 -58.369  1.00  0.00     0.010 A 
HETATM   19  C   UNL     1     -43.085  55.900 -57.745  1.00  0.00     0.003 A 
HETATM   20  C   UNL     1     -42.693  55.763 -56.412  1.00  0.00     0.029 A 
BRANCH  17  21
HETATM   21  C   UNL     1     -42.444  59.626 -58.322  1.00  0.00     0.147 C 
HETATM   22  C   UNL     1     -43.711  60.448 -58.115  1.00  0.00     0.044 C 
BRANCH  21  23
HETATM   23  O   UNL     1     -41.332  60.344 -57.789  1.00  0.00    -0.391 OA
HETATM   24  H   UNL     1     -41.693  61.110 -57.315  1.00  0.00     0.210 HD
ENDBRANCH  21  23
ENDBRANCH  17  21
ENDBRANCH  12  15
ENDBRANCH   1  11
BRANCH   4  25
HETATM   25  C   UNL     1     -40.399  54.204 -48.224  1.00  0.00     0.409 C 
HETATM   26  F   UNL     1     -41.217  55.207 -47.835  1.00  0.00    -0.169 F 
HETATM   27  F   UNL     1     -41.114  53.052 -48.093  1.00  0.00    -0.169 F 
HETATM   28  F   UNL     1     -39.383  54.110 -47.343  1.00  0.00    -0.169 F 
ENDBRANCH   4  25
BRANCH   6  29
HETATM   29  C   UNL     1     -39.718  51.798 -52.585  1.00  0.00    -0.035 A 
HETATM   30  C   UNL     1     -39.506  50.582 -51.914  1.00  0.00     0.009 A 
HETATM   31  C   UNL     1     -39.505  49.373 -52.612  1.00  0.00     0.001 A 
HETATM   32  C   UNL     1     -39.715  49.362 -53.989  1.00  0.00     0.000 A 
HETATM   33  C   UNL     1     -39.931  50.557 -54.669  1.00  0.00     0.001 A 
HETATM   34  C   UNL     1     -39.935  51.768 -53.972  1.00  0.00     0.009 A 
ENDBRANCH   6  29
TORSDOF 6
ENDMDL
MODEL 5
REMARK VINA RESULT:      -8.7      3.073      7.880
REMARK  6 active torsions:
REMARK  status: ('A' for Active; 'I' for Inactive)
REMARK    1  A    between atoms: C_2  and  O_3 
REMARK    2  A    between atoms: C_2  and  C_4 
REMARK    3  A    between atoms: C_6  and  N_7 
REMARK       I    between atoms: N_7  and  C_8 
REMARK    4  A    between atoms: C_8  and  C_9 
REMARK    5  A    between atoms: C_12  and  C_13 
REMARK    6  A    between atoms: C_18  and  C_19 
ROOT
HETATM    1  C   UNL     1     -42.839  56.111 -52.645  1.00  0.00     0.096 A 
HETATM    2  C   UNL     1     -43.055  56.924 -53.742  1.00  0.00     0.138 A 
HETATM    3  N   UNL     1     -43.245  58.192 -53.239  1.00  0.00    -0.240 N 
HETATM    4  C   UNL     1     -43.441  59.378 -54.057  1.00  0.00     0.221 C 
HETATM    5  C   UNL     1     -42.942  59.116 -55.492  1.00  0.00     0.066 C 
HETATM    6  C   UNL     1     -43.477  57.771 -55.994  1.00  0.00     0.118 C 
HETATM    7  N   UNL     1     -43.062  56.700 -55.084  1.00  0.00    -0.365 N 
HETATM    8  N   UNL     1     -43.263  58.242 -51.901  1.00  0.00    -0.181 NA
HETATM    9  C   UNL     1     -42.968  56.990 -51.541  1.00  0.00     0.160 A 
HETATM   10  H   UNL     1     -42.434  56.008 -55.495  1.00  0.00     0.161 HD
ENDROOT
BRANCH   1  11
HETATM   11  C   UNL     1     -42.556  54.686 -52.575  1.00  0.00     0.261 C 
HETATM   12  N   UNL     1     -41.374  54.326 -53.195  1.00  0.00    -0.323 N 
HETATM   13  H   UNL     1     -40.920  55.064 -53.721  1.00  0.00     0.169 HD
HETATM   14  O   UNL     1     -43.346  53.924 -52.030  1.00  0.00    -0.267 OA
BRANCH  12  15
HETATM   15  C   UNL     1     -40.764  53.057 -53.228  1.00  0.00     0.035 A 
HETATM   16  C   UNL     1     -40.408  52.334 -52.087  1.00  0.00     0.039 A 
HETATM   17  C   UNL     1     -39.781  51.077 -52.185  1.00  0.00    -0.028 A 
HETATM   18  C   UNL     1     -39.526  50.550 -53.457  1.00  0.00     0.010 A 
HETATM   19  C   UNL     1     -39.873  51.265 -54.602  1.00  0.00     0.003 A 
HETATM   20  C   UNL     1     -40.488  52.513 -54.487  1.00  0.00     0.029 A 
BRANCH  17  21
HETATM   21  C   UNL     1     -39.436  50.318 -50.922  1.00  0.00     0.147 C 
HETATM   22  C   UNL     1     -40.353  50.709 -49.769  1.00  0.00     0.044 C 
BRANCH  21  23
HETATM   23  O   UNL     1     -39.542  48.912 -51.145  1.00  0.00    -0.391 OA
HETATM   24  H   UNL     1     -38.704  48.518 -50.852  1.00  0.00     0.210 HD
ENDBRANCH  21  23
ENDBRANCH  17  21
ENDBRANCH  12  15
ENDBRANCH   1  11
BRANCH   4  25
HETATM   25  C   UNL     1     -42.733  60.593 -53.493  1.00  0.00     0.409 C 
HETATM   26  F   UNL     1     -41.492  60.306 -53.039  1.00  0.00    -0.169 F 
HETATM   27  F   UNL     1     -42.576  61.519 -54.480  1.00  0.00    -0.169 F 
HETATM   28  F   UNL     1     -43.418  61.212 -52.511  1.00  0.00    -0.169 F 
ENDBRANCH   4  25
BRANCH   6  29
HETATM   29  C   UNL     1     -43.030  57.452 -57.406  1.00  0.00    -0.035 A 
HETATM   30  C   UNL     1     -43.320  56.218 -58.012  1.00  0.00     0.009 A 
HETATM   31  C   UNL     1     -42.897  55.947 -59.315  1.00  0.00     0.001 A 
HETATM   32  C   UNL     1     -42.179  56.903 -60.030  1.00  0.00     0.000 A 
HETATM   33  C   UNL     1     -41.887  58.133 -59.446  1.00  0.00     0.001 A 
HETATM   34  C   UNL     1     -42.311  58.407 -58.143  1.00  0.00     0.009 A 
ENDBRANCH   6  29
TORSDOF 6
ENDMDL
MODEL 6
REMARK VINA RESULT:      -8.6      2.377      3.377
REMARK  6 active torsions:
REMARK  status: ('A' for Active; 'I' for Inactive)
REMARK    1  A    between atoms: C_2  and  O_3 
REMARK    2  A    between atoms: C_2  and  C_4 
REMARK    3  A    between atoms: C_6  and  N_7 
REMARK       I    between atoms: N_7  and  C_8 
REMARK    4  A    between atoms: C_8  and  C_9 
REMARK    5  A    between atoms: C_12  and  C_13 
REMARK    6  A    between atoms: C_18  and  C_19 
ROOT
HETATM    1  C   UNL     1     -44.035  58.553 -55.252  1.00  0.00     0.096 A 
HETATM    2  C   UNL     1     -42.970  58.016 -54.551  1.00  0.00     0.138 A 
HETATM    3  N   UNL     1     -42.612  58.969 -53.623  1.00  0.00    -0.240 N 
HETATM    4  C   UNL     1     -41.570  58.791 -52.625  1.00  0.00     0.221 C 
HETATM    5  C   UNL     1     -41.273  57.290 -52.436  1.00  0.00     0.066 C 
HETATM    6  C   UNL     1     -41.118  56.613 -53.802  1.00  0.00     0.118 C 
HETATM    7  N   UNL     1     -42.329  56.818 -54.600  1.00  0.00    -0.365 N 
HETATM    8  N   UNL     1     -43.300  60.113 -53.734  1.00  0.00    -0.181 NA
HETATM    9  C   UNL     1     -44.195  59.843 -54.689  1.00  0.00     0.160 A 
HETATM   10  H   UNL     1     -42.845  55.965 -54.823  1.00  0.00     0.161 HD
ENDROOT
BRANCH   1  11
HETATM   11  C   UNL     1     -44.831  57.984 -56.328  1.00  0.00     0.261 C 
HETATM   12  N   UNL     1     -44.074  57.502 -57.380  1.00  0.00    -0.323 N 
HETATM   13  H   UNL     1     -43.083  57.713 -57.331  1.00  0.00     0.169 HD
HETATM   14  O   UNL     1     -46.055  57.988 -56.262  1.00  0.00    -0.267 OA
BRANCH  12  15
HETATM   15  C   UNL     1     -44.518  56.811 -58.523  1.00  0.00     0.035 A 
HETATM   16  C   UNL     1     -45.701  57.114 -59.204  1.00  0.00     0.039 A 
HETATM   17  C   UNL     1     -46.103  56.374 -60.332  1.00  0.00    -0.028 A 
HETATM   18  C   UNL     1     -45.289  55.324 -60.773  1.00  0.00     0.010 A 
HETATM   19  C   UNL     1     -44.110  55.010 -60.099  1.00  0.00     0.003 A 
HETATM   20  C   UNL     1     -43.728  55.751 -58.978  1.00  0.00     0.029 A 
BRANCH  17  21
HETATM   21  C   UNL     1     -47.378  56.752 -61.054  1.00  0.00     0.147 C 
HETATM   22  C   UNL     1     -47.558  58.265 -61.111  1.00  0.00     0.044 C 
BRANCH  21  23
HETATM   23  O   UNL     1     -47.367  56.235 -62.384  1.00  0.00    -0.391 OA
HETATM   24  H   UNL     1     -47.439  55.270 -62.311  1.00  0.00     0.210 HD
ENDBRANCH  21  23
ENDBRANCH  17  21
ENDBRANCH  12  15
ENDBRANCH   1  11
BRANCH   4  25
HETATM   25  C   UNL     1     -41.940  59.401 -51.287  1.00  0.00     0.409 C 
HETATM   26  F   UNL     1     -43.199  59.091 -50.907  1.00  0.00    -0.169 F 
HETATM   27  F   UNL     1     -41.114  58.904 -50.324  1.00  0.00    -0.169 F 
HETATM   28  F   UNL     1     -41.794  60.741 -51.245  1.00  0.00    -0.169 F 
ENDBRANCH   4  25
BRANCH   6  29
HETATM   29  C   UNL     1     -40.815  55.132 -53.691  1.00  0.00    -0.035 A 
HETATM   30  C   UNL     1     -40.921  54.445 -52.470  1.00  0.00     0.009 A 
HETATM   31  C   UNL     1     -40.637  53.081 -52.392  1.00  0.00     0.001 A 
HETATM   32  C   UNL     1     -40.242  52.383 -53.532  1.00  0.00     0.000 A 
HETATM   33  C   UNL     1     -40.136  53.047 -54.751  1.00  0.00     0.001 A 
HETATM   34  C   UNL     1     -40.422  54.413 -54.832  1.00  0.00     0.009 A 
ENDBRANCH   6  29
TORSDOF 6
ENDMDL
MODEL 7
REMARK VINA RESULT:      -8.5      3.379      8.469
REMARK  6 active torsions:
REMARK  status: ('A' for Active; 'I' for Inactive)
REMARK    1  A    between atoms: C_2  and  O_3 
REMARK    2  A    between atoms: C_2  and  C_4 
REMARK    3  A    between atoms: C_6  and  N_7 
REMARK       I    between atoms: N_7  and  C_8 
REMARK    4  A    between atoms: C_8  and  C_9 
REMARK    5  A    between atoms: C_12  and  C_13 
REMARK    6  A    between atoms: C_18  and  C_19 
ROOT
HETATM    1  C   UNL     1     -42.501  56.985 -54.641  1.00  0.00     0.096 A 
HETATM    2  C   UNL     1     -43.201  57.472 -55.730  1.00  0.00     0.138 A 
HETATM    3  N   UNL     1     -43.000  58.835 -55.727  1.00  0.00    -0.240 N 
HETATM    4  C   UNL     1     -43.507  59.741 -56.744  1.00  0.00     0.221 C 
HETATM    5  C   UNL     1     -43.861  58.953 -58.021  1.00  0.00     0.066 C 
HETATM    6  C   UNL     1     -44.680  57.710 -57.658  1.00  0.00     0.118 C 
HETATM    7  N   UNL     1     -43.931  56.879 -56.712  1.00  0.00    -0.365 N 
HETATM    8  N   UNL     1     -42.306  59.273 -54.669  1.00  0.00    -0.181 NA
HETATM    9  C   UNL     1     -41.962  58.147 -54.037  1.00  0.00     0.160 A 
HETATM   10  H   UNL     1     -43.668  55.958 -57.066  1.00  0.00     0.161 HD
ENDROOT
BRANCH   1  11
HETATM   11  C   UNL     1     -42.333  55.619 -54.170  1.00  0.00     0.261 C 
HETATM   12  N   UNL     1     -41.159  55.416 -53.468  1.00  0.00    -0.323 N 
HETATM   13  H   UNL     1     -40.512  56.196 -53.477  1.00  0.00     0.169 HD
HETATM   14  O   UNL     1     -43.176  54.767 -54.428  1.00  0.00    -0.267 OA
BRANCH  12  15
HETATM   15  C   UNL     1     -40.738  54.250 -52.802  1.00  0.00     0.035 A 
HETATM   16  C   UNL     1     -40.375  53.069 -53.455  1.00  0.00     0.039 A 
HETATM   17  C   UNL     1     -39.980  51.927 -52.731  1.00  0.00    -0.028 A 
HETATM   18  C   UNL     1     -39.947  51.995 -51.333  1.00  0.00     0.010 A 
HETATM   19  C   UNL     1     -40.311  53.166 -50.672  1.00  0.00     0.003 A 
HETATM   20  C   UNL     1     -40.707  54.288 -51.404  1.00  0.00     0.029 A 
BRANCH  17  21
HETATM   21  C   UNL     1     -39.571  50.677 -53.480  1.00  0.00     0.147 C 
HETATM   22  C   UNL     1     -39.586  49.453 -52.571  1.00  0.00     0.044 C 
BRANCH  21  23
HETATM   23  O   UNL     1     -40.449  50.449 -54.582  1.00  0.00    -0.391 OA
HETATM   24  H   UNL     1     -40.922  49.622 -54.398  1.00  0.00     0.210 HD
ENDBRANCH  21  23
ENDBRANCH  17  21
ENDBRANCH  12  15
ENDBRANCH   1  11
BRANCH   4  25
HETATM   25  C   UNL     1     -42.518  60.836 -57.089  1.00  0.00     0.409 C 
HETATM   26  F   UNL     1     -41.260  60.367 -57.248  1.00  0.00    -0.169 F 
HETATM   27  F   UNL     1     -42.871  61.402 -58.277  1.00  0.00    -0.169 F 
HETATM   28  F   UNL     1     -42.492  61.844 -56.193  1.00  0.00    -0.169 F 
ENDBRANCH   4  25
BRANCH   6  29
HETATM   29  C   UNL     1     -45.071  56.890 -58.871  1.00  0.00    -0.035 A 
HETATM   30  C   UNL     1     -46.332  57.022 -59.477  1.00  0.00     0.009 A 
HETATM   31  C   UNL     1     -46.670  56.255 -60.594  1.00  0.00     0.001 A 
HETATM   32  C   UNL     1     -45.755  55.347 -61.120  1.00  0.00     0.000 A 
HETATM   33  C   UNL     1     -44.499  55.207 -60.535  1.00  0.00     0.001 A 
HETATM   34  C   UNL     1     -44.158  55.975 -59.418  1.00  0.00     0.009 A 
ENDBRANCH   6  29
TORSDOF 6
ENDMDL
MODEL 8
REMARK VINA RESULT:      -8.5      4.974      7.955
REMARK  6 active torsions:
REMARK  status: ('A' for Active; 'I' for Inactive)
REMARK    1  A    between atoms: C_2  and  O_3 
REMARK    2  A    between atoms: C_2  and  C_4 
REMARK    3  A    between atoms: C_6  and  N_7 
REMARK       I    between atoms: N_7  and  C_8 
REMARK    4  A    between atoms: C_8  and  C_9 
REMARK    5  A    between atoms: C_12  and  C_13 
REMARK    6  A    between atoms: C_18  and  C_19 
ROOT
HETATM    1  C   UNL     1     -43.689  58.414 -53.524  1.00  0.00     0.096 A 
HETATM    2  C   UNL     1     -43.362  57.165 -54.022  1.00  0.00     0.138 A 
HETATM    3  N   UNL     1     -43.715  57.187 -55.354  1.00  0.00    -0.240 N 
HETATM    4  C   UNL     1     -43.483  56.092 -56.282  1.00  0.00     0.221 C 
HETATM    5  C   UNL     1     -42.402  55.147 -55.721  1.00  0.00     0.066 C 
HETATM    6  C   UNL     1     -42.699  54.826 -54.253  1.00  0.00     0.118 C 
HETATM    7  N   UNL     1     -42.773  56.067 -53.477  1.00  0.00    -0.365 N 
HETATM    8  N   UNL     1     -44.331  58.316 -55.728  1.00  0.00    -0.181 NA
HETATM    9  C   UNL     1     -44.271  59.078 -54.632  1.00  0.00     0.160 A 
HETATM   10  H   UNL     1     -42.051  56.170 -52.762  1.00  0.00     0.161 HD
ENDROOT
BRANCH   1  11
HETATM   11  C   UNL     1     -43.515  58.965 -52.189  1.00  0.00     0.261 C 
HETATM   12  N   UNL     1     -44.196  60.151 -51.989  1.00  0.00    -0.323 N 
HETATM   13  H   UNL     1     -44.622  60.550 -52.818  1.00  0.00     0.169 HD
HETATM   14  O   UNL     1     -42.797  58.398 -51.374  1.00  0.00    -0.267 OA
BRANCH  12  15
HETATM   15  C   UNL     1     -44.317  60.890 -50.797  1.00  0.00     0.035 A 
HETATM   16  C   UNL     1     -44.940  60.408 -49.642  1.00  0.00     0.039 A 
HETATM   17  C   UNL     1     -45.048  61.203 -48.485  1.00  0.00    -0.028 A 
HETATM   18  C   UNL     1     -44.509  62.495 -48.504  1.00  0.00     0.010 A 
HETATM   19  C   UNL     1     -43.890  62.988 -49.651  1.00  0.00     0.003 A 
HETATM   20  C   UNL     1     -43.797  62.188 -50.793  1.00  0.00     0.029 A 
BRANCH  17  21
HETATM   21  C   UNL     1     -45.707  60.631 -47.249  1.00  0.00     0.147 C 
HETATM   22  C   UNL     1     -46.757  61.583 -46.687  1.00  0.00     0.044 C 
BRANCH  21  23
HETATM   23  O   UNL     1     -46.327  59.382 -47.550  1.00  0.00    -0.391 OA
HETATM   24  H   UNL     1     -45.694  58.876 -48.084  1.00  0.00     0.210 HD
ENDBRANCH  21  23
ENDBRANCH  17  21
ENDBRANCH  12  15
ENDBRANCH   1  11
BRANCH   4  25
HETATM   25  C   UNL     1     -43.063  56.577 -57.655  1.00  0.00     0.409 C 
HETATM   26  F   UNL     1     -42.084  57.507 -57.599  1.00  0.00    -0.169 F 
HETATM   27  F   UNL     1     -42.558  55.530 -58.365  1.00  0.00    -0.169 F 
HETATM   28  F   UNL     1     -44.081  57.067 -58.391  1.00  0.00    -0.169 F 
ENDBRANCH   4  25
BRANCH   6  29
HETATM   29  C   UNL     1     -41.676  53.892 -53.638  1.00  0.00    -0.035 A 
HETATM   30  C   UNL     1     -40.990  52.938 -54.408  1.00  0.00     0.009 A 
HETATM   31  C   UNL     1     -40.052  52.088 -53.820  1.00  0.00     0.001 A 
HETATM   32  C   UNL     1     -39.787  52.177 -52.455  1.00  0.00     0.000 A 
HETATM   33  C   UNL     1     -40.456  53.120 -51.678  1.00  0.00     0.001 A 
HETATM   34  C   UNL     1     -41.393  53.973 -52.265  1.00  0.00     0.009 A 
ENDBRANCH   6  29
TORSDOF 6
ENDMDL
MODEL 9
REMARK VINA RESULT:      -8.4      3.104      3.708
REMARK  6 active torsions:
REMARK  status: ('A' for Active; 'I' for Inactive)
REMARK    1  A    between atoms: C_2  and  O_3 
REMARK    2  A    between atoms: C_2  and  C_4 
REMARK    3  A    between atoms: C_6  and  N_7 
REMARK       I    between atoms: N_7  and  C_8 
REMARK    4  A    between atoms: C_8  and  C_9 
REMARK    5  A    between atoms: C_12  and  C_13 
REMARK    6  A    between atoms: C_18  and  C_19 
ROOT
HETATM    1  C   UNL     1     -41.794  56.298 -51.998  1.00  0.00     0.096 A 
HETATM    2  C   UNL     1     -41.028  55.186 -51.699  1.00  0.00     0.138 A 
HETATM    3  N   UNL     1     -40.684  55.314 -50.371  1.00  0.00    -0.240 N 
HETATM    4  C   UNL     1     -39.929  54.323 -49.621  1.00  0.00     0.221 C 
HETATM    5  C   UNL     1     -39.989  52.961 -50.340  1.00  0.00     0.066 C 
HETATM    6  C   UNL     1     -39.696  53.144 -51.832  1.00  0.00     0.118 C 
HETATM    7  N   UNL     1     -40.649  54.093 -52.414  1.00  0.00    -0.365 N 
HETATM    8  N   UNL     1     -41.085  56.466 -49.820  1.00  0.00    -0.181 NA
HETATM    9  C   UNL     1     -41.800  57.040 -50.792  1.00  0.00     0.160 A 
HETATM   10  H   UNL     1     -41.271  53.697 -53.121  1.00  0.00     0.161 HD
ENDROOT
BRANCH   1  11
HETATM   11  C   UNL     1     -42.449  56.678 -53.240  1.00  0.00     0.261 C 
HETATM   12  N   UNL     1     -42.670  58.038 -53.355  1.00  0.00    -0.323 N 
HETATM   13  H   UNL     1     -42.468  58.580 -52.522  1.00  0.00     0.169 HD
HETATM   14  O   UNL     1     -42.775  55.822 -54.055  1.00  0.00    -0.267 OA
BRANCH  12  15
HETATM   15  C   UNL     1     -43.191  58.741 -54.458  1.00  0.00     0.035 A 
HETATM   16  C   UNL     1     -42.417  59.182 -55.535  1.00  0.00     0.039 A 
HETATM   17  C   UNL     1     -42.993  59.899 -56.601  1.00  0.00    -0.028 A 
HETATM   18  C   UNL     1     -44.368  60.160 -56.572  1.00  0.00     0.010 A 
HETATM   19  C   UNL     1     -45.148  59.730 -55.500  1.00  0.00     0.003 A 
HETATM   20  C   UNL     1     -44.560  59.025 -54.448  1.00  0.00     0.029 A 
BRANCH  17  21
HETATM   21  C   UNL     1     -42.122  60.335 -57.760  1.00  0.00     0.147 C 
HETATM   22  C   UNL     1     -42.948  60.991 -58.861  1.00  0.00     0.044 C 
BRANCH  21  23
HETATM   23  O   UNL     1     -41.127  61.256 -57.314  1.00  0.00    -0.391 OA
HETATM   24  H   UNL     1     -41.582  62.093 -57.127  1.00  0.00     0.210 HD
ENDBRANCH  21  23
ENDBRANCH  17  21
ENDBRANCH  12  15
ENDBRANCH   1  11
BRANCH   4  25
HETATM   25  C   UNL     1     -40.434  54.164 -48.201  1.00  0.00     0.409 C 
HETATM   26  F   UNL     1     -41.120  53.014 -48.021  1.00  0.00    -0.169 F 
HETATM   27  F   UNL     1     -39.371  54.115 -47.350  1.00  0.00    -0.169 F 
HETATM   28  F   UNL     1     -41.198  55.192 -47.780  1.00  0.00    -0.169 F 
ENDBRANCH   4  25
BRANCH   6  29
HETATM   29  C   UNL     1     -39.731  51.838 -52.602  1.00  0.00    -0.035 A 
HETATM   30  C   UNL     1     -39.519  50.602 -51.969  1.00  0.00     0.009 A 
HETATM   31  C   UNL     1     -39.555  49.412 -52.698  1.00  0.00     0.001 A 
HETATM   32  C   UNL     1     -39.804  49.440 -54.069  1.00  0.00     0.000 A 
HETATM   33  C   UNL     1     -40.021  50.657 -54.711  1.00  0.00     0.001 A 
HETATM   34  C   UNL     1     -39.987  51.848 -53.982  1.00  0.00     0.009 A 
ENDBRANCH   6  29
TORSDOF 6
ENDMDL
MODEL 10
REMARK VINA RESULT:      -8.4      3.692      8.824
REMARK  6 active torsions:
REMARK  status: ('A' for Active; 'I' for Inactive)
REMARK    1  A    between atoms: C_2  and  O_3 
REMARK    2  A    between atoms: C_2  and  C_4 
REMARK    3  A    between atoms: C_6  and  N_7 
REMARK       I    between atoms: N_7  and  C_8 
REMARK    4  A    between atoms: C_8  and  C_9 
REMARK    5  A    between atoms: C_12  and  C_13 
REMARK    6  A    between atoms: C_18  and  C_19 
ROOT
HETATM    1  C   UNL     1     -42.384  57.335 -55.031  1.00  0.00     0.096 A 
HETATM    2  C   UNL     1     -43.128  57.831 -56.086  1.00  0.00     0.138 A 
HETATM    3  N   UNL     1     -42.761  59.152 -56.218  1.00  0.00    -0.240 N 
HETATM    4  C   UNL     1     -43.255  60.041 -57.256  1.00  0.00     0.221 C 
HETATM    5  C   UNL     1     -43.834  59.217 -58.423  1.00  0.00     0.066 C 
HETATM    6  C   UNL     1     -44.758  58.121 -57.881  1.00  0.00     0.118 C 
HETATM    7  N   UNL     1     -44.023  57.269 -56.942  1.00  0.00    -0.365 N 
HETATM    8  N   UNL     1     -41.912  59.570 -55.270  1.00  0.00    -0.181 NA
HETATM    9  C   UNL     1     -41.646  58.457 -54.581  1.00  0.00     0.160 A 
HETATM   10  H   UNL     1     -43.914  56.298 -57.240  1.00  0.00     0.161 HD
ENDROOT
BRANCH   1  11
HETATM   11  C   UNL     1     -42.338  55.997 -54.463  1.00  0.00     0.261 C 
HETATM   12  N   UNL     1     -41.056  55.495 -54.332  1.00  0.00    -0.323 N 
HETATM   13  H   UNL     1     -40.327  56.058 -54.756  1.00  0.00     0.169 HD
HETATM   14  O   UNL     1     -43.375  55.411 -54.176  1.00  0.00    -0.267 OA
BRANCH  12  15
HETATM   15  C   UNL     1     -40.656  54.283 -53.739  1.00  0.00     0.035 A 
HETATM   16  C   UNL     1     -40.560  54.087 -52.358  1.00  0.00     0.039 A 
HETATM   17  C   UNL     1     -40.134  52.856 -51.824  1.00  0.00    -0.028 A 
HETATM   18  C   UNL     1     -39.814  51.815 -52.704  1.00  0.00     0.010 A 
HETATM   19  C   UNL     1     -39.902  52.001 -54.083  1.00  0.00     0.003 A 
HETATM   20  C   UNL     1     -40.320  53.231 -54.596  1.00  0.00     0.029 A 
BRANCH  17  21
HETATM   21  C   UNL     1     -40.069  52.680 -50.322  1.00  0.00     0.147 C 
HETATM   22  C   UNL     1     -40.929  53.712 -49.603  1.00  0.00     0.044 C 
BRANCH  21  23
HETATM   23  O   UNL     1     -40.508  51.372 -49.957  1.00  0.00    -0.391 OA
HETATM   24  H   UNL     1     -40.673  51.388 -49.001  1.00  0.00     0.210 HD
ENDBRANCH  21  23
ENDBRANCH  17  21
ENDBRANCH  12  15
ENDBRANCH   1  11
BRANCH   4  25
HETATM   25  C   UNL     1     -42.179  60.970 -57.783  1.00  0.00     0.409 C 
HETATM   26  F   UNL     1     -40.997  60.341 -57.967  1.00  0.00    -0.169 F 
HETATM   27  F   UNL     1     -42.556  61.445 -59.003  1.00  0.00    -0.169 F 
HETATM   28  F   UNL     1     -41.975  62.055 -57.010  1.00  0.00    -0.169 F 
ENDBRANCH   4  25
BRANCH   6  29
HETATM   29  C   UNL     1     -45.371  57.274 -58.978  1.00  0.00    -0.035 A 
HETATM   30  C   UNL     1     -44.659  56.228 -59.589  1.00  0.00     0.009 A 
HETATM   31  C   UNL     1     -45.245  55.462 -60.598  1.00  0.00     0.001 A 
HETATM   32  C   UNL     1     -46.547  55.729 -61.012  1.00  0.00     0.000 A 
HETATM   33  C   UNL     1     -47.269  56.760 -60.415  1.00  0.00     0.001 A 
HETATM   34  C   UNL     1     -46.685  57.527 -59.403  1.00  0.00     0.009 A 
ENDBRANCH   6  29
TORSDOF 6
ENDMDL
