MODEL 1
REMARK VINA RESULT:      -8.6      0.000      0.000
REMARK  5 active torsions:
REMARK  status: ('A' for Active; 'I' for Inactive)
REMARK    1  A    between atoms: C_5  and  C_6 
REMARK    2  A    between atoms: C_10  and  C_11 
REMARK       I    between atoms: C_11  and  N_12 
REMARK    3  A    between atoms: N_12  and  N_13 
REMARK       I    between atoms: N_13  and  C_14 
REMARK       I    between atoms: C_14  and  N_15 
REMARK    4  A    between atoms: N_15  and  C_16 
REMARK    5  A    between atoms: C_16  and  C_17 
ROOT
HETATM    1  C   UNL     1     -44.145  57.317 -50.885  1.00  0.00     0.288 C 
HETATM    2  N   UNL     1     -43.736  58.631 -50.915  1.00  0.00    -0.261 N 
HETATM    3  O   UNL     1     -45.316  56.999 -50.685  1.00  0.00    -0.264 OA
HETATM    4  H   UNL     1     -42.771  58.926 -51.041  1.00  0.00     0.190 HD
ENDROOT
BRANCH   2   5
HETATM    5  N   UNL     1     -44.666  59.657 -50.690  1.00  0.00    -0.249 N 
HETATM    6  C   UNL     1     -44.208  60.747 -49.982  1.00  0.00     0.334 C 
HETATM    7  N   UNL     1     -45.201  61.650 -49.709  1.00  0.00    -0.341 N 
HETATM    8  O   UNL     1     -43.031  60.884 -49.664  1.00  0.00    -0.246 OA
HETATM    9  H   UNL     1     -46.045  61.577 -50.256  1.00  0.00     0.164 HD
HETATM   10  H   UNL     1     -45.629  59.353 -50.571  1.00  0.00     0.192 HD
BRANCH   7  11
HETATM   11  C   UNL     1     -44.895  62.935 -49.107  1.00  0.00     0.129 C 
BRANCH  11  12
HETATM   12  C   UNL     1     -46.050  63.473 -48.241  1.00  0.00     0.004 C 
HETATM   13  C   UNL     1     -46.696  62.418 -47.320  1.00  0.00     0.010 C 
HETATM   14  C   UNL     1     -45.959  62.114 -46.004  1.00  0.00    -0.018 C 
HETATM   15  C   UNL     1     -45.521  63.400 -45.293  1.00  0.00     0.004 C 
HETATM   16  C   UNL     1     -44.797  61.135 -46.172  1.00  0.00     0.010 C 
HETATM   17  C   UNL     1     -44.783  64.368 -46.212  1.00  0.00     0.001 C 
HETATM   18  C   UNL     1     -45.620  64.710 -47.440  1.00  0.00     0.006 C 
ENDBRANCH  11  12
ENDBRANCH   7  11
ENDBRANCH   2   5
BRANCH   1  19
HETATM   19  C   UNL     1     -43.103  56.351 -51.097  1.00  0.00     0.121 A 
HETATM   20  N   UNL     1     -41.913  56.410 -50.428  1.00  0.00    -0.272 N 
HETATM   21  N   UNL     1     -41.045  55.445 -50.762  1.00  0.00    -0.174 NA
HETATM   22  H   UNL     1     -41.639  57.096 -49.732  1.00  0.00     0.189 HD
HETATM   23  C   UNL     1     -41.687  54.711 -51.687  1.00  0.00     0.089 A 
HETATM   24  C   UNL     1     -42.986  55.248 -51.919  1.00  0.00     0.071 A 
BRANCH  23  25
HETATM   25  C   UNL     1     -41.058  53.553 -52.334  1.00  0.00    -0.006 A 
HETATM   26  C   UNL     1     -40.189  52.710 -51.629  1.00  0.00     0.014 A 
HETATM   27  C   UNL     1     -39.617  51.591 -52.247  1.00  0.00     0.007 A 
HETATM   28  C   UNL     1     -39.893  51.301 -53.586  1.00  0.00    -0.062 A 
HETATM   29  C   UNL     1     -39.317  50.081 -54.241  1.00  0.00     0.048 C 
HETATM   30  C   UNL     1     -40.760  52.138 -54.295  1.00  0.00     0.007 A 
HETATM   31  C   UNL     1     -41.331  53.256 -53.676  1.00  0.00     0.014 A 
ENDBRANCH  23  25
ENDBRANCH   1  19
TORSDOF 5
ENDMDL
MODEL 2
REMARK VINA RESULT:      -8.4      1.942     10.646
REMARK  5 active torsions:
REMARK  status: ('A' for Active; 'I' for Inactive)
REMARK    1  A    between atoms: C_5  and  C_6 
REMARK    2  A    between atoms: C_10  and  C_11 
REMARK       I    between atoms: C_11  and  N_12 
REMARK    3  A    between atoms: N_12  and  N_13 
REMARK       I    between atoms: N_13  and  C_14 
REMARK       I    between atoms: C_14  and  N_15 
REMARK    4  A    between atoms: N_15  and  C_16 
REMARK    5  A    between atoms: C_16  and  C_17 
ROOT
HETATM    1  C   UNL     1     -45.803  60.087 -50.426  1.00  0.00     0.288 C 
HETATM    2  N   UNL     1     -45.274  58.827 -50.267  1.00  0.00    -0.261 N 
HETATM    3  O   UNL     1     -46.299  60.462 -51.487  1.00  0.00    -0.264 OA
HETATM    4  H   UNL     1     -44.824  58.500 -49.416  1.00  0.00     0.190 HD
ENDROOT
BRANCH   2   5
HETATM    5  N   UNL     1     -45.270  57.931 -51.347  1.00  0.00    -0.249 N 
HETATM    6  C   UNL     1     -44.034  57.485 -51.760  1.00  0.00     0.334 C 
HETATM    7  N   UNL     1     -44.106  56.704 -52.884  1.00  0.00    -0.341 N 
HETATM    8  O   UNL     1     -42.998  57.748 -51.157  1.00  0.00    -0.246 OA
HETATM    9  H   UNL     1     -45.011  56.325 -53.117  1.00  0.00     0.164 HD
HETATM   10  H   UNL     1     -46.004  58.076 -52.035  1.00  0.00     0.192 HD
BRANCH   7  11
HETATM   11  C   UNL     1     -42.934  56.013 -53.388  1.00  0.00     0.129 C 
BRANCH  11  12
HETATM   12  C   UNL     1     -43.075  54.481 -53.317  1.00  0.00     0.004 C 
HETATM   13  C   UNL     1     -42.461  53.732 -54.518  1.00  0.00     0.010 C 
HETATM   14  C   UNL     1     -40.939  53.511 -54.483  1.00  0.00    -0.018 C 
HETATM   15  C   UNL     1     -40.473  53.009 -53.111  1.00  0.00     0.004 C 
HETATM   16  C   UNL     1     -40.139  54.731 -54.941  1.00  0.00     0.010 C 
HETATM   17  C   UNL     1     -41.009  53.847 -51.955  1.00  0.00     0.001 C 
HETATM   18  C   UNL     1     -42.532  53.929 -51.992  1.00  0.00     0.006 C 
ENDBRANCH  11  12
ENDBRANCH   7  11
ENDBRANCH   2   5
BRANCH   1  19
HETATM   19  C   UNL     1     -45.725  60.930 -49.265  1.00  0.00     0.121 A 
HETATM   20  N   UNL     1     -46.254  62.189 -49.246  1.00  0.00    -0.272 N 
HETATM   21  N   UNL     1     -46.073  62.846 -48.092  1.00  0.00    -0.174 NA
HETATM   22  H   UNL     1     -46.748  62.655 -50.002  1.00  0.00     0.189 HD
HETATM   23  C   UNL     1     -45.401  61.985 -47.309  1.00  0.00     0.089 A 
HETATM   24  C   UNL     1     -45.170  60.767 -48.011  1.00  0.00     0.071 A 
BRANCH  23  25
HETATM   25  C   UNL     1     -44.981  62.337 -45.947  1.00  0.00    -0.006 A 
HETATM   26  C   UNL     1     -44.428  61.379 -45.087  1.00  0.00     0.014 A 
HETATM   27  C   UNL     1     -44.004  61.731 -43.799  1.00  0.00     0.007 A 
HETATM   28  C   UNL     1     -44.136  63.045 -43.342  1.00  0.00    -0.062 A 
HETATM   29  C   UNL     1     -43.644  63.437 -41.982  1.00  0.00     0.048 C 
HETATM   30  C   UNL     1     -44.686  64.006 -44.197  1.00  0.00     0.007 A 
HETATM   31  C   UNL     1     -45.110  63.653 -45.483  1.00  0.00     0.014 A 
ENDBRANCH  23  25
ENDBRANCH   1  19
TORSDOF 5
ENDMDL
MODEL 3
REMARK VINA RESULT:      -8.2      1.532      2.157
REMARK  5 active torsions:
REMARK  status: ('A' for Active; 'I' for Inactive)
REMARK    1  A    between atoms: C_5  and  C_6 
REMARK    2  A    between atoms: C_10  and  C_11 
REMARK       I    between atoms: C_11  and  N_12 
REMARK    3  A    between atoms: N_12  and  N_13 
REMARK       I    between atoms: N_13  and  C_14 
REMARK       I    between atoms: C_14  and  N_15 
REMARK    4  A    between atoms: N_15  and  C_16 
REMARK    5  A    between atoms: C_16  and  C_17 
ROOT
HETATM    1  C   UNL     1     -42.144  58.874 -50.758  1.00  0.00     0.288 C 
HETATM    2  N   UNL     1     -43.424  59.339 -50.556  1.00  0.00    -0.261 N 
HETATM    3  O   UNL     1     -41.156  59.463 -50.323  1.00  0.00    -0.264 OA
HETATM    4  H   UNL     1     -44.258  58.896 -50.933  1.00  0.00     0.190 HD
ENDROOT
BRANCH   2   5
HETATM    5  N   UNL     1     -43.629  60.535 -49.852  1.00  0.00    -0.249 N 
HETATM    6  C   UNL     1     -44.911  60.761 -49.401  1.00  0.00     0.334 C 
HETATM    7  N   UNL     1     -45.055  61.994 -48.823  1.00  0.00    -0.341 N 
HETATM    8  O   UNL     1     -45.804  59.924 -49.493  1.00  0.00    -0.246 OA
HETATM    9  H   UNL     1     -44.208  62.468 -48.546  1.00  0.00     0.164 HD
HETATM   10  H   UNL     1     -43.061  61.321 -50.156  1.00  0.00     0.192 HD
BRANCH   7  11
HETATM   11  C   UNL     1     -46.287  62.363 -48.149  1.00  0.00     0.129 C 
BRANCH  11  12
HETATM   12  C   UNL     1     -46.315  61.908 -46.678  1.00  0.00     0.004 C 
HETATM   13  C   UNL     1     -45.071  62.317 -45.864  1.00  0.00     0.010 C 
HETATM   14  C   UNL     1     -45.044  63.760 -45.331  1.00  0.00    -0.018 C 
HETATM   15  C   UNL     1     -46.381  64.151 -44.693  1.00  0.00     0.004 C 
HETATM   16  C   UNL     1     -44.594  64.782 -46.376  1.00  0.00     0.010 C 
HETATM   17  C   UNL     1     -47.582  63.835 -45.580  1.00  0.00     0.001 C 
HETATM   18  C   UNL     1     -47.603  62.362 -45.976  1.00  0.00     0.006 C 
ENDBRANCH  11  12
ENDBRANCH   7  11
ENDBRANCH   2   5
BRANCH   1  19
HETATM   19  C   UNL     1     -42.052  57.658 -51.518  1.00  0.00     0.121 A 
HETATM   20  N   UNL     1     -43.003  57.301 -52.432  1.00  0.00    -0.272 N 
HETATM   21  N   UNL     1     -42.773  56.126 -53.035  1.00  0.00    -0.174 NA
HETATM   22  H   UNL     1     -43.837  57.824 -52.681  1.00  0.00     0.189 HD
HETATM   23  C   UNL     1     -41.619  55.687 -52.504  1.00  0.00     0.089 A 
HETATM   24  C   UNL     1     -41.134  56.627 -51.550  1.00  0.00     0.071 A 
BRANCH  23  25
HETATM   25  C   UNL     1     -41.026  54.401 -52.888  1.00  0.00    -0.006 A 
HETATM   26  C   UNL     1     -40.656  53.454 -51.923  1.00  0.00     0.014 A 
HETATM   27  C   UNL     1     -40.117  52.218 -52.301  1.00  0.00     0.007 A 
HETATM   28  C   UNL     1     -39.928  51.908 -53.651  1.00  0.00    -0.062 A 
HETATM   29  C   UNL     1     -39.393  50.570 -54.063  1.00  0.00     0.048 C 
HETATM   30  C   UNL     1     -40.298  52.848 -54.619  1.00  0.00     0.007 A 
HETATM   31  C   UNL     1     -40.835  54.083 -54.240  1.00  0.00     0.014 A 
ENDBRANCH  23  25
ENDBRANCH   1  19
TORSDOF 5
ENDMDL
MODEL 4
REMARK VINA RESULT:      -8.1     19.840     21.505
REMARK  5 active torsions:
REMARK  status: ('A' for Active; 'I' for Inactive)
REMARK    1  A    between atoms: C_5  and  C_6 
REMARK    2  A    between atoms: C_10  and  C_11 
REMARK       I    between atoms: C_11  and  N_12 
REMARK    3  A    between atoms: N_12  and  N_13 
REMARK       I    between atoms: N_13  and  C_14 
REMARK       I    between atoms: C_14  and  N_15 
REMARK    4  A    between atoms: N_15  and  C_16 
REMARK    5  A    between atoms: C_16  and  C_17 
ROOT
HETATM    1  C   UNL     1     -34.849  41.702 -56.538  1.00  0.00     0.288 C 
HETATM    2  N   UNL     1     -33.816  40.820 -56.313  1.00  0.00    -0.261 N 
HETATM    3  O   UNL     1     -35.016  42.706 -55.847  1.00  0.00    -0.264 OA
HETATM    4  H   UNL     1     -33.673  39.963 -56.842  1.00  0.00     0.190 HD
ENDROOT
BRANCH   2   5
HETATM    5  N   UNL     1     -32.926  41.044 -55.253  1.00  0.00    -0.249 N 
HETATM    6  C   UNL     1     -33.052  40.205 -54.167  1.00  0.00     0.334 C 
HETATM    7  N   UNL     1     -32.227  40.556 -53.133  1.00  0.00    -0.341 N 
HETATM    8  O   UNL     1     -33.809  39.238 -54.160  1.00  0.00    -0.246 OA
HETATM    9  H   UNL     1     -31.459  41.173 -53.353  1.00  0.00     0.164 HD
HETATM   10  H   UNL     1     -32.660  42.013 -55.106  1.00  0.00     0.192 HD
BRANCH   7  11
HETATM   11  C   UNL     1     -32.098  39.710 -51.960  1.00  0.00     0.129 C 
BRANCH  11  12
HETATM   12  C   UNL     1     -32.597  40.399 -50.676  1.00  0.00     0.004 C 
HETATM   13  C   UNL     1     -34.133  40.451 -50.540  1.00  0.00     0.010 C 
HETATM   14  C   UNL     1     -34.818  39.174 -50.023  1.00  0.00    -0.018 C 
HETATM   15  C   UNL     1     -34.088  38.595 -48.805  1.00  0.00     0.004 C 
HETATM   16  C   UNL     1     -35.033  38.119 -51.109  1.00  0.00     0.010 C 
HETATM   17  C   UNL     1     -32.585  38.453 -49.022  1.00  0.00     0.001 C 
HETATM   18  C   UNL     1     -31.956  39.784 -49.424  1.00  0.00     0.006 C 
ENDBRANCH  11  12
ENDBRANCH   7  11
ENDBRANCH   2   5
BRANCH   1  19
HETATM   19  C   UNL     1     -35.717  41.357 -57.630  1.00  0.00     0.121 A 
HETATM   20  N   UNL     1     -36.322  42.307 -58.403  1.00  0.00    -0.272 N 
HETATM   21  N   UNL     1     -37.115  41.812 -59.363  1.00  0.00    -0.174 NA
HETATM   22  H   UNL     1     -36.230  43.314 -58.314  1.00  0.00     0.189 HD
HETATM   23  C   UNL     1     -37.029  40.478 -59.226  1.00  0.00     0.089 A 
HETATM   24  C   UNL     1     -36.154  40.155 -58.150  1.00  0.00     0.071 A 
BRANCH  23  25
HETATM   25  C   UNL     1     -37.781  39.558 -60.088  1.00  0.00    -0.006 A 
HETATM   26  C   UNL     1     -38.886  38.846 -59.600  1.00  0.00     0.014 A 
HETATM   27  C   UNL     1     -39.615  37.992 -60.438  1.00  0.00     0.007 A 
HETATM   28  C   UNL     1     -39.247  37.825 -61.775  1.00  0.00    -0.062 A 
HETATM   29  C   UNL     1     -40.049  36.946 -62.687  1.00  0.00     0.048 C 
HETATM   30  C   UNL     1     -38.146  38.533 -62.268  1.00  0.00     0.007 A 
HETATM   31  C   UNL     1     -37.418  39.385 -61.430  1.00  0.00     0.014 A 
ENDBRANCH  23  25
ENDBRANCH   1  19
TORSDOF 5
ENDMDL
MODEL 5
REMARK VINA RESULT:      -8.0      6.742      8.525
REMARK  5 active torsions:
REMARK  status: ('A' for Active; 'I' for Inactive)
REMARK    1  A    between atoms: C_5  and  C_6 
REMARK    2  A    between atoms: C_10  and  C_11 
REMARK       I    between atoms: C_11  and  N_12 
REMARK    3  A    between atoms: N_12  and  N_13 
REMARK       I    between atoms: N_13  and  C_14 
REMARK       I    between atoms: C_14  and  N_15 
REMARK    4  A    between atoms: N_15  and  C_16 
REMARK    5  A    between atoms: C_16  and  C_17 
ROOT
HETATM    1  C   UNL     1     -41.198  58.729 -53.631  1.00  0.00     0.288 C 
HETATM    2  N   UNL     1     -42.003  59.041 -54.703  1.00  0.00    -0.261 N 
HETATM    3  O   UNL     1     -40.522  59.576 -53.049  1.00  0.00    -0.264 OA
HETATM    4  H   UNL     1     -42.544  58.359 -55.228  1.00  0.00     0.190 HD
ENDROOT
BRANCH   2   5
HETATM    5  N   UNL     1     -42.053  60.361 -55.177  1.00  0.00    -0.249 N 
HETATM    6  C   UNL     1     -42.064  60.513 -56.546  1.00  0.00     0.334 C 
HETATM    7  N   UNL     1     -42.001  61.826 -56.930  1.00  0.00    -0.341 N 
HETATM    8  O   UNL     1     -42.150  59.563 -57.319  1.00  0.00    -0.246 OA
HETATM    9  H   UNL     1     -42.224  62.516 -56.227  1.00  0.00     0.164 HD
HETATM   10  H   UNL     1     -41.571  61.048 -54.603  1.00  0.00     0.192 HD
BRANCH   7  11
HETATM   11  C   UNL     1     -42.156  62.206 -58.322  1.00  0.00     0.129 C 
BRANCH  11  12
HETATM   12  C   UNL     1     -41.026  61.657 -59.214  1.00  0.00     0.004 C 
HETATM   13  C   UNL     1     -41.468  61.299 -60.648  1.00  0.00     0.010 C 
HETATM   14  C   UNL     1     -41.575  62.467 -61.643  1.00  0.00    -0.018 C 
HETATM   15  C   UNL     1     -40.355  63.391 -61.563  1.00  0.00     0.004 C 
HETATM   16  C   UNL     1     -42.885  63.247 -61.524  1.00  0.00     0.010 C 
HETATM   17  C   UNL     1     -40.020  63.815 -60.137  1.00  0.00     0.001 C 
HETATM   18  C   UNL     1     -39.818  62.603 -59.233  1.00  0.00     0.006 C 
ENDBRANCH  11  12
ENDBRANCH   7  11
ENDBRANCH   2   5
BRANCH   1  19
HETATM   19  C   UNL     1     -41.202  57.343 -53.252  1.00  0.00     0.121 A 
HETATM   20  N   UNL     1     -41.787  56.910 -52.096  1.00  0.00    -0.272 N 
HETATM   21  N   UNL     1     -41.679  55.590 -51.885  1.00  0.00    -0.174 NA
HETATM   22  H   UNL     1     -42.272  57.477 -51.408  1.00  0.00     0.189 HD
HETATM   23  C   UNL     1     -41.000  55.128 -52.948  1.00  0.00     0.089 A 
HETATM   24  C   UNL     1     -40.687  56.200 -53.831  1.00  0.00     0.071 A 
BRANCH  23  25
HETATM   25  C   UNL     1     -40.648  53.709 -53.089  1.00  0.00    -0.006 A 
HETATM   26  C   UNL     1     -40.825  53.034 -54.304  1.00  0.00     0.014 A 
HETATM   27  C   UNL     1     -40.460  51.688 -54.436  1.00  0.00     0.007 A 
HETATM   28  C   UNL     1     -39.921  50.988 -53.353  1.00  0.00    -0.062 A 
HETATM   29  C   UNL     1     -39.488  49.561 -53.500  1.00  0.00     0.048 C 
HETATM   30  C   UNL     1     -39.741  51.657 -52.138  1.00  0.00     0.007 A 
HETATM   31  C   UNL     1     -40.107  53.001 -52.007  1.00  0.00     0.014 A 
ENDBRANCH  23  25
ENDBRANCH   1  19
TORSDOF 5
ENDMDL
MODEL 6
REMARK VINA RESULT:      -7.7     19.527     21.746
REMARK  5 active torsions:
REMARK  status: ('A' for Active; 'I' for Inactive)
REMARK    1  A    between atoms: C_5  and  C_6 
REMARK    2  A    between atoms: C_10  and  C_11 
REMARK       I    between atoms: C_11  and  N_12 
REMARK    3  A    between atoms: N_12  and  N_13 
REMARK       I    between atoms: N_13  and  C_14 
REMARK       I    between atoms: C_14  and  N_15 
REMARK    4  A    between atoms: N_15  and  C_16 
REMARK    5  A    between atoms: C_16  and  C_17 
ROOT
HETATM    1  C   UNL     1     -34.627  41.166 -52.231  1.00  0.00     0.288 C 
HETATM    2  N   UNL     1     -34.122  41.489 -53.470  1.00  0.00    -0.261 N 
HETATM    3  O   UNL     1     -35.821  41.279 -51.959  1.00  0.00    -0.264 OA
HETATM    4  H   UNL     1     -33.136  41.442 -53.715  1.00  0.00     0.190 HD
ENDROOT
BRANCH   2   5
HETATM    5  N   UNL     1     -34.978  41.987 -54.464  1.00  0.00    -0.249 N 
HETATM    6  C   UNL     1     -34.874  41.397 -55.705  1.00  0.00     0.334 C 
HETATM    7  N   UNL     1     -35.659  42.010 -56.646  1.00  0.00    -0.341 N 
HETATM    8  O   UNL     1     -34.169  40.415 -55.915  1.00  0.00    -0.246 OA
HETATM    9  H   UNL     1     -36.397  42.607 -56.303  1.00  0.00     0.164 HD
HETATM   10  H   UNL     1     -35.189  42.979 -54.399  1.00  0.00     0.192 HD
BRANCH   7  11
HETATM   11  C   UNL     1     -35.808  41.446 -57.975  1.00  0.00     0.129 C 
BRANCH  11  12
HETATM   12  C   UNL     1     -37.265  41.483 -58.472  1.00  0.00     0.004 C 
HETATM   13  C   UNL     1     -37.440  41.082 -59.952  1.00  0.00     0.010 C 
HETATM   14  C   UNL     1     -37.460  39.574 -60.256  1.00  0.00    -0.018 C 
HETATM   15  C   UNL     1     -38.362  38.813 -59.277  1.00  0.00     0.004 C 
HETATM   16  C   UNL     1     -36.064  38.954 -60.339  1.00  0.00     0.010 C 
HETATM   17  C   UNL     1     -38.079  39.152 -57.817  1.00  0.00     0.001 C 
HETATM   18  C   UNL     1     -38.187  40.653 -57.568  1.00  0.00     0.006 C 
ENDBRANCH  11  12
ENDBRANCH   7  11
ENDBRANCH   2   5
BRANCH   1  19
HETATM   19  C   UNL     1     -33.655  40.695 -51.283  1.00  0.00     0.121 A 
HETATM   20  N   UNL     1     -32.332  40.580 -51.599  1.00  0.00    -0.272 N 
HETATM   21  N   UNL     1     -31.568  40.104 -50.605  1.00  0.00    -0.174 NA
HETATM   22  H   UNL     1     -31.894  40.809 -52.486  1.00  0.00     0.189 HD
HETATM   23  C   UNL     1     -32.419  39.902 -49.585  1.00  0.00     0.089 A 
HETATM   24  C   UNL     1     -33.739  40.267 -49.973  1.00  0.00     0.071 A 
BRANCH  23  25
HETATM   25  C   UNL     1     -31.973  39.354 -48.298  1.00  0.00    -0.006 A 
HETATM   26  C   UNL     1     -30.987  39.997 -47.537  1.00  0.00     0.014 A 
HETATM   27  C   UNL     1     -30.589  39.483 -46.297  1.00  0.00     0.007 A 
HETATM   28  C   UNL     1     -31.161  38.308 -45.799  1.00  0.00    -0.062 A 
HETATM   29  C   UNL     1     -30.770  37.777 -44.452  1.00  0.00     0.048 C 
HETATM   30  C   UNL     1     -32.146  37.663 -46.553  1.00  0.00     0.007 A 
HETATM   31  C   UNL     1     -32.542  38.178 -47.792  1.00  0.00     0.014 A 
ENDBRANCH  23  25
ENDBRANCH   1  19
TORSDOF 5
ENDMDL
MODEL 7
REMARK VINA RESULT:      -7.6      7.024      8.770
REMARK  5 active torsions:
REMARK  status: ('A' for Active; 'I' for Inactive)
REMARK    1  A    between atoms: C_5  and  C_6 
REMARK    2  A    between atoms: C_10  and  C_11 
REMARK       I    between atoms: C_11  and  N_12 
REMARK    3  A    between atoms: N_12  and  N_13 
REMARK       I    between atoms: N_13  and  C_14 
REMARK       I    between atoms: C_14  and  N_15 
REMARK    4  A    between atoms: N_15  and  C_16 
REMARK    5  A    between atoms: C_16  and  C_17 
ROOT
HETATM    1  C   UNL     1     -41.438  58.464 -54.444  1.00  0.00     0.288 C 
HETATM    2  N   UNL     1     -42.196  58.459 -55.594  1.00  0.00    -0.261 N 
HETATM    3  O   UNL     1     -40.926  59.490 -54.001  1.00  0.00    -0.264 OA
HETATM    4  H   UNL     1     -42.602  57.623 -56.006  1.00  0.00     0.190 HD
ENDROOT
BRANCH   2   5
HETATM    5  N   UNL     1     -42.385  59.650 -56.310  1.00  0.00    -0.249 N 
HETATM    6  C   UNL     1     -42.027  59.621 -57.640  1.00  0.00     0.334 C 
HETATM    7  N   UNL     1     -42.136  60.847 -58.241  1.00  0.00    -0.341 N 
HETATM    8  O   UNL     1     -41.678  58.592 -58.211  1.00  0.00    -0.246 OA
HETATM    9  H   UNL     1     -42.697  61.538 -57.765  1.00  0.00     0.164 HD
HETATM   10  H   UNL     1     -42.251  60.505 -55.776  1.00  0.00     0.192 HD
BRANCH   7  11
HETATM   11  C   UNL     1     -41.954  60.995 -59.673  1.00  0.00     0.129 C 
BRANCH  11  12
HETATM   12  C   UNL     1     -42.384  62.384 -60.184  1.00  0.00     0.004 C 
HETATM   13  C   UNL     1     -41.707  63.564 -59.457  1.00  0.00     0.010 C 
HETATM   14  C   UNL     1     -40.284  63.926 -59.916  1.00  0.00    -0.018 C 
HETATM   15  C   UNL     1     -40.179  63.973 -61.444  1.00  0.00     0.004 C 
HETATM   16  C   UNL     1     -39.204  63.036 -59.301  1.00  0.00     0.010 C 
HETATM   17  C   UNL     1     -40.757  62.734 -62.121  1.00  0.00     0.001 C 
HETATM   18  C   UNL     1     -42.206  62.501 -61.704  1.00  0.00     0.006 C 
ENDBRANCH  11  12
ENDBRANCH   7  11
ENDBRANCH   2   5
BRANCH   1  19
HETATM   19  C   UNL     1     -41.286  57.183 -53.811  1.00  0.00     0.121 A 
HETATM   20  N   UNL     1     -41.509  57.004 -52.475  1.00  0.00    -0.272 N 
HETATM   21  N   UNL     1     -41.300  55.752 -52.045  1.00  0.00    -0.174 NA
HETATM   22  H   UNL     1     -41.803  57.709 -51.806  1.00  0.00     0.189 HD
HETATM   23  C   UNL     1     -40.928  55.070 -53.141  1.00  0.00     0.089 A 
HETATM   24  C   UNL     1     -40.914  55.936 -54.272  1.00  0.00     0.071 A 
BRANCH  23  25
HETATM   25  C   UNL     1     -40.579  53.645 -53.089  1.00  0.00    -0.006 A 
HETATM   26  C   UNL     1     -40.653  52.837 -54.232  1.00  0.00     0.014 A 
HETATM   27  C   UNL     1     -40.290  51.485 -54.178  1.00  0.00     0.007 A 
HETATM   28  C   UNL     1     -39.858  50.913 -52.979  1.00  0.00    -0.062 A 
HETATM   29  C   UNL     1     -39.427  49.478 -52.925  1.00  0.00     0.048 C 
HETATM   30  C   UNL     1     -39.781  51.714 -51.835  1.00  0.00     0.007 A 
HETATM   31  C   UNL     1     -40.144  53.064 -51.890  1.00  0.00     0.014 A 
ENDBRANCH  23  25
ENDBRANCH   1  19
TORSDOF 5
ENDMDL
MODEL 8
REMARK VINA RESULT:      -7.6      7.872      9.576
REMARK  5 active torsions:
REMARK  status: ('A' for Active; 'I' for Inactive)
REMARK    1  A    between atoms: C_5  and  C_6 
REMARK    2  A    between atoms: C_10  and  C_11 
REMARK       I    between atoms: C_11  and  N_12 
REMARK    3  A    between atoms: N_12  and  N_13 
REMARK       I    between atoms: N_13  and  C_14 
REMARK       I    between atoms: C_14  and  N_15 
REMARK    4  A    between atoms: N_15  and  C_16 
REMARK    5  A    between atoms: C_16  and  C_17 
ROOT
HETATM    1  C   UNL     1     -43.007  57.114 -57.759  1.00  0.00     0.288 C 
HETATM    2  N   UNL     1     -41.883  57.859 -58.035  1.00  0.00    -0.261 N 
HETATM    3  O   UNL     1     -44.088  57.330 -58.304  1.00  0.00    -0.264 OA
HETATM    4  H   UNL     1     -40.985  57.729 -57.575  1.00  0.00     0.190 HD
ENDROOT
BRANCH   2   5
HETATM    5  N   UNL     1     -41.957  58.919 -58.951  1.00  0.00    -0.249 N 
HETATM    6  C   UNL     1     -41.627  60.165 -58.464  1.00  0.00     0.334 C 
HETATM    7  N   UNL     1     -41.830  61.159 -59.384  1.00  0.00    -0.341 N 
HETATM    8  O   UNL     1     -41.177  60.339 -57.335  1.00  0.00    -0.246 OA
HETATM    9  H   UNL     1     -41.922  60.875 -60.348  1.00  0.00     0.164 HD
HETATM   10  H   UNL     1     -42.684  58.835 -59.656  1.00  0.00     0.192 HD
BRANCH   7  11
HETATM   11  C   UNL     1     -41.400  62.520 -59.119  1.00  0.00     0.129 C 
BRANCH  11  12
HETATM   12  C   UNL     1     -41.606  63.451 -60.329  1.00  0.00     0.004 C 
HETATM   13  C   UNL     1     -40.832  64.782 -60.243  1.00  0.00     0.010 C 
HETATM   14  C   UNL     1     -39.345  64.737 -60.636  1.00  0.00    -0.018 C 
HETATM   15  C   UNL     1     -39.129  63.955 -61.936  1.00  0.00     0.004 C 
HETATM   16  C   UNL     1     -38.437  64.232 -59.514  1.00  0.00     0.010 C 
HETATM   17  C   UNL     1     -39.817  62.594 -61.936  1.00  0.00     0.001 C 
HETATM   18  C   UNL     1     -41.309  62.729 -61.650  1.00  0.00     0.006 C 
ENDBRANCH  11  12
ENDBRANCH   7  11
ENDBRANCH   2   5
BRANCH   1  19
HETATM   19  C   UNL     1     -42.823  56.075 -56.783  1.00  0.00     0.121 A 
HETATM   20  N   UNL     1     -43.481  54.880 -56.864  1.00  0.00    -0.272 N 
HETATM   21  N   UNL     1     -43.210  54.034 -55.860  1.00  0.00    -0.174 NA
HETATM   22  H   UNL     1     -44.134  54.591 -57.585  1.00  0.00     0.189 HD
HETATM   23  C   UNL     1     -42.331  54.692 -55.084  1.00  0.00     0.089 A 
HETATM   24  C   UNL     1     -42.060  55.976 -55.636  1.00  0.00     0.071 A 
BRANCH  23  25
HETATM   25  C   UNL     1     -41.797  54.107 -53.848  1.00  0.00    -0.006 A 
HETATM   26  C   UNL     1     -42.345  54.425 -52.598  1.00  0.00     0.014 A 
HETATM   27  C   UNL     1     -41.847  53.841 -51.427  1.00  0.00     0.007 A 
HETATM   28  C   UNL     1     -40.783  52.936 -51.482  1.00  0.00    -0.062 A 
HETATM   29  C   UNL     1     -40.274  52.274 -50.237  1.00  0.00     0.048 C 
HETATM   30  C   UNL     1     -40.233  52.613 -52.727  1.00  0.00     0.007 A 
HETATM   31  C   UNL     1     -40.731  53.199 -53.896  1.00  0.00     0.014 A 
ENDBRANCH  23  25
ENDBRANCH   1  19
TORSDOF 5
ENDMDL
MODEL 9
REMARK VINA RESULT:      -7.6      2.260      2.508
REMARK  5 active torsions:
REMARK  status: ('A' for Active; 'I' for Inactive)
REMARK    1  A    between atoms: C_5  and  C_6 
REMARK    2  A    between atoms: C_10  and  C_11 
REMARK       I    between atoms: C_11  and  N_12 
REMARK    3  A    between atoms: N_12  and  N_13 
REMARK       I    between atoms: N_13  and  C_14 
REMARK       I    between atoms: C_14  and  N_15 
REMARK    4  A    between atoms: N_15  and  C_16 
REMARK    5  A    between atoms: C_16  and  C_17 
ROOT
HETATM    1  C   UNL     1     -41.807  58.451 -53.756  1.00  0.00     0.288 C 
HETATM    2  N   UNL     1     -43.028  58.688 -53.166  1.00  0.00    -0.261 N 
HETATM    3  O   UNL     1     -41.041  59.361 -54.069  1.00  0.00    -0.264 OA
HETATM    4  H   UNL     1     -43.698  57.961 -52.930  1.00  0.00     0.190 HD
ENDROOT
BRANCH   2   5
HETATM    5  N   UNL     1     -43.441  60.007 -52.923  1.00  0.00    -0.249 N 
HETATM    6  C   UNL     1     -43.415  60.417 -51.608  1.00  0.00     0.334 C 
HETATM    7  N   UNL     1     -43.936  61.672 -51.439  1.00  0.00    -0.341 N 
HETATM    8  O   UNL     1     -42.948  59.727 -50.706  1.00  0.00    -0.246 OA
HETATM    9  H   UNL     1     -44.018  62.245 -52.265  1.00  0.00     0.164 HD
HETATM   10  H   UNL     1     -44.169  60.355 -53.540  1.00  0.00     0.192 HD
BRANCH   7  11
HETATM   11  C   UNL     1     -43.860  62.345 -50.155  1.00  0.00     0.129 C 
BRANCH  11  12
HETATM   12  C   UNL     1     -45.160  63.091 -49.800  1.00  0.00     0.004 C 
HETATM   13  C   UNL     1     -46.139  62.279 -48.928  1.00  0.00     0.010 C 
HETATM   14  C   UNL     1     -45.844  62.243 -47.418  1.00  0.00    -0.018 C 
HETATM   15  C   UNL     1     -45.511  63.638 -46.875  1.00  0.00     0.004 C 
HETATM   16  C   UNL     1     -44.779  61.216 -47.033  1.00  0.00     0.010 C 
HETATM   17  C   UNL     1     -44.454  64.363 -47.701  1.00  0.00     0.001 C 
HETATM   18  C   UNL     1     -44.866  64.458 -49.167  1.00  0.00     0.006 C 
ENDBRANCH  11  12
ENDBRANCH   7  11
ENDBRANCH   2   5
BRANCH   1  19
HETATM   19  C   UNL     1     -41.502  57.066 -53.986  1.00  0.00     0.121 A 
HETATM   20  N   UNL     1     -41.662  56.482 -55.210  1.00  0.00    -0.272 N 
HETATM   21  N   UNL     1     -41.352  55.178 -55.243  1.00  0.00    -0.174 NA
HETATM   22  H   UNL     1     -41.986  56.929 -56.062  1.00  0.00     0.189 HD
HETATM   23  C   UNL     1     -40.964  54.886 -53.990  1.00  0.00     0.089 A 
HETATM   24  C   UNL     1     -41.040  56.049 -53.173  1.00  0.00     0.071 A 
BRANCH  23  25
HETATM   25  C   UNL     1     -40.561  53.530 -53.598  1.00  0.00    -0.006 A 
HETATM   26  C   UNL     1     -40.262  53.218 -52.264  1.00  0.00     0.014 A 
HETATM   27  C   UNL     1     -39.906  51.915 -51.895  1.00  0.00     0.007 A 
HETATM   28  C   UNL     1     -39.830  50.900 -52.854  1.00  0.00    -0.062 A 
HETATM   29  C   UNL     1     -39.492  49.495 -52.458  1.00  0.00     0.048 C 
HETATM   30  C   UNL     1     -40.129  51.205 -54.186  1.00  0.00     0.007 A 
HETATM   31  C   UNL     1     -40.483  52.508 -54.553  1.00  0.00     0.014 A 
ENDBRANCH  23  25
ENDBRANCH   1  19
TORSDOF 5
ENDMDL
MODEL 10
REMARK VINA RESULT:      -7.6      6.355      8.215
REMARK  5 active torsions:
REMARK  status: ('A' for Active; 'I' for Inactive)
REMARK    1  A    between atoms: C_5  and  C_6 
REMARK    2  A    between atoms: C_10  and  C_11 
REMARK       I    between atoms: C_11  and  N_12 
REMARK    3  A    between atoms: N_12  and  N_13 
REMARK       I    between atoms: N_13  and  C_14 
REMARK       I    between atoms: C_14  and  N_15 
REMARK    4  A    between atoms: N_15  and  C_16 
REMARK    5  A    between atoms: C_16  and  C_17 
ROOT
HETATM    1  C   UNL     1     -41.342  58.702 -53.960  1.00  0.00     0.288 C 
HETATM    2  N   UNL     1     -42.240  58.952 -54.973  1.00  0.00    -0.261 N 
HETATM    3  O   UNL     1     -40.626  59.582 -53.486  1.00  0.00    -0.264 OA
HETATM    4  H   UNL     1     -42.818  58.240 -55.412  1.00  0.00     0.190 HD
ENDROOT
BRANCH   2   5
HETATM    5  N   UNL     1     -42.343  60.244 -55.510  1.00  0.00    -0.249 N 
HETATM    6  C   UNL     1     -41.843  60.413 -56.783  1.00  0.00     0.334 C 
HETATM    7  N   UNL     1     -41.879  61.720 -57.193  1.00  0.00    -0.341 N 
HETATM    8  O   UNL     1     -41.440  59.478 -57.468  1.00  0.00    -0.246 OA
HETATM    9  H   UNL     1     -42.484  62.341 -56.677  1.00  0.00     0.164 HD
HETATM   10  H   UNL     1     -42.263  61.002 -54.838  1.00  0.00     0.192 HD
BRANCH   7  11
HETATM   11  C   UNL     1     -41.541  62.084 -58.556  1.00  0.00     0.129 C 
BRANCH  11  12
HETATM   12  C   UNL     1     -42.734  62.690 -59.320  1.00  0.00     0.004 C 
HETATM   13  C   UNL     1     -42.629  62.574 -60.854  1.00  0.00     0.010 C 
HETATM   14  C   UNL     1     -43.029  61.221 -61.468  1.00  0.00    -0.018 C 
HETATM   15  C   UNL     1     -44.343  60.699 -60.877  1.00  0.00     0.004 C 
HETATM   16  C   UNL     1     -41.919  60.172 -61.396  1.00  0.00     0.010 C 
HETATM   17  C   UNL     1     -44.363  60.723 -59.352  1.00  0.00     0.001 C 
HETATM   18  C   UNL     1     -44.068  62.121 -58.817  1.00  0.00     0.006 C 
ENDBRANCH  11  12
ENDBRANCH   7  11
ENDBRANCH   2   5
BRANCH   1  19
HETATM   19  C   UNL     1     -41.299  57.338 -53.509  1.00  0.00     0.121 A 
HETATM   20  N   UNL     1     -41.885  56.943 -52.340  1.00  0.00    -0.272 N 
HETATM   21  N   UNL     1     -41.731  55.642 -52.060  1.00  0.00    -0.174 NA
HETATM   22  H   UNL     1     -42.402  57.527 -51.689  1.00  0.00     0.189 HD
HETATM   23  C   UNL     1     -41.019  55.151 -53.088  1.00  0.00     0.089 A 
HETATM   24  C   UNL     1     -40.734  56.187 -54.022  1.00  0.00     0.071 A 
BRANCH  23  25
HETATM   25  C   UNL     1     -40.612  53.742 -53.149  1.00  0.00    -0.006 A 
HETATM   26  C   UNL     1     -40.039  53.102 -52.042  1.00  0.00     0.014 A 
HETATM   27  C   UNL     1     -39.681  51.749 -52.101  1.00  0.00     0.007 A 
HETATM   28  C   UNL     1     -39.878  51.013 -53.273  1.00  0.00    -0.062 A 
HETATM   29  C   UNL     1     -39.537  49.554 -53.329  1.00  0.00     0.048 C 
HETATM   30  C   UNL     1     -40.451  51.645 -54.381  1.00  0.00     0.007 A 
HETATM   31  C   UNL     1     -40.807  52.997 -54.320  1.00  0.00     0.014 A 
ENDBRANCH  23  25
ENDBRANCH   1  19
TORSDOF 5
ENDMDL
