MODEL 1
REMARK VINA RESULT:      -7.4      0.000      0.000
REMARK  10 active torsions:
REMARK  status: ('A' for Active; 'I' for Inactive)
REMARK    1  A    between atoms: C_2  and  C_3 
REMARK    2  A    between atoms: C_3  and  N_4 
REMARK    3  A    between atoms: C_10  and  C_11 
REMARK    4  A    between atoms: C_11  and  C_12 
REMARK    5  A    between atoms: C_12  and  S_13 
REMARK    6  A    between atoms: S_13  and  C_14 
REMARK    7  A    between atoms: N_15  and  C_16 
REMARK    8  A    between atoms: C_23  and  C_24 
REMARK    9  A    between atoms: C_24  and  N_25 
REMARK   10  A    between atoms: C_33  and  N_34 
ROOT
HETATM    1  S   UNL     1     -44.341  58.531 -53.799  1.00  0.00    -0.082 SA
ENDROOT
BRANCH   1   2
HETATM    2  C   UNL     1     -43.285  59.601 -54.833  1.00  0.00     0.166 C 
BRANCH   2   3
HETATM    3  C   UNL     1     -43.888  59.702 -56.227  1.00  0.00     0.177 C 
HETATM    4  O   UNL     1     -44.770  60.540 -56.471  1.00  0.00    -0.291 OA
BRANCH   3   5
HETATM    5  C   UNL     1     -43.432  58.756 -57.301  1.00  0.00     0.117 C 
HETATM    6  C   UNL     1     -42.100  58.910 -57.923  1.00  0.00     0.266 C 
HETATM    7  N   UNL     1     -41.669  57.887 -58.700  1.00  0.00    -0.274 N 
HETATM    8  O   UNL     1     -41.432  59.929 -57.778  1.00  0.00    -0.267 OA
HETATM    9  C   UNL     1     -42.499  56.986 -59.286  1.00  0.00     0.330 C 
HETATM   10  H   UNL     1     -40.773  58.000 -59.154  1.00  0.00     0.173 HD
HETATM   11  N   UNL     1     -43.795  56.931 -58.781  1.00  0.00    -0.289 N 
HETATM   12  O   UNL     1     -42.089  56.308 -60.224  1.00  0.00    -0.246 OA
HETATM   13  C   UNL     1     -44.255  57.785 -57.772  1.00  0.00     0.103 C 
BRANCH  11  14
HETATM   14  C   UNL     1     -44.683  55.940 -59.402  1.00  0.00     0.135 C 
BRANCH  14  15
HETATM   15  C   UNL     1     -45.518  56.569 -60.522  1.00  0.00     0.016 C 
HETATM   16  C   UNL     1     -46.991  56.220 -60.390  1.00  0.00     0.006 C 
ENDBRANCH  14  15
ENDBRANCH  11  14
BRANCH  13  17
HETATM   17  N   UNL     1     -45.546  57.624 -57.279  1.00  0.00    -0.287 NA
HETATM   18  H   UNL     1     -46.251  57.585 -58.023  1.00  0.00     0.125 HD
HETATM   19  H   UNL     1     -45.639  56.815 -56.672  1.00  0.00     0.125 HD
ENDBRANCH  13  17
ENDBRANCH   3   5
ENDBRANCH   2   3
ENDBRANCH   1   2
BRANCH   1  20
HETATM   20  C   UNL     1     -43.496  57.026 -53.962  1.00  0.00     0.196 A 
HETATM   21  N   UNL     1     -42.202  56.769 -53.539  1.00  0.00    -0.274 N 
HETATM   22  C   UNL     1     -41.940  55.503 -54.063  1.00  0.00     0.166 A 
HETATM   23  N   UNL     1     -42.992  55.065 -54.728  1.00  0.00    -0.131 NA
HETATM   24  N   UNL     1     -43.961  56.015 -54.659  1.00  0.00    -0.122 NA
BRANCH  21  25
HETATM   25  C   UNL     1     -41.360  57.536 -52.685  1.00  0.00     0.043 A 
HETATM   26  C   UNL     1     -40.315  58.300 -53.223  1.00  0.00     0.032 A 
HETATM   27  C   UNL     1     -39.512  59.086 -52.391  1.00  0.00     0.026 A 
HETATM   28  C   UNL     1     -39.745  59.110 -51.019  1.00  0.00     0.034 A 
HETATM   29 CL   UNL     1     -38.766  60.086 -50.000  1.00  0.00    -0.084 Cl
HETATM   30  C   UNL     1     -40.772  58.346 -50.472  1.00  0.00     0.026 A 
HETATM   31  C   UNL     1     -41.580  57.558 -51.301  1.00  0.00     0.032 A 
ENDBRANCH  21  25
BRANCH  22  32
HETATM   32  C   UNL     1     -40.767  54.617 -53.776  1.00  0.00     0.254 C 
HETATM   33  C   UNL     1     -40.164  54.150 -55.108  1.00  0.00     0.049 C 
BRANCH  32  34
HETATM   34  N   UNL     1     -41.236  53.385 -52.968  1.00  0.00    -0.068 N 
HETATM   35  H   UNL     1     -42.052  53.031 -53.496  1.00  0.00     0.279 HD
HETATM   36  C   UNL     1     -40.243  52.269 -52.849  1.00  0.00     0.270 C 
HETATM   37  C   UNL     1     -41.774  53.765 -51.609  1.00  0.00     0.270 C 
ENDBRANCH  32  34
ENDBRANCH  22  32
ENDBRANCH   1  20
TORSDOF 10
ENDMDL
MODEL 2
REMARK VINA RESULT:      -6.8      1.610      2.141
REMARK  10 active torsions:
REMARK  status: ('A' for Active; 'I' for Inactive)
REMARK    1  A    between atoms: C_2  and  C_3 
REMARK    2  A    between atoms: C_3  and  N_4 
REMARK    3  A    between atoms: C_10  and  C_11 
REMARK    4  A    between atoms: C_11  and  C_12 
REMARK    5  A    between atoms: C_12  and  S_13 
REMARK    6  A    between atoms: S_13  and  C_14 
REMARK    7  A    between atoms: N_15  and  C_16 
REMARK    8  A    between atoms: C_23  and  C_24 
REMARK    9  A    between atoms: C_24  and  N_25 
REMARK   10  A    between atoms: C_33  and  N_34 
ROOT
HETATM    1  S   UNL     1     -44.739  57.593 -53.259  1.00  0.00    -0.082 SA
ENDROOT
BRANCH   1   2
HETATM    2  C   UNL     1     -45.188  57.948 -54.990  1.00  0.00     0.166 C 
BRANCH   2   3
HETATM    3  C   UNL     1     -44.035  58.674 -55.667  1.00  0.00     0.177 C 
HETATM    4  O   UNL     1     -43.464  59.617 -55.097  1.00  0.00    -0.291 OA
BRANCH   3   5
HETATM    5  C   UNL     1     -43.610  58.262 -57.049  1.00  0.00     0.117 C 
HETATM    6  C   UNL     1     -42.602  57.199 -57.240  1.00  0.00     0.266 C 
HETATM    7  N   UNL     1     -42.453  56.721 -58.499  1.00  0.00    -0.274 N 
HETATM    8  O   UNL     1     -41.905  56.794 -56.315  1.00  0.00    -0.267 OA
HETATM    9  C   UNL     1     -42.808  57.413 -59.613  1.00  0.00     0.330 C 
HETATM   10  H   UNL     1     -41.743  56.016 -58.643  1.00  0.00     0.173 HD
HETATM   11  N   UNL     1     -43.659  58.495 -59.414  1.00  0.00    -0.289 N 
HETATM   12  O   UNL     1     -42.349  57.079 -60.702  1.00  0.00    -0.246 OA
HETATM   13  C   UNL     1     -44.089  58.902 -58.146  1.00  0.00     0.103 C 
BRANCH  11  14
HETATM   14  C   UNL     1     -44.059  59.227 -60.623  1.00  0.00     0.135 C 
BRANCH  14  15
HETATM   15  C   UNL     1     -43.285  60.542 -60.756  1.00  0.00     0.016 C 
HETATM   16  C   UNL     1     -41.989  60.358 -61.527  1.00  0.00     0.006 C 
ENDBRANCH  14  15
ENDBRANCH  11  14
BRANCH  13  17
HETATM   17  N   UNL     1     -44.990  59.957 -58.037  1.00  0.00    -0.287 NA
HETATM   18  H   UNL     1     -44.905  60.630 -58.807  1.00  0.00     0.125 HD
HETATM   19  H   UNL     1     -45.953  59.646 -57.955  1.00  0.00     0.125 HD
ENDBRANCH  13  17
ENDBRANCH   3   5
ENDBRANCH   2   3
ENDBRANCH   1   2
BRANCH   1  20
HETATM   20  C   UNL     1     -43.683  56.238 -53.493  1.00  0.00     0.196 A 
HETATM   21  N   UNL     1     -42.321  56.214 -53.236  1.00  0.00    -0.274 N 
HETATM   22  C   UNL     1     -41.920  54.985 -53.758  1.00  0.00     0.166 A 
HETATM   23  N   UNL     1     -42.959  54.352 -54.269  1.00  0.00    -0.131 NA
HETATM   24  N   UNL     1     -44.057  55.134 -54.097  1.00  0.00    -0.122 NA
BRANCH  21  25
HETATM   25  C   UNL     1     -41.519  57.146 -52.519  1.00  0.00     0.043 A 
HETATM   26  C   UNL     1     -41.490  57.122 -51.118  1.00  0.00     0.032 A 
HETATM   27  C   UNL     1     -40.672  58.009 -50.412  1.00  0.00     0.026 A 
HETATM   28  C   UNL     1     -39.883  58.926 -51.100  1.00  0.00     0.034 A 
HETATM   29 CL   UNL     1     -38.868  60.006 -50.232  1.00  0.00    -0.084 Cl
HETATM   30  C   UNL     1     -39.912  58.966 -52.491  1.00  0.00     0.026 A 
HETATM   31  C   UNL     1     -40.729  58.080 -53.203  1.00  0.00     0.032 A 
ENDBRANCH  21  25
BRANCH  22  32
HETATM   32  C   UNL     1     -40.589  54.314 -53.606  1.00  0.00     0.254 C 
HETATM   33  C   UNL     1     -40.041  53.982 -55.000  1.00  0.00     0.049 C 
BRANCH  32  34
HETATM   34  N   UNL     1     -40.760  53.006 -52.798  1.00  0.00    -0.068 N 
HETATM   35  H   UNL     1     -41.780  52.834 -52.807  1.00  0.00     0.279 HD
HETATM   36  C   UNL     1     -40.082  51.797 -53.369  1.00  0.00     0.270 C 
HETATM   37  C   UNL     1     -40.397  53.182 -51.343  1.00  0.00     0.270 C 
ENDBRANCH  32  34
ENDBRANCH  22  32
ENDBRANCH   1  20
TORSDOF 10
ENDMDL
MODEL 3
REMARK VINA RESULT:      -6.8      2.830      4.870
REMARK  10 active torsions:
REMARK  status: ('A' for Active; 'I' for Inactive)
REMARK    1  A    between atoms: C_2  and  C_3 
REMARK    2  A    between atoms: C_3  and  N_4 
REMARK    3  A    between atoms: C_10  and  C_11 
REMARK    4  A    between atoms: C_11  and  C_12 
REMARK    5  A    between atoms: C_12  and  S_13 
REMARK    6  A    between atoms: S_13  and  C_14 
REMARK    7  A    between atoms: N_15  and  C_16 
REMARK    8  A    between atoms: C_23  and  C_24 
REMARK    9  A    between atoms: C_24  and  N_25 
REMARK   10  A    between atoms: C_33  and  N_34 
ROOT
HETATM    1  S   UNL     1     -43.135  56.543 -56.817  1.00  0.00    -0.082 SA
ENDROOT
BRANCH   1   2
HETATM    2  C   UNL     1     -42.370  57.609 -58.082  1.00  0.00     0.166 C 
BRANCH   2   3
HETATM    3  C   UNL     1     -42.752  57.099 -59.465  1.00  0.00     0.177 C 
HETATM    4  O   UNL     1     -41.876  56.856 -60.310  1.00  0.00    -0.291 OA
BRANCH   3   5
HETATM    5  C   UNL     1     -44.203  56.921 -59.812  1.00  0.00     0.117 C 
HETATM    6  C   UNL     1     -44.807  55.573 -59.853  1.00  0.00     0.266 C 
HETATM    7  N   UNL     1     -46.158  55.513 -59.934  1.00  0.00    -0.274 N 
HETATM    8  O   UNL     1     -44.120  54.556 -59.855  1.00  0.00    -0.267 OA
HETATM    9  C   UNL     1     -46.929  56.526 -60.410  1.00  0.00     0.330 C 
HETATM   10  H   UNL     1     -46.576  54.594 -59.995  1.00  0.00     0.173 HD
HETATM   11  N   UNL     1     -46.316  57.772 -60.489  1.00  0.00    -0.289 N 
HETATM   12  O   UNL     1     -48.081  56.292 -60.764  1.00  0.00    -0.246 OA
HETATM   13  C   UNL     1     -44.972  57.983 -60.162  1.00  0.00     0.103 C 
BRANCH  11  14
HETATM   14  C   UNL     1     -47.160  58.870 -60.982  1.00  0.00     0.135 C 
BRANCH  14  15
HETATM   15  C   UNL     1     -47.803  59.638 -59.824  1.00  0.00     0.016 C 
HETATM   16  C   UNL     1     -49.034  60.408 -60.273  1.00  0.00     0.006 C 
ENDBRANCH  14  15
ENDBRANCH  11  14
BRANCH  13  17
HETATM   17  N   UNL     1     -44.453  59.273 -60.209  1.00  0.00    -0.287 NA
HETATM   18  H   UNL     1     -45.169  59.992 -60.063  1.00  0.00     0.125 HD
HETATM   19  H   UNL     1     -43.685  59.413 -59.560  1.00  0.00     0.125 HD
ENDBRANCH  13  17
ENDBRANCH   3   5
ENDBRANCH   2   3
ENDBRANCH   1   2
BRANCH   1  20
HETATM   20  C   UNL     1     -42.574  57.331 -55.378  1.00  0.00     0.196 A 
HETATM   21  N   UNL     1     -42.007  56.708 -54.277  1.00  0.00    -0.274 N 
HETATM   22  C   UNL     1     -41.909  57.740 -53.344  1.00  0.00     0.166 A 
HETATM   23  N   UNL     1     -42.375  58.861 -53.859  1.00  0.00    -0.131 NA
HETATM   24  N   UNL     1     -42.784  58.603 -55.129  1.00  0.00    -0.122 NA
BRANCH  21  25
HETATM   25  C   UNL     1     -41.527  55.376 -54.139  1.00  0.00     0.043 A 
HETATM   26  C   UNL     1     -40.423  54.942 -54.885  1.00  0.00     0.032 A 
HETATM   27  C   UNL     1     -39.924  53.646 -54.722  1.00  0.00     0.026 A 
HETATM   28  C   UNL     1     -40.527  52.777 -53.817  1.00  0.00     0.034 A 
HETATM   29 CL   UNL     1     -39.905  51.189 -53.607  1.00  0.00    -0.084 Cl
HETATM   30  C   UNL     1     -41.631  53.194 -53.079  1.00  0.00     0.026 A 
HETATM   31  C   UNL     1     -42.134  54.490 -53.238  1.00  0.00     0.032 A 
ENDBRANCH  21  25
BRANCH  22  32
HETATM   32  C   UNL     1     -41.196  57.718 -52.026  1.00  0.00     0.254 C 
HETATM   33  C   UNL     1     -42.153  57.175 -50.956  1.00  0.00     0.049 C 
BRANCH  32  34
HETATM   34  N   UNL     1     -40.769  59.156 -51.647  1.00  0.00    -0.068 N 
HETATM   35  H   UNL     1     -40.834  59.682 -52.535  1.00  0.00     0.279 HD
HETATM   36  C   UNL     1     -41.636  59.846 -50.636  1.00  0.00     0.270 C 
HETATM   37  C   UNL     1     -39.317  59.232 -51.242  1.00  0.00     0.270 C 
ENDBRANCH  32  34
ENDBRANCH  22  32
ENDBRANCH   1  20
TORSDOF 10
ENDMDL
MODEL 4
REMARK VINA RESULT:      -6.8      3.968      8.521
REMARK  10 active torsions:
REMARK  status: ('A' for Active; 'I' for Inactive)
REMARK    1  A    between atoms: C_2  and  C_3 
REMARK    2  A    between atoms: C_3  and  N_4 
REMARK    3  A    between atoms: C_10  and  C_11 
REMARK    4  A    between atoms: C_11  and  C_12 
REMARK    5  A    between atoms: C_12  and  S_13 
REMARK    6  A    between atoms: S_13  and  C_14 
REMARK    7  A    between atoms: N_15  and  C_16 
REMARK    8  A    between atoms: C_23  and  C_24 
REMARK    9  A    between atoms: C_24  and  N_25 
REMARK   10  A    between atoms: C_33  and  N_34 
ROOT
HETATM    1  S   UNL     1     -43.483  57.189 -54.894  1.00  0.00    -0.082 SA
ENDROOT
BRANCH   1   2
HETATM    2  C   UNL     1     -42.098  56.012 -55.052  1.00  0.00     0.166 C 
BRANCH   2   3
HETATM    3  C   UNL     1     -42.543  54.645 -54.551  1.00  0.00     0.177 C 
HETATM    4  O   UNL     1     -43.397  53.995 -55.174  1.00  0.00    -0.291 OA
BRANCH   3   5
HETATM    5  C   UNL     1     -41.965  54.101 -53.276  1.00  0.00     0.117 C 
HETATM    6  C   UNL     1     -42.463  54.567 -51.965  1.00  0.00     0.266 C 
HETATM    7  N   UNL     1     -42.067  53.861 -50.878  1.00  0.00    -0.274 N 
HETATM    8  O   UNL     1     -43.166  55.566 -51.858  1.00  0.00    -0.267 OA
HETATM    9  C   UNL     1     -40.954  53.083 -50.850  1.00  0.00     0.330 C 
HETATM   10  H   UNL     1     -42.378  54.193 -49.975  1.00  0.00     0.173 HD
HETATM   11  N   UNL     1     -40.412  52.749 -52.087  1.00  0.00    -0.289 N 
HETATM   12  O   UNL     1     -40.477  52.749 -49.769  1.00  0.00    -0.246 OA
HETATM   13  C   UNL     1     -40.929  53.224 -53.298  1.00  0.00     0.103 C 
BRANCH  11  14
HETATM   14  C   UNL     1     -39.221  51.889 -52.054  1.00  0.00     0.135 C 
BRANCH  14  15
HETATM   15  C   UNL     1     -39.592  50.420 -52.277  1.00  0.00     0.016 C 
HETATM   16  C   UNL     1     -39.665  49.653 -50.967  1.00  0.00     0.006 C 
ENDBRANCH  14  15
ENDBRANCH  11  14
BRANCH  13  17
HETATM   17  N   UNL     1     -40.366  52.793 -54.496  1.00  0.00    -0.287 NA
HETATM   18  H   UNL     1     -40.285  51.772 -54.548  1.00  0.00     0.125 HD
HETATM   19  H   UNL     1     -40.858  53.143 -55.311  1.00  0.00     0.125 HD
ENDBRANCH  13  17
ENDBRANCH   3   5
ENDBRANCH   2   3
ENDBRANCH   1   2
BRANCH   1  20
HETATM   20  C   UNL     1     -42.863  58.511 -55.828  1.00  0.00     0.196 A 
HETATM   21  N   UNL     1     -42.758  58.552 -57.210  1.00  0.00    -0.274 N 
HETATM   22  C   UNL     1     -42.042  59.727 -57.439  1.00  0.00     0.166 A 
HETATM   23  N   UNL     1     -41.760  60.315 -56.293  1.00  0.00    -0.131 NA
HETATM   24  N   UNL     1     -42.278  59.557 -55.291  1.00  0.00    -0.122 NA
BRANCH  21  25
HETATM   25  C   UNL     1     -43.326  57.687 -58.187  1.00  0.00     0.043 A 
HETATM   26  C   UNL     1     -44.686  57.784 -58.511  1.00  0.00     0.032 A 
HETATM   27  C   UNL     1     -45.237  56.963 -59.500  1.00  0.00     0.026 A 
HETATM   28  C   UNL     1     -44.436  56.040 -60.165  1.00  0.00     0.034 A 
HETATM   29 CL   UNL     1     -45.112  55.042 -61.389  1.00  0.00    -0.084 Cl
HETATM   30  C   UNL     1     -43.086  55.928 -59.844  1.00  0.00     0.026 A 
HETATM   31  C   UNL     1     -42.529  56.747 -58.855  1.00  0.00     0.032 A 
ENDBRANCH  21  25
BRANCH  22  32
HETATM   32  C   UNL     1     -41.785  60.402 -58.752  1.00  0.00     0.254 C 
HETATM   33  C   UNL     1     -40.876  61.615 -58.515  1.00  0.00     0.049 C 
BRANCH  32  34
HETATM   34  N   UNL     1     -43.127  60.879 -59.357  1.00  0.00    -0.068 N 
HETATM   35  H   UNL     1     -43.839  60.290 -58.892  1.00  0.00     0.279 HD
HETATM   36  C   UNL     1     -43.478  62.315 -59.105  1.00  0.00     0.270 C 
HETATM   37  C   UNL     1     -43.237  60.555 -60.827  1.00  0.00     0.270 C 
ENDBRANCH  32  34
ENDBRANCH  22  32
ENDBRANCH   1  20
TORSDOF 10
ENDMDL
MODEL 5
REMARK VINA RESULT:      -6.7      3.480      7.129
REMARK  10 active torsions:
REMARK  status: ('A' for Active; 'I' for Inactive)
REMARK    1  A    between atoms: C_2  and  C_3 
REMARK    2  A    between atoms: C_3  and  N_4 
REMARK    3  A    between atoms: C_10  and  C_11 
REMARK    4  A    between atoms: C_11  and  C_12 
REMARK    5  A    between atoms: C_12  and  S_13 
REMARK    6  A    between atoms: S_13  and  C_14 
REMARK    7  A    between atoms: N_15  and  C_16 
REMARK    8  A    between atoms: C_23  and  C_24 
REMARK    9  A    between atoms: C_24  and  N_25 
REMARK   10  A    between atoms: C_33  and  N_34 
ROOT
HETATM    1  S   UNL     1     -44.898  59.631 -53.728  1.00  0.00    -0.082 SA
ENDROOT
BRANCH   1   2
HETATM    2  C   UNL     1     -43.298  60.059 -52.964  1.00  0.00     0.166 C 
BRANCH   2   3
HETATM    3  C   UNL     1     -43.290  59.582 -51.519  1.00  0.00     0.177 C 
HETATM    4  O   UNL     1     -43.206  60.398 -50.588  1.00  0.00    -0.291 OA
BRANCH   3   5
HETATM    5  C   UNL     1     -43.354  58.110 -51.225  1.00  0.00     0.117 C 
HETATM    6  C   UNL     1     -44.655  57.432 -51.054  1.00  0.00     0.266 C 
HETATM    7  N   UNL     1     -44.639  56.078 -51.033  1.00  0.00    -0.274 N 
HETATM    8  O   UNL     1     -45.697  58.062 -50.896  1.00  0.00    -0.267 OA
HETATM    9  C   UNL     1     -43.539  55.343 -50.721  1.00  0.00     0.330 C 
HETATM   10  H   UNL     1     -45.522  55.608 -50.884  1.00  0.00     0.173 HD
HETATM   11  N   UNL     1     -42.324  56.018 -50.760  1.00  0.00    -0.289 N 
HETATM   12  O   UNL     1     -43.672  54.166 -50.398  1.00  0.00    -0.246 OA
HETATM   13  C   UNL     1     -42.220  57.385 -51.043  1.00  0.00     0.103 C 
BRANCH  11  14
HETATM   14  C   UNL     1     -41.135  55.215 -50.443  1.00  0.00     0.135 C 
BRANCH  14  15
HETATM   15  C   UNL     1     -40.941  55.086 -48.929  1.00  0.00     0.016 C 
HETATM   16  C   UNL     1     -40.549  53.673 -48.530  1.00  0.00     0.006 C 
ENDBRANCH  14  15
ENDBRANCH  11  14
BRANCH  13  17
HETATM   17  N   UNL     1     -40.961  57.971 -51.124  1.00  0.00    -0.287 NA
HETATM   18  H   UNL     1     -40.979  58.975 -50.916  1.00  0.00     0.125 HD
HETATM   19  H   UNL     1     -40.272  57.509 -50.539  1.00  0.00     0.125 HD
ENDBRANCH  13  17
ENDBRANCH   3   5
ENDBRANCH   2   3
ENDBRANCH   1   2
BRANCH   1  20
HETATM   20  C   UNL     1     -44.402  59.433 -55.377  1.00  0.00     0.196 A 
HETATM   21  N   UNL     1     -43.569  58.437 -55.862  1.00  0.00    -0.274 N 
HETATM   22  C   UNL     1     -43.338  58.828 -57.181  1.00  0.00     0.166 A 
HETATM   23  N   UNL     1     -43.983  59.950 -57.437  1.00  0.00    -0.131 NA
HETATM   24  N   UNL     1     -44.649  60.321 -56.312  1.00  0.00    -0.122 NA
BRANCH  21  25
HETATM   25  C   UNL     1     -43.130  57.238 -55.233  1.00  0.00     0.043 A 
HETATM   26  C   UNL     1     -44.033  56.193 -54.996  1.00  0.00     0.032 A 
HETATM   27  C   UNL     1     -43.597  54.998 -54.415  1.00  0.00     0.026 A 
HETATM   28  C   UNL     1     -42.259  54.843 -54.064  1.00  0.00     0.034 A 
HETATM   29 CL   UNL     1     -41.721  53.370 -53.363  1.00  0.00    -0.084 Cl
HETATM   30  C   UNL     1     -41.355  55.878 -54.284  1.00  0.00     0.026 A 
HETATM   31  C   UNL     1     -41.787  57.077 -54.866  1.00  0.00     0.032 A 
ENDBRANCH  21  25
BRANCH  22  32
HETATM   32  C   UNL     1     -42.664  58.044 -58.265  1.00  0.00     0.254 C 
HETATM   33  C   UNL     1     -42.144  59.020 -59.330  1.00  0.00     0.049 C 
BRANCH  32  34
HETATM   34  N   UNL     1     -43.684  57.077 -58.912  1.00  0.00    -0.068 N 
HETATM   35  H   UNL     1     -44.571  57.277 -58.419  1.00  0.00     0.279 HD
HETATM   36  C   UNL     1     -43.918  57.268 -60.381  1.00  0.00     0.270 C 
HETATM   37  C   UNL     1     -43.373  55.632 -58.606  1.00  0.00     0.270 C 
ENDBRANCH  32  34
ENDBRANCH  22  32
ENDBRANCH   1  20
TORSDOF 10
ENDMDL
MODEL 6
REMARK VINA RESULT:      -6.6      3.853      8.361
REMARK  10 active torsions:
REMARK  status: ('A' for Active; 'I' for Inactive)
REMARK    1  A    between atoms: C_2  and  C_3 
REMARK    2  A    between atoms: C_3  and  N_4 
REMARK    3  A    between atoms: C_10  and  C_11 
REMARK    4  A    between atoms: C_11  and  C_12 
REMARK    5  A    between atoms: C_12  and  S_13 
REMARK    6  A    between atoms: S_13  and  C_14 
REMARK    7  A    between atoms: N_15  and  C_16 
REMARK    8  A    between atoms: C_23  and  C_24 
REMARK    9  A    between atoms: C_24  and  N_25 
REMARK   10  A    between atoms: C_33  and  N_34 
ROOT
HETATM    1  S   UNL     1     -42.476  58.801 -55.670  1.00  0.00    -0.082 SA
ENDROOT
BRANCH   1   2
HETATM    2  C   UNL     1     -41.812  59.799 -54.295  1.00  0.00     0.166 C 
BRANCH   2   3
HETATM    3  C   UNL     1     -41.070  58.887 -53.329  1.00  0.00     0.177 C 
HETATM    4  O   UNL     1     -39.843  58.998 -53.176  1.00  0.00    -0.291 OA
BRANCH   3   5
HETATM    5  C   UNL     1     -41.828  57.827 -52.581  1.00  0.00     0.117 C 
HETATM    6  C   UNL     1     -42.723  58.190 -51.463  1.00  0.00     0.266 C 
HETATM    7  N   UNL     1     -43.547  57.218 -51.003  1.00  0.00    -0.274 N 
HETATM    8  O   UNL     1     -42.695  59.303 -50.946  1.00  0.00    -0.267 OA
HETATM    9  C   UNL     1     -43.314  55.890 -51.172  1.00  0.00     0.330 C 
HETATM   10  H   UNL     1     -44.140  57.450 -50.217  1.00  0.00     0.173 HD
HETATM   11  N   UNL     1     -42.374  55.556 -52.142  1.00  0.00    -0.289 N 
HETATM   12  O   UNL     1     -43.900  55.079 -50.461  1.00  0.00    -0.246 OA
HETATM   13  C   UNL     1     -41.656  56.512 -52.869  1.00  0.00     0.103 C 
BRANCH  11  14
HETATM   14  C   UNL     1     -42.140  54.119 -52.337  1.00  0.00     0.135 C 
BRANCH  14  15
HETATM   15  C   UNL     1     -40.984  53.621 -51.463  1.00  0.00     0.016 C 
HETATM   16  C   UNL     1     -40.118  52.612 -52.196  1.00  0.00     0.006 C 
ENDBRANCH  14  15
ENDBRANCH  11  14
BRANCH  13  17
HETATM   17  N   UNL     1     -40.780  56.094 -53.866  1.00  0.00    -0.287 NA
HETATM   18  H   UNL     1     -40.398  55.159 -53.688  1.00  0.00     0.125 HD
HETATM   19  H   UNL     1     -41.191  56.130 -54.793  1.00  0.00     0.125 HD
ENDBRANCH  13  17
ENDBRANCH   3   5
ENDBRANCH   2   3
ENDBRANCH   1   2
BRANCH   1  20
HETATM   20  C   UNL     1     -42.180  59.879 -56.995  1.00  0.00     0.196 A 
HETATM   21  N   UNL     1     -42.302  59.566 -58.340  1.00  0.00    -0.274 N 
HETATM   22  C   UNL     1     -41.780  60.693 -58.977  1.00  0.00     0.166 A 
HETATM   23  N   UNL     1     -41.393  61.579 -58.080  1.00  0.00    -0.131 NA
HETATM   24  N   UNL     1     -41.649  61.070 -56.846  1.00  0.00    -0.122 NA
BRANCH  21  25
HETATM   25  C   UNL     1     -42.909  58.436 -58.956  1.00  0.00     0.043 A 
HETATM   26  C   UNL     1     -42.115  57.399 -59.465  1.00  0.00     0.032 A 
HETATM   27  C   UNL     1     -42.709  56.267 -60.034  1.00  0.00     0.026 A 
HETATM   28  C   UNL     1     -44.096  56.169 -60.100  1.00  0.00     0.034 A 
HETATM   29 CL   UNL     1     -44.824  54.773 -60.787  1.00  0.00    -0.084 Cl
HETATM   30  C   UNL     1     -44.893  57.198 -59.608  1.00  0.00     0.026 A 
HETATM   31  C   UNL     1     -44.304  58.332 -59.037  1.00  0.00     0.032 A 
ENDBRANCH  21  25
BRANCH  22  32
HETATM   32  C   UNL     1     -41.821  61.020 -60.438  1.00  0.00     0.254 C 
HETATM   33  C   UNL     1     -40.847  62.174 -60.713  1.00  0.00     0.049 C 
BRANCH  32  34
HETATM   34  N   UNL     1     -43.253  61.457 -60.829  1.00  0.00    -0.068 N 
HETATM   35  H   UNL     1     -43.820  61.247 -59.990  1.00  0.00     0.279 HD
HETATM   36  C   UNL     1     -43.423  62.911 -61.151  1.00  0.00     0.270 C 
HETATM   37  C   UNL     1     -43.832  60.597 -61.927  1.00  0.00     0.270 C 
ENDBRANCH  32  34
ENDBRANCH  22  32
ENDBRANCH   1  20
TORSDOF 10
ENDMDL
MODEL 7
REMARK VINA RESULT:      -6.6      3.957      5.486
REMARK  10 active torsions:
REMARK  status: ('A' for Active; 'I' for Inactive)
REMARK    1  A    between atoms: C_2  and  C_3 
REMARK    2  A    between atoms: C_3  and  N_4 
REMARK    3  A    between atoms: C_10  and  C_11 
REMARK    4  A    between atoms: C_11  and  C_12 
REMARK    5  A    between atoms: C_12  and  S_13 
REMARK    6  A    between atoms: S_13  and  C_14 
REMARK    7  A    between atoms: N_15  and  C_16 
REMARK    8  A    between atoms: C_23  and  C_24 
REMARK    9  A    between atoms: C_24  and  N_25 
REMARK   10  A    between atoms: C_33  and  N_34 
ROOT
HETATM    1  S   UNL     1     -44.665  57.791 -53.365  1.00  0.00    -0.082 SA
ENDROOT
BRANCH   1   2
HETATM    2  C   UNL     1     -44.910  57.686 -51.561  1.00  0.00     0.166 C 
BRANCH   2   3
HETATM    3  C   UNL     1     -45.439  59.019 -51.050  1.00  0.00     0.177 C 
HETATM    4  O   UNL     1     -46.337  59.052 -50.194  1.00  0.00    -0.291 OA
BRANCH   3   5
HETATM    5  C   UNL     1     -44.888  60.298 -51.613  1.00  0.00     0.117 C 
HETATM    6  C   UNL     1     -43.509  60.726 -51.298  1.00  0.00     0.266 C 
HETATM    7  N   UNL     1     -43.009  61.752 -52.028  1.00  0.00    -0.274 N 
HETATM    8  O   UNL     1     -42.861  60.209 -50.394  1.00  0.00    -0.267 OA
HETATM    9  C   UNL     1     -43.781  62.662 -52.676  1.00  0.00     0.330 C 
HETATM   10  H   UNL     1     -42.077  62.071 -51.797  1.00  0.00     0.173 HD
HETATM   11  N   UNL     1     -45.114  62.309 -52.860  1.00  0.00    -0.289 N 
HETATM   12  O   UNL     1     -43.289  63.731 -53.028  1.00  0.00    -0.246 OA
HETATM   13  C   UNL     1     -45.663  61.121 -52.364  1.00  0.00     0.103 C 
BRANCH  11  14
HETATM   14  C   UNL     1     -45.942  63.286 -53.581  1.00  0.00     0.135 C 
BRANCH  14  15
HETATM   15  C   UNL     1     -46.458  64.378 -52.638  1.00  0.00     0.016 C 
HETATM   16  C   UNL     1     -47.947  64.234 -52.372  1.00  0.00     0.006 C 
ENDBRANCH  14  15
ENDBRANCH  11  14
BRANCH  13  17
HETATM   17  N   UNL     1     -46.991  60.814 -52.645  1.00  0.00    -0.287 NA
HETATM   18  H   UNL     1     -47.084  60.090 -53.365  1.00  0.00     0.125 HD
HETATM   19  H   UNL     1     -47.518  60.550 -51.819  1.00  0.00     0.125 HD
ENDBRANCH  13  17
ENDBRANCH   3   5
ENDBRANCH   2   3
ENDBRANCH   1   2
BRANCH   1  20
HETATM   20  C   UNL     1     -43.658  56.402 -53.614  1.00  0.00     0.196 A 
HETATM   21  N   UNL     1     -42.302  56.320 -53.339  1.00  0.00    -0.274 N 
HETATM   22  C   UNL     1     -41.941  55.087 -53.882  1.00  0.00     0.166 A 
HETATM   23  N   UNL     1     -42.995  54.505 -54.421  1.00  0.00    -0.131 NA
HETATM   24  N   UNL     1     -44.065  55.326 -54.247  1.00  0.00    -0.122 NA
BRANCH  21  25
HETATM   25  C   UNL     1     -41.475  57.205 -52.591  1.00  0.00     0.043 A 
HETATM   26  C   UNL     1     -41.334  57.038 -51.207  1.00  0.00     0.032 A 
HETATM   27  C   UNL     1     -40.490  57.880 -50.475  1.00  0.00     0.026 A 
HETATM   28  C   UNL     1     -39.789  58.894 -51.121  1.00  0.00     0.034 A 
HETATM   29 CL   UNL     1     -38.743  59.919 -50.223  1.00  0.00    -0.084 Cl
HETATM   30  C   UNL     1     -39.930  59.075 -52.494  1.00  0.00     0.026 A 
HETATM   31  C   UNL     1     -40.773  58.235 -53.231  1.00  0.00     0.032 A 
ENDBRANCH  21  25
BRANCH  22  32
HETATM   32  C   UNL     1     -40.638  54.363 -53.726  1.00  0.00     0.254 C 
HETATM   33  C   UNL     1     -40.099  54.011 -55.118  1.00  0.00     0.049 C 
BRANCH  32  34
HETATM   34  N   UNL     1     -40.866  53.061 -52.922  1.00  0.00    -0.068 N 
HETATM   35  H   UNL     1     -41.822  52.764 -53.184  1.00  0.00     0.279 HD
HETATM   36  C   UNL     1     -39.930  51.932 -53.234  1.00  0.00     0.270 C 
HETATM   37  C   UNL     1     -40.919  53.311 -51.434  1.00  0.00     0.270 C 
ENDBRANCH  32  34
ENDBRANCH  22  32
ENDBRANCH   1  20
TORSDOF 10
ENDMDL
MODEL 8
REMARK VINA RESULT:      -6.6      3.624      7.437
REMARK  10 active torsions:
REMARK  status: ('A' for Active; 'I' for Inactive)
REMARK    1  A    between atoms: C_2  and  C_3 
REMARK    2  A    between atoms: C_3  and  N_4 
REMARK    3  A    between atoms: C_10  and  C_11 
REMARK    4  A    between atoms: C_11  and  C_12 
REMARK    5  A    between atoms: C_12  and  S_13 
REMARK    6  A    between atoms: S_13  and  C_14 
REMARK    7  A    between atoms: N_15  and  C_16 
REMARK    8  A    between atoms: C_23  and  C_24 
REMARK    9  A    between atoms: C_24  and  N_25 
REMARK   10  A    between atoms: C_33  and  N_34 
ROOT
HETATM    1  S   UNL     1     -42.416  60.314 -55.190  1.00  0.00    -0.082 SA
ENDROOT
BRANCH   1   2
HETATM    2  C   UNL     1     -42.624  59.668 -53.498  1.00  0.00     0.166 C 
BRANCH   2   3
HETATM    3  C   UNL     1     -41.391  58.859 -53.117  1.00  0.00     0.177 C 
HETATM    4  O   UNL     1     -40.268  59.197 -53.521  1.00  0.00    -0.291 OA
BRANCH   3   5
HETATM    5  C   UNL     1     -41.548  57.626 -52.272  1.00  0.00     0.117 C 
HETATM    6  C   UNL     1     -41.470  57.709 -50.799  1.00  0.00     0.266 C 
HETATM    7  N   UNL     1     -41.858  56.611 -50.106  1.00  0.00    -0.274 N 
HETATM    8  O   UNL     1     -41.038  58.706 -50.229  1.00  0.00    -0.267 OA
HETATM    9  C   UNL     1     -41.880  55.359 -50.631  1.00  0.00     0.330 C 
HETATM   10  H   UNL     1     -41.777  56.650 -49.099  1.00  0.00     0.173 HD
HETATM   11  N   UNL     1     -41.826  55.279 -52.019  1.00  0.00    -0.289 N 
HETATM   12  O   UNL     1     -41.915  54.389 -49.879  1.00  0.00    -0.246 OA
HETATM   13  C   UNL     1     -41.694  56.403 -52.842  1.00  0.00     0.103 C 
BRANCH  11  14
HETATM   14  C   UNL     1     -41.873  53.924 -52.585  1.00  0.00     0.135 C 
BRANCH  14  15
HETATM   15  C   UNL     1     -40.464  53.356 -52.781  1.00  0.00     0.016 C 
HETATM   16  C   UNL     1     -40.438  52.268 -53.841  1.00  0.00     0.006 C 
ENDBRANCH  14  15
ENDBRANCH  11  14
BRANCH  13  17
HETATM   17  N   UNL     1     -41.710  56.242 -54.224  1.00  0.00    -0.287 NA
HETATM   18  H   UNL     1     -41.100  55.481 -54.540  1.00  0.00     0.125 HD
HETATM   19  H   UNL     1     -42.646  56.111 -54.595  1.00  0.00     0.125 HD
ENDBRANCH  13  17
ENDBRANCH   3   5
ENDBRANCH   2   3
ENDBRANCH   1   2
BRANCH   1  20
HETATM   20  C   UNL     1     -43.288  59.110 -56.082  1.00  0.00     0.196 A 
HETATM   21  N   UNL     1     -43.669  59.200 -57.412  1.00  0.00    -0.274 N 
HETATM   22  C   UNL     1     -44.486  58.082 -57.585  1.00  0.00     0.166 A 
HETATM   23  N   UNL     1     -44.568  57.405 -56.456  1.00  0.00    -0.131 NA
HETATM   24  N   UNL     1     -43.816  58.046 -55.523  1.00  0.00    -0.122 NA
BRANCH  21  25
HETATM   25  C   UNL     1     -43.256  60.125 -58.411  1.00  0.00     0.043 A 
HETATM   26  C   UNL     1     -43.946  61.333 -58.582  1.00  0.00     0.032 A 
HETATM   27  C   UNL     1     -43.518  62.263 -59.536  1.00  0.00     0.026 A 
HETATM   28  C   UNL     1     -42.406  61.989 -60.325  1.00  0.00     0.034 A 
HETATM   29 CL   UNL     1     -41.874  63.137 -61.487  1.00  0.00    -0.084 Cl
HETATM   30  C   UNL     1     -41.720  60.786 -60.172  1.00  0.00     0.026 A 
HETATM   31  C   UNL     1     -42.143  59.853 -59.218  1.00  0.00     0.032 A 
ENDBRANCH  21  25
BRANCH  22  32
HETATM   32  C   UNL     1     -45.039  57.541 -58.868  1.00  0.00     0.254 C 
HETATM   33  C   UNL     1     -46.571  57.595 -58.807  1.00  0.00     0.049 C 
BRANCH  32  34
HETATM   34  N   UNL     1     -44.586  56.072 -59.045  1.00  0.00    -0.068 N 
HETATM   35  H   UNL     1     -44.714  55.652 -58.108  1.00  0.00     0.279 HD
HETATM   36  C   UNL     1     -45.378  55.262 -60.027  1.00  0.00     0.270 C 
HETATM   37  C   UNL     1     -43.108  55.962 -59.334  1.00  0.00     0.270 C 
ENDBRANCH  32  34
ENDBRANCH  22  32
ENDBRANCH   1  20
TORSDOF 10
ENDMDL
MODEL 9
REMARK VINA RESULT:      -6.5      3.685      7.812
REMARK  10 active torsions:
REMARK  status: ('A' for Active; 'I' for Inactive)
REMARK    1  A    between atoms: C_2  and  C_3 
REMARK    2  A    between atoms: C_3  and  N_4 
REMARK    3  A    between atoms: C_10  and  C_11 
REMARK    4  A    between atoms: C_11  and  C_12 
REMARK    5  A    between atoms: C_12  and  S_13 
REMARK    6  A    between atoms: S_13  and  C_14 
REMARK    7  A    between atoms: N_15  and  C_16 
REMARK    8  A    between atoms: C_23  and  C_24 
REMARK    9  A    between atoms: C_24  and  N_25 
REMARK   10  A    between atoms: C_33  and  N_34 
ROOT
HETATM    1  S   UNL     1     -42.228  58.963 -55.524  1.00  0.00    -0.082 SA
ENDROOT
BRANCH   1   2
HETATM    2  C   UNL     1     -43.964  59.300 -55.078  1.00  0.00     0.166 C 
BRANCH   2   3
HETATM    3  C   UNL     1     -44.706  57.980 -54.922  1.00  0.00     0.177 C 
HETATM    4  O   UNL     1     -45.749  57.766 -55.559  1.00  0.00    -0.291 OA
BRANCH   3   5
HETATM    5  C   UNL     1     -44.183  56.947 -53.965  1.00  0.00     0.117 C 
HETATM    6  C   UNL     1     -44.251  57.170 -52.506  1.00  0.00     0.266 C 
HETATM    7  N   UNL     1     -43.985  56.103 -51.714  1.00  0.00    -0.274 N 
HETATM    8  O   UNL     1     -44.495  58.274 -52.031  1.00  0.00    -0.267 OA
HETATM    9  C   UNL     1     -43.263  55.026 -52.119  1.00  0.00     0.330 C 
HETATM   10  H   UNL     1     -43.999  56.256 -50.715  1.00  0.00     0.173 HD
HETATM   11  N   UNL     1     -43.093  54.888 -53.493  1.00  0.00    -0.289 N 
HETATM   12  O   UNL     1     -42.783  54.270 -51.278  1.00  0.00    -0.246 OA
HETATM   13  C   UNL     1     -43.576  55.820 -54.418  1.00  0.00     0.103 C 
BRANCH  11  14
HETATM   14  C   UNL     1     -42.329  53.710 -53.928  1.00  0.00     0.135 C 
BRANCH  14  15
HETATM   15  C   UNL     1     -40.821  53.960 -53.827  1.00  0.00     0.016 C 
HETATM   16  C   UNL     1     -40.170  54.035 -55.198  1.00  0.00     0.006 C 
ENDBRANCH  14  15
ENDBRANCH  11  14
BRANCH  13  17
HETATM   17  N   UNL     1     -43.418  55.575 -55.778  1.00  0.00    -0.287 NA
HETATM   18  H   UNL     1     -43.588  56.408 -56.351  1.00  0.00     0.125 HD
HETATM   19  H   UNL     1     -42.512  55.179 -56.005  1.00  0.00     0.125 HD
ENDBRANCH  13  17
ENDBRANCH   3   5
ENDBRANCH   2   3
ENDBRANCH   1   2
BRANCH   1  20
HETATM   20  C   UNL     1     -42.094  59.923 -56.961  1.00  0.00     0.196 A 
HETATM   21  N   UNL     1     -42.338  59.488 -58.255  1.00  0.00    -0.274 N 
HETATM   22  C   UNL     1     -41.914  60.563 -59.037  1.00  0.00     0.166 A 
HETATM   23  N   UNL     1     -41.467  61.534 -58.264  1.00  0.00    -0.131 NA
HETATM   24  N   UNL     1     -41.586  61.133 -56.971  1.00  0.00    -0.122 NA
BRANCH  21  25
HETATM   25  C   UNL     1     -42.967  58.294 -58.705  1.00  0.00     0.043 A 
HETATM   26  C   UNL     1     -44.364  58.183 -58.688  1.00  0.00     0.032 A 
HETATM   27  C   UNL     1     -44.988  57.027 -59.168  1.00  0.00     0.026 A 
HETATM   28  C   UNL     1     -44.221  55.976 -59.662  1.00  0.00     0.034 A 
HETATM   29 CL   UNL     1     -44.988  54.562 -60.264  1.00  0.00    -0.084 Cl
HETATM   30  C   UNL     1     -42.832  56.071 -59.673  1.00  0.00     0.026 A 
HETATM   31  C   UNL     1     -42.203  57.226 -59.195  1.00  0.00     0.032 A 
ENDBRANCH  21  25
BRANCH  22  32
HETATM   32  C   UNL     1     -42.106  60.757 -60.510  1.00  0.00     0.254 C 
HETATM   33  C   UNL     1     -41.119  61.824 -61.001  1.00  0.00     0.049 C 
BRANCH  32  34
HETATM   34  N   UNL     1     -43.552  61.235 -60.782  1.00  0.00    -0.068 N 
HETATM   35  H   UNL     1     -44.036  61.109 -59.876  1.00  0.00     0.279 HD
HETATM   36  C   UNL     1     -43.696  62.671 -61.188  1.00  0.00     0.270 C 
HETATM   37  C   UNL     1     -44.278  60.333 -61.751  1.00  0.00     0.270 C 
ENDBRANCH  32  34
ENDBRANCH  22  32
ENDBRANCH   1  20
TORSDOF 10
ENDMDL
MODEL 10
REMARK VINA RESULT:      -6.4      3.935      8.308
REMARK  10 active torsions:
REMARK  status: ('A' for Active; 'I' for Inactive)
REMARK    1  A    between atoms: C_2  and  C_3 
REMARK    2  A    between atoms: C_3  and  N_4 
REMARK    3  A    between atoms: C_10  and  C_11 
REMARK    4  A    between atoms: C_11  and  C_12 
REMARK    5  A    between atoms: C_12  and  S_13 
REMARK    6  A    between atoms: S_13  and  C_14 
REMARK    7  A    between atoms: N_15  and  C_16 
REMARK    8  A    between atoms: C_23  and  C_24 
REMARK    9  A    between atoms: C_24  and  N_25 
REMARK   10  A    between atoms: C_33  and  N_34 
ROOT
HETATM    1  S   UNL     1     -42.606  58.477 -55.732  1.00  0.00    -0.082 SA
ENDROOT
BRANCH   1   2
HETATM    2  C   UNL     1     -41.833  59.351 -54.330  1.00  0.00     0.166 C 
BRANCH   2   3
HETATM    3  C   UNL     1     -41.033  58.356 -53.501  1.00  0.00     0.177 C 
HETATM    4  O   UNL     1     -39.832  58.558 -53.263  1.00  0.00    -0.291 OA
BRANCH   3   5
HETATM    5  C   UNL     1     -41.702  57.109 -52.996  1.00  0.00     0.117 C 
HETATM    6  C   UNL     1     -42.682  57.174 -51.892  1.00  0.00     0.266 C 
HETATM    7  N   UNL     1     -43.412  56.057 -51.659  1.00  0.00    -0.274 N 
HETATM    8  O   UNL     1     -42.803  58.175 -51.193  1.00  0.00    -0.267 OA
HETATM    9  C   UNL     1     -43.023  54.811 -52.037  1.00  0.00     0.330 C 
HETATM   10  H   UNL     1     -44.062  56.085 -50.885  1.00  0.00     0.173 HD
HETATM   11  N   UNL     1     -42.008  54.752 -52.987  1.00  0.00    -0.289 N 
HETATM   12  O   UNL     1     -43.547  53.831 -51.515  1.00  0.00    -0.246 OA
HETATM   13  C   UNL     1     -41.370  55.890 -53.493  1.00  0.00     0.103 C 
BRANCH  11  14
HETATM   14  C   UNL     1     -41.606  53.403 -53.410  1.00  0.00     0.135 C 
BRANCH  14  15
HETATM   15  C   UNL     1     -40.419  52.895 -52.585  1.00  0.00     0.016 C 
HETATM   16  C   UNL     1     -39.714  51.735 -53.268  1.00  0.00     0.006 C 
ENDBRANCH  14  15
ENDBRANCH  11  14
BRANCH  13  17
HETATM   17  N   UNL     1     -40.407  55.747 -54.487  1.00  0.00    -0.287 NA
HETATM   18  H   UNL     1     -40.291  56.596 -55.049  1.00  0.00     0.125 HD
HETATM   19  H   UNL     1     -39.508  55.445 -54.125  1.00  0.00     0.125 HD
ENDBRANCH  13  17
ENDBRANCH   3   5
ENDBRANCH   2   3
ENDBRANCH   1   2
BRANCH   1  20
HETATM   20  C   UNL     1     -42.268  59.599 -57.010  1.00  0.00     0.196 A 
HETATM   21  N   UNL     1     -42.787  59.549 -58.295  1.00  0.00    -0.274 N 
HETATM   22  C   UNL     1     -42.072  60.541 -58.965  1.00  0.00     0.166 A 
HETATM   23  N   UNL     1     -41.217  61.116 -58.141  1.00  0.00    -0.131 NA
HETATM   24  N   UNL     1     -41.346  60.530 -56.922  1.00  0.00    -0.122 NA
BRANCH  21  25
HETATM   25  C   UNL     1     -43.862  58.770 -58.807  1.00  0.00     0.043 A 
HETATM   26  C   UNL     1     -43.609  57.536 -59.422  1.00  0.00     0.032 A 
HETATM   27  C   UNL     1     -44.666  56.749 -59.890  1.00  0.00     0.026 A 
HETATM   28  C   UNL     1     -45.978  57.192 -59.751  1.00  0.00     0.034 A 
HETATM   29 CL   UNL     1     -47.276  56.218 -60.314  1.00  0.00    -0.084 Cl
HETATM   30  C   UNL     1     -46.240  58.421 -59.152  1.00  0.00     0.026 A 
HETATM   31  C   UNL     1     -45.185  59.212 -58.681  1.00  0.00     0.032 A 
ENDBRANCH  21  25
BRANCH  22  32
HETATM   32  C   UNL     1     -42.326  61.085 -60.338  1.00  0.00     0.254 C 
HETATM   33  C   UNL     1     -41.791  60.085 -61.372  1.00  0.00     0.049 C 
BRANCH  32  34
HETATM   34  N   UNL     1     -41.587  62.434 -60.503  1.00  0.00    -0.068 N 
HETATM   35  H   UNL     1     -41.087  62.561 -59.607  1.00  0.00     0.279 HD
HETATM   36  C   UNL     1     -40.577  62.491 -61.610  1.00  0.00     0.270 C 
HETATM   37  C   UNL     1     -42.543  63.600 -60.595  1.00  0.00     0.270 C 
ENDBRANCH  32  34
ENDBRANCH  22  32
ENDBRANCH   1  20
TORSDOF 10
ENDMDL
