MODEL 1
REMARK VINA RESULT:      -8.1      0.000      0.000
REMARK  5 active torsions:
REMARK  status: ('A' for Active; 'I' for Inactive)
REMARK    1  A    between atoms: C_6  and  O_7 
REMARK    2  A    between atoms: O_7  and  C_8 
REMARK    3  A    between atoms: C_8  and  C_9 
REMARK       I    between atoms: C_9  and  N_10 
REMARK    4  A    between atoms: N_10  and  N_11 
REMARK    5  A    between atoms: C_12  and  C_13 
ROOT
HETATM    1  C   UNL     1     -42.999  55.380 -53.413  1.00  0.00     0.261 C 
HETATM    2  N   UNL     1     -42.611  56.578 -53.990  1.00  0.00    -0.246 N 
HETATM    3  O   UNL     1     -43.880  54.638 -53.848  1.00  0.00    -0.269 OA
HETATM    4  H   UNL     1     -41.896  57.150 -53.548  1.00  0.00     0.192 HD
ENDROOT
BRANCH   2   5
HETATM    5  N   UNL     1     -43.203  56.956 -55.154  1.00  0.00    -0.184 NA
HETATM    6  C   UNL     1     -42.531  56.819 -56.248  1.00  0.00     0.152 C 
BRANCH   6   7
HETATM    7  C   UNL     1     -43.162  57.191 -57.501  1.00  0.00     0.011 A 
HETATM    8  C   UNL     1     -43.717  56.344 -58.521  1.00  0.00     0.004 A 
HETATM    9  C   UNL     1     -44.189  57.171 -59.542  1.00  0.00     0.043 A 
HETATM   10  C   UNL     1     -43.860  54.948 -58.677  1.00  0.00     0.014 A 
HETATM   11  C   UNL     1     -44.792  56.673 -60.705  1.00  0.00     0.030 A 
HETATM   12  N   UNL     1     -43.940  58.467 -59.159  1.00  0.00    -0.364 N 
HETATM   13  C   UNL     1     -44.919  55.286 -60.830  1.00  0.00     0.002 A 
HETATM   14  C   UNL     1     -44.461  54.433 -59.831  1.00  0.00     0.001 A 
HETATM   15  H   UNL     1     -44.177  59.279 -59.714  1.00  0.00     0.165 HD
HETATM   16  C   UNL     1     -43.324  58.495 -57.935  1.00  0.00     0.102 A 
ENDBRANCH   6   7
ENDBRANCH   2   5
BRANCH   1  17
HETATM   17  C   UNL     1     -42.182  54.977 -52.192  1.00  0.00     0.280 C 
BRANCH  17  18
HETATM   18  O   UNL     1     -40.771  54.925 -52.421  1.00  0.00    -0.340 OA
BRANCH  18  19
HETATM   19  C   UNL     1     -40.377  53.617 -52.589  1.00  0.00     0.092 A 
HETATM   20  C   UNL     1     -40.129  52.829 -51.457  1.00  0.00     0.045 A 
HETATM   21  C   UNL     1     -39.803  51.477 -51.597  1.00  0.00     0.028 A 
HETATM   22 BR   UNL     1     -40.259  53.547 -49.705  1.00  0.00    -0.048 Br
HETATM   23  C   UNL     1     -39.702  50.905 -52.869  1.00  0.00    -0.060 A 
HETATM   24  C   UNL     1     -39.434  49.437 -53.031  1.00  0.00     0.048 C 
HETATM   25  C   UNL     1     -39.916  51.708 -53.998  1.00  0.00     0.016 A 
HETATM   26  C   UNL     1     -40.222  53.074 -53.875  1.00  0.00    -0.027 A 
HETATM   27  C   UNL     1     -40.428  53.886 -55.123  1.00  0.00     0.051 C 
ENDBRANCH  18  19
ENDBRANCH  17  18
ENDBRANCH   1  17
TORSDOF 5
ENDMDL
MODEL 2
REMARK VINA RESULT:      -7.9      3.130      8.661
REMARK  5 active torsions:
REMARK  status: ('A' for Active; 'I' for Inactive)
REMARK    1  A    between atoms: C_6  and  O_7 
REMARK    2  A    between atoms: O_7  and  C_8 
REMARK    3  A    between atoms: C_8  and  C_9 
REMARK       I    between atoms: C_9  and  N_10 
REMARK    4  A    between atoms: N_10  and  N_11 
REMARK    5  A    between atoms: C_12  and  C_13 
ROOT
HETATM    1  C   UNL     1     -42.849  55.833 -56.432  1.00  0.00     0.261 C 
HETATM    2  N   UNL     1     -41.872  56.291 -55.563  1.00  0.00    -0.246 N 
HETATM    3  O   UNL     1     -43.146  54.650 -56.601  1.00  0.00    -0.269 OA
HETATM    4  H   UNL     1     -41.665  57.284 -55.507  1.00  0.00     0.192 HD
ENDROOT
BRANCH   2   5
HETATM    5  N   UNL     1     -41.214  55.383 -54.793  1.00  0.00    -0.184 NA
HETATM    6  C   UNL     1     -41.654  55.171 -53.599  1.00  0.00     0.152 C 
BRANCH   6   7
HETATM    7  C   UNL     1     -40.978  54.183 -52.777  1.00  0.00     0.011 A 
HETATM    8  C   UNL     1     -40.572  52.847 -53.119  1.00  0.00     0.004 A 
HETATM    9  C   UNL     1     -39.980  52.286 -51.986  1.00  0.00     0.043 A 
HETATM   10  C   UNL     1     -40.655  52.056 -54.286  1.00  0.00     0.014 A 
HETATM   11  C   UNL     1     -39.471  50.980 -51.963  1.00  0.00     0.030 A 
HETATM   12  N   UNL     1     -40.016  53.240 -50.997  1.00  0.00    -0.364 N 
HETATM   13  C   UNL     1     -39.568  50.222 -53.134  1.00  0.00     0.002 A 
HETATM   14  C   UNL     1     -40.152  50.751 -54.281  1.00  0.00     0.001 A 
HETATM   15  H   UNL     1     -39.655  53.103 -50.062  1.00  0.00     0.165 HD
HETATM   16  C   UNL     1     -40.612  54.385 -51.459  1.00  0.00     0.102 A 
ENDBRANCH   6   7
ENDBRANCH   2   5
BRANCH   1  17
HETATM   17  C   UNL     1     -43.623  56.934 -57.144  1.00  0.00     0.280 C 
BRANCH  17  18
HETATM   18  O   UNL     1     -43.372  57.014 -58.549  1.00  0.00    -0.340 OA
BRANCH  18  19
HETATM   19  C   UNL     1     -44.563  56.954 -59.237  1.00  0.00     0.092 A 
HETATM   20  C   UNL     1     -45.335  58.117 -59.368  1.00  0.00     0.045 A 
HETATM   21  C   UNL     1     -46.508  58.103 -60.127  1.00  0.00     0.028 A 
HETATM   22 BR   UNL     1     -44.805  59.750 -58.558  1.00  0.00    -0.048 Br
HETATM   23  C   UNL     1     -46.932  56.922 -60.746  1.00  0.00    -0.060 A 
HETATM   24  C   UNL     1     -48.145  56.913 -61.630  1.00  0.00     0.048 C 
HETATM   25  C   UNL     1     -46.174  55.754 -60.581  1.00  0.00     0.016 A 
HETATM   26  C   UNL     1     -45.005  55.747 -59.803  1.00  0.00    -0.027 A 
HETATM   27  C   UNL     1     -44.242  54.461 -59.654  1.00  0.00     0.051 C 
ENDBRANCH  18  19
ENDBRANCH  17  18
ENDBRANCH   1  17
TORSDOF 5
ENDMDL
MODEL 3
REMARK VINA RESULT:      -7.9      2.748      7.909
REMARK  5 active torsions:
REMARK  status: ('A' for Active; 'I' for Inactive)
REMARK    1  A    between atoms: C_6  and  O_7 
REMARK    2  A    between atoms: O_7  and  C_8 
REMARK    3  A    between atoms: C_8  and  C_9 
REMARK       I    between atoms: C_9  and  N_10 
REMARK    4  A    between atoms: N_10  and  N_11 
REMARK    5  A    between atoms: C_12  and  C_13 
ROOT
HETATM    1  C   UNL     1     -44.696  57.448 -54.524  1.00  0.00     0.261 C 
HETATM    2  N   UNL     1     -44.677  56.063 -54.493  1.00  0.00    -0.246 N 
HETATM    3  O   UNL     1     -44.004  58.180 -53.816  1.00  0.00    -0.269 OA
HETATM    4  H   UNL     1     -45.306  55.531 -55.088  1.00  0.00     0.192 HD
ENDROOT
BRANCH   2   5
HETATM    5  N   UNL     1     -43.798  55.447 -53.658  1.00  0.00    -0.184 NA
HETATM    6  C   UNL     1     -42.738  54.922 -54.175  1.00  0.00     0.152 C 
BRANCH   6   7
HETATM    7  C   UNL     1     -41.778  54.287 -53.291  1.00  0.00     0.011 A 
HETATM    8  C   UNL     1     -41.085  53.038 -53.456  1.00  0.00     0.004 A 
HETATM    9  C   UNL     1     -40.284  52.851 -52.328  1.00  0.00     0.043 A 
HETATM   10  C   UNL     1     -41.066  52.043 -54.458  1.00  0.00     0.014 A 
HETATM   11  C   UNL     1     -39.471  51.723 -52.153  1.00  0.00     0.030 A 
HETATM   12  N   UNL     1     -40.473  53.941 -51.513  1.00  0.00    -0.364 N 
HETATM   13  C   UNL     1     -39.473  50.755 -53.162  1.00  0.00     0.002 A 
HETATM   14  C   UNL     1     -40.259  50.911 -54.300  1.00  0.00     0.001 A 
HETATM   15  H   UNL     1     -40.016  54.070 -50.620  1.00  0.00     0.165 HD
HETATM   16  C   UNL     1     -41.367  54.813 -52.079  1.00  0.00     0.102 A 
ENDBRANCH   6   7
ENDBRANCH   2   5
BRANCH   1  17
HETATM   17  C   UNL     1     -45.610  58.040 -55.588  1.00  0.00     0.280 C 
BRANCH  17  18
HETATM   18  O   UNL     1     -44.920  58.682 -56.663  1.00  0.00    -0.340 OA
BRANCH  18  19
HETATM   19  C   UNL     1     -44.980  57.893 -57.790  1.00  0.00     0.092 A 
HETATM   20  C   UNL     1     -43.863  57.125 -58.144  1.00  0.00     0.045 A 
HETATM   21  C   UNL     1     -43.923  56.256 -59.237  1.00  0.00     0.028 A 
HETATM   22 BR   UNL     1     -42.251  57.205 -57.145  1.00  0.00    -0.048 Br
HETATM   23  C   UNL     1     -45.093  56.161 -59.997  1.00  0.00    -0.060 A 
HETATM   24  C   UNL     1     -45.198  55.173 -61.122  1.00  0.00     0.048 C 
HETATM   25  C   UNL     1     -46.194  56.959 -59.659  1.00  0.00     0.016 A 
HETATM   26  C   UNL     1     -46.143  57.854 -58.577  1.00  0.00    -0.027 A 
HETATM   27  C   UNL     1     -47.351  58.692 -58.271  1.00  0.00     0.051 C 
ENDBRANCH  18  19
ENDBRANCH  17  18
ENDBRANCH   1  17
TORSDOF 5
ENDMDL
MODEL 4
REMARK VINA RESULT:      -7.8      1.527      2.429
REMARK  5 active torsions:
REMARK  status: ('A' for Active; 'I' for Inactive)
REMARK    1  A    between atoms: C_6  and  O_7 
REMARK    2  A    between atoms: O_7  and  C_8 
REMARK    3  A    between atoms: C_8  and  C_9 
REMARK       I    between atoms: C_9  and  N_10 
REMARK    4  A    between atoms: N_10  and  N_11 
REMARK    5  A    between atoms: C_12  and  C_13 
ROOT
HETATM    1  C   UNL     1     -43.280  55.817 -54.163  1.00  0.00     0.261 C 
HETATM    2  N   UNL     1     -42.598  55.762 -55.368  1.00  0.00    -0.246 N 
HETATM    3  O   UNL     1     -44.273  56.511 -53.945  1.00  0.00    -0.269 OA
HETATM    4  H   UNL     1     -41.764  55.188 -55.456  1.00  0.00     0.192 HD
ENDROOT
BRANCH   2   5
HETATM    5  N   UNL     1     -43.076  56.487 -56.415  1.00  0.00    -0.184 NA
HETATM    6  C   UNL     1     -42.954  55.991 -57.600  1.00  0.00     0.152 C 
BRANCH   6   7
HETATM    7  C   UNL     1     -43.485  56.741 -58.723  1.00  0.00     0.011 A 
HETATM    8  C   UNL     1     -43.092  58.033 -59.216  1.00  0.00     0.004 A 
HETATM    9  C   UNL     1     -43.914  58.335 -60.304  1.00  0.00     0.043 A 
HETATM   10  C   UNL     1     -42.115  58.980 -58.838  1.00  0.00     0.014 A 
HETATM   11  C   UNL     1     -43.808  59.531 -61.025  1.00  0.00     0.030 A 
HETATM   12  N   UNL     1     -44.768  57.271 -60.472  1.00  0.00    -0.364 N 
HETATM   13  C   UNL     1     -42.832  60.449 -60.627  1.00  0.00     0.002 A 
HETATM   14  C   UNL     1     -41.995  60.179 -59.548  1.00  0.00     0.001 A 
HETATM   15  H   UNL     1     -45.478  57.220 -61.191  1.00  0.00     0.165 HD
HETATM   16  C   UNL     1     -44.521  56.306 -59.531  1.00  0.00     0.102 A 
ENDBRANCH   6   7
ENDBRANCH   2   5
BRANCH   1  17
HETATM   17  C   UNL     1     -42.751  54.866 -53.098  1.00  0.00     0.280 C 
BRANCH  17  18
HETATM   18  O   UNL     1     -41.370  55.051 -52.779  1.00  0.00    -0.340 OA
BRANCH  18  19
HETATM   19  C   UNL     1     -40.825  53.856 -52.366  1.00  0.00     0.092 A 
HETATM   20  C   UNL     1     -40.831  53.540 -51.001  1.00  0.00     0.045 A 
HETATM   21  C   UNL     1     -40.357  52.301 -50.562  1.00  0.00     0.028 A 
HETATM   22 BR   UNL     1     -41.511  54.753 -49.709  1.00  0.00    -0.048 Br
HETATM   23  C   UNL     1     -39.853  51.375 -51.481  1.00  0.00    -0.060 A 
HETATM   24  C   UNL     1     -39.415  50.010 -51.033  1.00  0.00     0.048 C 
HETATM   25  C   UNL     1     -39.815  51.712 -52.841  1.00  0.00     0.016 A 
HETATM   26  C   UNL     1     -40.268  52.962 -53.295  1.00  0.00    -0.027 A 
HETATM   27  C   UNL     1     -40.192  53.271 -54.764  1.00  0.00     0.051 C 
ENDBRANCH  18  19
ENDBRANCH  17  18
ENDBRANCH   1  17
TORSDOF 5
ENDMDL
MODEL 5
REMARK VINA RESULT:      -7.7      3.152      8.794
REMARK  5 active torsions:
REMARK  status: ('A' for Active; 'I' for Inactive)
REMARK    1  A    between atoms: C_6  and  O_7 
REMARK    2  A    between atoms: O_7  and  C_8 
REMARK    3  A    between atoms: C_8  and  C_9 
REMARK       I    between atoms: C_9  and  N_10 
REMARK    4  A    between atoms: N_10  and  N_11 
REMARK    5  A    between atoms: C_12  and  C_13 
ROOT
HETATM    1  C   UNL     1     -43.441  57.145 -56.353  1.00  0.00     0.261 C 
HETATM    2  N   UNL     1     -43.538  55.792 -56.074  1.00  0.00    -0.246 N 
HETATM    3  O   UNL     1     -42.579  57.900 -55.901  1.00  0.00    -0.269 OA
HETATM    4  H   UNL     1     -44.301  55.244 -56.462  1.00  0.00     0.192 HD
ENDROOT
BRANCH   2   5
HETATM    5  N   UNL     1     -42.589  55.226 -55.280  1.00  0.00    -0.184 NA
HETATM    6  C   UNL     1     -42.882  55.021 -54.040  1.00  0.00     0.152 C 
BRANCH   6   7
HETATM    7  C   UNL     1     -41.889  54.391 -53.189  1.00  0.00     0.011 A 
HETATM    8  C   UNL     1     -41.158  53.171 -53.402  1.00  0.00     0.004 A 
HETATM    9  C   UNL     1     -40.336  52.975 -52.290  1.00  0.00     0.043 A 
HETATM   10  C   UNL     1     -41.118  52.209 -54.435  1.00  0.00     0.014 A 
HETATM   11  C   UNL     1     -39.484  51.871 -52.162  1.00  0.00     0.030 A 
HETATM   12  N   UNL     1     -40.550  54.033 -51.439  1.00  0.00    -0.364 N 
HETATM   13  C   UNL     1     -39.467  50.935 -53.200  1.00  0.00     0.002 A 
HETATM   14  C   UNL     1     -40.272  51.100 -54.323  1.00  0.00     0.001 A 
HETATM   15  H   UNL     1     -40.085  54.148 -50.548  1.00  0.00     0.165 HD
HETATM   16  C   UNL     1     -41.480  54.891 -51.966  1.00  0.00     0.102 A 
ENDBRANCH   6   7
ENDBRANCH   2   5
BRANCH   1  17
HETATM   17  C   UNL     1     -44.464  57.654 -57.360  1.00  0.00     0.280 C 
BRANCH  17  18
HETATM   18  O   UNL     1     -44.011  57.639 -58.716  1.00  0.00    -0.340 OA
BRANCH  18  19
HETATM   19  C   UNL     1     -45.085  57.470 -59.561  1.00  0.00     0.092 A 
HETATM   20  C   UNL     1     -45.377  56.188 -60.045  1.00  0.00     0.045 A 
HETATM   21  C   UNL     1     -46.506  55.976 -60.841  1.00  0.00     0.028 A 
HETATM   22 BR   UNL     1     -44.285  54.697 -59.615  1.00  0.00    -0.048 Br
HETATM   23  C   UNL     1     -47.342  57.045 -61.177  1.00  0.00    -0.060 A 
HETATM   24  C   UNL     1     -48.601  56.817 -61.963  1.00  0.00     0.048 C 
HETATM   25  C   UNL     1     -47.023  58.332 -60.720  1.00  0.00     0.016 A 
HETATM   26  C   UNL     1     -45.880  58.566 -59.938  1.00  0.00    -0.027 A 
HETATM   27  C   UNL     1     -45.584  59.968 -59.487  1.00  0.00     0.051 C 
ENDBRANCH  18  19
ENDBRANCH  17  18
ENDBRANCH   1  17
TORSDOF 5
ENDMDL
MODEL 6
REMARK VINA RESULT:      -7.6      4.971      6.948
REMARK  5 active torsions:
REMARK  status: ('A' for Active; 'I' for Inactive)
REMARK    1  A    between atoms: C_6  and  O_7 
REMARK    2  A    between atoms: O_7  and  C_8 
REMARK    3  A    between atoms: C_8  and  C_9 
REMARK       I    between atoms: C_9  and  N_10 
REMARK    4  A    between atoms: N_10  and  N_11 
REMARK    5  A    between atoms: C_12  and  C_13 
ROOT
HETATM    1  C   UNL     1     -43.153  56.539 -52.301  1.00  0.00     0.261 C 
HETATM    2  N   UNL     1     -43.464  57.159 -51.103  1.00  0.00    -0.246 N 
HETATM    3  O   UNL     1     -43.323  57.031 -53.417  1.00  0.00    -0.269 OA
HETATM    4  H   UNL     1     -43.324  56.670 -50.223  1.00  0.00     0.192 HD
ENDROOT
BRANCH   2   5
HETATM    5  N   UNL     1     -43.951  58.429 -51.139  1.00  0.00    -0.184 NA
HETATM    6  C   UNL     1     -45.207  58.602 -50.899  1.00  0.00     0.152 C 
BRANCH   6   7
HETATM    7  C   UNL     1     -45.734  59.955 -50.906  1.00  0.00     0.011 A 
HETATM    8  C   UNL     1     -45.561  60.998 -49.933  1.00  0.00     0.004 A 
HETATM    9  C   UNL     1     -46.279  62.110 -50.377  1.00  0.00     0.043 A 
HETATM   10  C   UNL     1     -44.862  61.104 -48.710  1.00  0.00     0.014 A 
HETATM   11  C   UNL     1     -46.334  63.314 -49.662  1.00  0.00     0.030 A 
HETATM   12  N   UNL     1     -46.861  61.763 -51.573  1.00  0.00    -0.364 N 
HETATM   13  C   UNL     1     -45.633  63.388 -48.455  1.00  0.00     0.002 A 
HETATM   14  C   UNL     1     -44.905  62.299 -47.983  1.00  0.00     0.001 A 
HETATM   15  H   UNL     1     -47.445  62.381 -52.122  1.00  0.00     0.165 HD
HETATM   16  C   UNL     1     -46.541  60.472 -51.904  1.00  0.00     0.102 A 
ENDBRANCH   6   7
ENDBRANCH   2   5
BRANCH   1  17
HETATM   17  C   UNL     1     -42.485  55.178 -52.150  1.00  0.00     0.280 C 
BRANCH  17  18
HETATM   18  O   UNL     1     -41.065  55.201 -52.314  1.00  0.00    -0.340 OA
BRANCH  18  19
HETATM   19  C   UNL     1     -40.629  53.969 -52.750  1.00  0.00     0.092 A 
HETATM   20  C   UNL     1     -40.202  53.024 -51.807  1.00  0.00     0.045 A 
HETATM   21  C   UNL     1     -39.830  51.740 -52.215  1.00  0.00     0.028 A 
HETATM   22 BR   UNL     1     -40.148  53.431 -49.954  1.00  0.00    -0.048 Br
HETATM   23  C   UNL     1     -39.861  51.396 -53.570  1.00  0.00    -0.060 A 
HETATM   24  C   UNL     1     -39.542  49.997 -54.013  1.00  0.00     0.048 C 
HETATM   25  C   UNL     1     -40.254  52.358 -54.511  1.00  0.00     0.016 A 
HETATM   26  C   UNL     1     -40.610  53.659 -54.120  1.00  0.00    -0.027 A 
HETATM   27  C   UNL     1     -41.011  54.649 -55.175  1.00  0.00     0.051 C 
ENDBRANCH  18  19
ENDBRANCH  17  18
ENDBRANCH   1  17
TORSDOF 5
ENDMDL
MODEL 7
REMARK VINA RESULT:      -7.4      1.974      2.131
REMARK  5 active torsions:
REMARK  status: ('A' for Active; 'I' for Inactive)
REMARK    1  A    between atoms: C_6  and  O_7 
REMARK    2  A    between atoms: O_7  and  C_8 
REMARK    3  A    between atoms: C_8  and  C_9 
REMARK       I    between atoms: C_9  and  N_10 
REMARK    4  A    between atoms: N_10  and  N_11 
REMARK    5  A    between atoms: C_12  and  C_13 
ROOT
HETATM    1  C   UNL     1     -43.102  55.928 -53.417  1.00  0.00     0.261 C 
HETATM    2  N   UNL     1     -42.701  57.250 -53.526  1.00  0.00    -0.246 N 
HETATM    3  O   UNL     1     -43.933  55.379 -54.141  1.00  0.00    -0.269 OA
HETATM    4  H   UNL     1     -42.033  57.637 -52.866  1.00  0.00     0.192 HD
ENDROOT
BRANCH   2   5
HETATM    5  N   UNL     1     -43.218  58.000 -54.536  1.00  0.00    -0.184 NA
HETATM    6  C   UNL     1     -42.431  58.342 -55.500  1.00  0.00     0.152 C 
BRANCH   6   7
HETATM    7  C   UNL     1     -42.978  59.119 -56.598  1.00  0.00     0.011 A 
HETATM    8  C   UNL     1     -42.728  58.991 -58.008  1.00  0.00     0.004 A 
HETATM    9  C   UNL     1     -43.471  59.980 -58.657  1.00  0.00     0.043 A 
HETATM   10  C   UNL     1     -41.936  58.129 -58.798  1.00  0.00     0.014 A 
HETATM   11  C   UNL     1     -43.459  60.148 -60.047  1.00  0.00     0.030 A 
HETATM   12  N   UNL     1     -44.150  60.677 -57.685  1.00  0.00    -0.364 N 
HETATM   13  C   UNL     1     -42.665  59.280 -60.803  1.00  0.00     0.002 A 
HETATM   14  C   UNL     1     -41.913  58.283 -60.188  1.00  0.00     0.001 A 
HETATM   15  H   UNL     1     -44.767  61.456 -57.872  1.00  0.00     0.165 HD
HETATM   16  C   UNL     1     -43.864  60.170 -56.444  1.00  0.00     0.102 A 
ENDBRANCH   6   7
ENDBRANCH   2   5
BRANCH   1  17
HETATM   17  C   UNL     1     -42.364  55.135 -52.346  1.00  0.00     0.280 C 
BRANCH  17  18
HETATM   18  O   UNL     1     -40.943  55.120 -52.502  1.00  0.00    -0.340 OA
BRANCH  18  19
HETATM   19  C   UNL     1     -40.524  53.846 -52.812  1.00  0.00     0.092 A 
HETATM   20  C   UNL     1     -40.214  52.958 -51.772  1.00  0.00     0.045 A 
HETATM   21  C   UNL     1     -39.862  51.636 -52.056  1.00  0.00     0.028 A 
HETATM   22 BR   UNL     1     -40.294  53.499 -49.955  1.00  0.00    -0.048 Br
HETATM   23  C   UNL     1     -39.796  51.194 -53.381  1.00  0.00    -0.060 A 
HETATM   24  C   UNL     1     -39.499  49.756 -53.696  1.00  0.00     0.048 C 
HETATM   25  C   UNL     1     -40.071  52.097 -54.417  1.00  0.00     0.016 A 
HETATM   26  C   UNL     1     -40.405  53.435 -54.150  1.00  0.00    -0.027 A 
HETATM   27  C   UNL     1     -40.678  54.359 -55.303  1.00  0.00     0.051 C 
ENDBRANCH  18  19
ENDBRANCH  17  18
ENDBRANCH   1  17
TORSDOF 5
ENDMDL
MODEL 8
REMARK VINA RESULT:      -7.3      3.102      8.752
REMARK  5 active torsions:
REMARK  status: ('A' for Active; 'I' for Inactive)
REMARK    1  A    between atoms: C_6  and  O_7 
REMARK    2  A    between atoms: O_7  and  C_8 
REMARK    3  A    between atoms: C_8  and  C_9 
REMARK       I    between atoms: C_9  and  N_10 
REMARK    4  A    between atoms: N_10  and  N_11 
REMARK    5  A    between atoms: C_12  and  C_13 
ROOT
HETATM    1  C   UNL     1     -42.893  57.240 -55.162  1.00  0.00     0.261 C 
HETATM    2  N   UNL     1     -42.015  56.190 -55.373  1.00  0.00    -0.246 N 
HETATM    3  O   UNL     1     -43.455  57.488 -54.095  1.00  0.00    -0.269 OA
HETATM    4  H   UNL     1     -41.618  56.034 -56.295  1.00  0.00     0.192 HD
ENDROOT
BRANCH   2   5
HETATM    5  N   UNL     1     -41.699  55.390 -54.319  1.00  0.00    -0.184 NA
HETATM    6  C   UNL     1     -40.875  54.418 -54.523  1.00  0.00     0.152 C 
BRANCH   6   7
HETATM    7  C   UNL     1     -40.508  53.574 -53.400  1.00  0.00     0.011 A 
HETATM    8  C   UNL     1     -40.199  52.170 -53.386  1.00  0.00     0.004 A 
HETATM    9  C   UNL     1     -39.927  51.813 -52.064  1.00  0.00     0.043 A 
HETATM   10  C   UNL     1     -40.128  51.164 -54.374  1.00  0.00     0.014 A 
HETATM   11  C   UNL     1     -39.591  50.507 -51.685  1.00  0.00     0.030 A 
HETATM   12  N   UNL     1     -40.057  52.951 -51.304  1.00  0.00    -0.364 N 
HETATM   13  C   UNL     1     -39.530  49.532 -52.685  1.00  0.00     0.002 A 
HETATM   14  C   UNL     1     -39.794  49.854 -54.013  1.00  0.00     0.001 A 
HETATM   15  H   UNL     1     -39.918  52.984 -50.303  1.00  0.00     0.165 HD
HETATM   16  C   UNL     1     -40.405  54.016 -52.093  1.00  0.00     0.102 A 
ENDBRANCH   6   7
ENDBRANCH   2   5
BRANCH   1  17
HETATM   17  C   UNL     1     -43.073  58.159 -56.363  1.00  0.00     0.280 C 
BRANCH  17  18
HETATM   18  O   UNL     1     -41.978  58.144 -57.283  1.00  0.00    -0.340 OA
BRANCH  18  19
HETATM   19  C   UNL     1     -42.359  58.735 -58.467  1.00  0.00     0.092 A 
HETATM   20  C   UNL     1     -42.934  57.944 -59.470  1.00  0.00     0.045 A 
HETATM   21  C   UNL     1     -43.401  58.530 -60.649  1.00  0.00     0.028 A 
HETATM   22 BR   UNL     1     -43.136  56.069 -59.256  1.00  0.00    -0.048 Br
HETATM   23  C   UNL     1     -43.278  59.909 -60.846  1.00  0.00    -0.060 A 
HETATM   24  C   UNL     1     -43.848  60.563 -62.071  1.00  0.00     0.048 C 
HETATM   25  C   UNL     1     -42.668  60.690 -59.854  1.00  0.00     0.016 A 
HETATM   26  C   UNL     1     -42.174  60.112 -58.672  1.00  0.00    -0.027 A 
HETATM   27  C   UNL     1     -41.519  60.998 -57.651  1.00  0.00     0.051 C 
ENDBRANCH  18  19
ENDBRANCH  17  18
ENDBRANCH   1  17
TORSDOF 5
ENDMDL
MODEL 9
REMARK VINA RESULT:      -7.3      5.720      8.962
REMARK  5 active torsions:
REMARK  status: ('A' for Active; 'I' for Inactive)
REMARK    1  A    between atoms: C_6  and  O_7 
REMARK    2  A    between atoms: O_7  and  C_8 
REMARK    3  A    between atoms: C_8  and  C_9 
REMARK       I    between atoms: C_9  and  N_10 
REMARK    4  A    between atoms: N_10  and  N_11 
REMARK    5  A    between atoms: C_12  and  C_13 
ROOT
HETATM    1  C   UNL     1     -41.724  59.606 -52.001  1.00  0.00     0.261 C 
HETATM    2  N   UNL     1     -41.826  58.283 -51.604  1.00  0.00    -0.246 N 
HETATM    3  O   UNL     1     -41.351  59.985 -53.111  1.00  0.00    -0.269 OA
HETATM    4  H   UNL     1     -42.111  58.055 -50.656  1.00  0.00     0.192 HD
ENDROOT
BRANCH   2   5
HETATM    5  N   UNL     1     -41.542  57.312 -52.513  1.00  0.00    -0.184 NA
HETATM    6  C   UNL     1     -41.474  56.093 -52.096  1.00  0.00     0.152 C 
BRANCH   6   7
HETATM    7  C   UNL     1     -41.201  55.044 -53.061  1.00  0.00     0.011 A 
HETATM    8  C   UNL     1     -40.635  53.740 -52.844  1.00  0.00     0.004 A 
HETATM    9  C   UNL     1     -40.552  53.107 -54.086  1.00  0.00     0.043 A 
HETATM   10  C   UNL     1     -40.181  53.036 -51.707  1.00  0.00     0.014 A 
HETATM   11  C   UNL     1     -40.038  51.813 -54.245  1.00  0.00     0.030 A 
HETATM   12  N   UNL     1     -41.051  53.983 -55.020  1.00  0.00    -0.364 N 
HETATM   13  C   UNL     1     -39.596  51.142 -53.102  1.00  0.00     0.002 A 
HETATM   14  C   UNL     1     -39.665  51.743 -51.848  1.00  0.00     0.001 A 
HETATM   15  H   UNL     1     -41.110  53.786 -56.010  1.00  0.00     0.165 HD
HETATM   16  C   UNL     1     -41.446  55.150 -54.418  1.00  0.00     0.102 A 
ENDBRANCH   6   7
ENDBRANCH   2   5
BRANCH   1  17
HETATM   17  C   UNL     1     -42.197  60.612 -50.959  1.00  0.00     0.280 C 
BRANCH  17  18
HETATM   18  O   UNL     1     -43.361  61.349 -51.341  1.00  0.00    -0.340 OA
BRANCH  18  19
HETATM   19  C   UNL     1     -44.072  61.708 -50.218  1.00  0.00     0.092 A 
HETATM   20  C   UNL     1     -45.063  60.843 -49.732  1.00  0.00     0.045 A 
HETATM   21  C   UNL     1     -45.744  61.146 -48.551  1.00  0.00     0.028 A 
HETATM   22 BR   UNL     1     -45.490  59.227 -50.630  1.00  0.00    -0.048 Br
HETATM   23  C   UNL     1     -45.457  62.323 -47.854  1.00  0.00    -0.060 A 
HETATM   24  C   UNL     1     -46.123  62.620 -46.542  1.00  0.00     0.048 C 
HETATM   25  C   UNL     1     -44.491  63.201 -48.364  1.00  0.00     0.016 A 
HETATM   26  C   UNL     1     -43.812  62.923 -49.563  1.00  0.00    -0.027 A 
HETATM   27  C   UNL     1     -42.796  63.908 -50.066  1.00  0.00     0.051 C 
ENDBRANCH  18  19
ENDBRANCH  17  18
ENDBRANCH   1  17
TORSDOF 5
ENDMDL
MODEL 10
REMARK VINA RESULT:      -7.1      2.402      2.807
REMARK  5 active torsions:
REMARK  status: ('A' for Active; 'I' for Inactive)
REMARK    1  A    between atoms: C_6  and  O_7 
REMARK    2  A    between atoms: O_7  and  C_8 
REMARK    3  A    between atoms: C_8  and  C_9 
REMARK       I    between atoms: C_9  and  N_10 
REMARK    4  A    between atoms: N_10  and  N_11 
REMARK    5  A    between atoms: C_12  and  C_13 
ROOT
HETATM    1  C   UNL     1     -42.904  56.313 -53.332  1.00  0.00     0.261 C 
HETATM    2  N   UNL     1     -44.283  56.341 -53.453  1.00  0.00    -0.246 N 
HETATM    3  O   UNL     1     -42.141  57.197 -53.722  1.00  0.00    -0.269 OA
HETATM    4  H   UNL     1     -44.840  55.553 -53.135  1.00  0.00     0.192 HD
ENDROOT
BRANCH   2   5
HETATM    5  N   UNL     1     -44.861  57.445 -54.000  1.00  0.00    -0.184 NA
HETATM    6  C   UNL     1     -44.816  57.579 -55.283  1.00  0.00     0.152 C 
BRANCH   6   7
HETATM    7  C   UNL     1     -45.455  58.737 -55.881  1.00  0.00     0.011 A 
HETATM    8  C   UNL     1     -46.111  58.851 -57.155  1.00  0.00     0.004 A 
HETATM    9  C   UNL     1     -46.545  60.171 -57.287  1.00  0.00     0.043 A 
HETATM   10  C   UNL     1     -46.376  57.955 -58.214  1.00  0.00     0.014 A 
HETATM   11  C   UNL     1     -47.225  60.637 -58.420  1.00  0.00     0.030 A 
HETATM   12  N   UNL     1     -46.176  60.834 -56.140  1.00  0.00    -0.364 N 
HETATM   13  C   UNL     1     -47.472  59.728 -59.452  1.00  0.00     0.002 A 
HETATM   14  C   UNL     1     -47.054  58.404 -59.353  1.00  0.00     0.001 A 
HETATM   15  H   UNL     1     -46.362  61.812 -55.964  1.00  0.00     0.165 HD
HETATM   16  C   UNL     1     -45.521  59.985 -55.287  1.00  0.00     0.102 A 
ENDBRANCH   6   7
ENDBRANCH   2   5
BRANCH   1  17
HETATM   17  C   UNL     1     -42.364  55.101 -52.582  1.00  0.00     0.280 C 
BRANCH  17  18
HETATM   18  O   UNL     1     -40.938  55.052 -52.497  1.00  0.00    -0.340 OA
BRANCH  18  19
HETATM   19  C   UNL     1     -40.502  53.772 -52.758  1.00  0.00     0.092 A 
HETATM   20  C   UNL     1     -40.209  52.919 -51.685  1.00  0.00     0.045 A 
HETATM   21  C   UNL     1     -39.840  51.592 -51.920  1.00  0.00     0.028 A 
HETATM   22 BR   UNL     1     -40.334  53.514 -49.887  1.00  0.00    -0.048 Br
HETATM   23  C   UNL     1     -39.742  51.110 -53.229  1.00  0.00    -0.060 A 
HETATM   24  C   UNL     1     -39.427  49.666 -53.493  1.00  0.00     0.048 C 
HETATM   25  C   UNL     1     -40.001  51.979 -54.298  1.00  0.00     0.016 A 
HETATM   26  C   UNL     1     -40.351  53.321 -54.080  1.00  0.00    -0.027 A 
HETATM   27  C   UNL     1     -40.605  54.207 -55.266  1.00  0.00     0.051 C 
ENDBRANCH  18  19
ENDBRANCH  17  18
ENDBRANCH   1  17
TORSDOF 5
ENDMDL
