MODEL 1
REMARK VINA RESULT:      -8.4      0.000      0.000
REMARK  8 active torsions:
REMARK  status: ('A' for Active; 'I' for Inactive)
REMARK    1  A    between atoms: C_4  and  N_5 
REMARK       I    between atoms: N_5  and  C_6 
REMARK    2  A    between atoms: C_6  and  C_7 
REMARK    3  A    between atoms: C_7  and  N_8 
REMARK    4  A    between atoms: C_7  and  C_24 
REMARK    5  A    between atoms: N_8  and  C_11 
REMARK    6  A    between atoms: C_11  and  C_12 
REMARK    7  A    between atoms: C_15  and  N_16 
REMARK    8  A    between atoms: C_31  and  O_32 
ROOT
HETATM    1  C   UNL     1     -42.241  54.774 -52.926  1.00  0.00     0.310 C 
ENDROOT
BRANCH   1   2
HETATM    2  C   UNL     1     -43.088  54.856 -51.633  1.00  0.00     0.257 C 
HETATM    3  N   UNL     1     -43.116  55.964 -50.842  1.00  0.00    -0.323 N 
HETATM    4  H   UNL     1     -43.429  55.785 -49.889  1.00  0.00     0.169 HD
HETATM    5  O   UNL     1     -43.734  53.852 -51.299  1.00  0.00    -0.270 OA
BRANCH   3   6
HETATM    6  C   UNL     1     -42.568  57.252 -51.028  1.00  0.00     0.069 A 
HETATM    7  C   UNL     1     -41.201  57.525 -50.917  1.00  0.00     0.039 A 
HETATM    8  C   UNL     1     -40.717  58.826 -51.106  1.00  0.00    -0.060 A 
HETATM    9  C   UNL     1     -39.253  59.124 -50.952  1.00  0.00     0.048 C 
HETATM   10  C   UNL     1     -41.618  59.852 -51.403  1.00  0.00     0.009 A 
HETATM   11  C   UNL     1     -42.979  59.580 -51.562  1.00  0.00     0.039 A 
HETATM   12  C   UNL     1     -43.460  58.281 -51.389  1.00  0.00     0.095 A 
BRANCH  12  13
HETATM   13  O   UNL     1     -44.776  57.904 -51.506  1.00  0.00    -0.354 OA
HETATM   14  C   UNL     1     -45.756  58.831 -51.048  1.00  0.00     0.210 C 
ENDBRANCH  12  13
ENDBRANCH   3   6
ENDBRANCH   1   2
BRANCH   1  15
HETATM   15  N   UNL     1     -43.161  54.821 -54.144  1.00  0.00    -0.054 N 
HETATM   16  H   UNL     1     -42.544  54.869 -54.969  1.00  0.00     0.278 HD
HETATM   17  H   UNL     1     -43.691  53.948 -54.214  1.00  0.00     0.278 HD
BRANCH  15  18
HETATM   18  C   UNL     1     -44.094  55.977 -54.261  1.00  0.00     0.272 C 
BRANCH  18  19
HETATM   19  C   UNL     1     -43.672  56.884 -55.383  1.00  0.00    -0.033 A 
HETATM   20  C   UNL     1     -44.136  58.203 -55.435  1.00  0.00     0.011 A 
HETATM   21  C   UNL     1     -43.776  59.046 -56.491  1.00  0.00     0.030 A 
HETATM   22  C   UNL     1     -42.929  58.609 -57.516  1.00  0.00     0.037 A 
HETATM   23  C   UNL     1     -42.452  57.293 -57.447  1.00  0.00     0.030 A 
HETATM   24  C   UNL     1     -42.825  56.435 -56.402  1.00  0.00     0.011 A 
BRANCH  22  25
HETATM   25  N   UNL     1     -42.554  59.469 -58.580  1.00  0.00    -0.318 N 
HETATM   26  C   UNL     1     -41.613  60.512 -58.507  1.00  0.00     0.224 C 
HETATM   27  O   UNL     1     -40.959  60.887 -57.547  1.00  0.00    -0.273 OA
HETATM   28  C   UNL     1     -41.593  61.207 -59.849  1.00  0.00     0.105 C 
HETATM   29  C   UNL     1     -42.227  60.187 -60.774  1.00  0.00     0.029 C 
HETATM   30  C   UNL     1     -43.199  59.454 -59.873  1.00  0.00     0.133 C 
ENDBRANCH  22  25
ENDBRANCH  18  19
ENDBRANCH  15  18
ENDBRANCH   1  15
BRANCH   1  31
HETATM   31  C   UNL     1     -41.269  53.611 -53.002  1.00  0.00    -0.019 A 
HETATM   32  C   UNL     1     -41.183  52.856 -54.185  1.00  0.00     0.010 A 
HETATM   33  C   UNL     1     -40.324  51.757 -54.264  1.00  0.00     0.001 A 
HETATM   34  C   UNL     1     -39.549  51.394 -53.166  1.00  0.00     0.000 A 
HETATM   35  C   UNL     1     -39.629  52.125 -51.984  1.00  0.00     0.001 A 
HETATM   36  C   UNL     1     -40.486  53.223 -51.899  1.00  0.00     0.010 A 
ENDBRANCH   1  31
TORSDOF 8
ENDMDL
MODEL 2
REMARK VINA RESULT:      -8.3      1.902      2.355
REMARK  8 active torsions:
REMARK  status: ('A' for Active; 'I' for Inactive)
REMARK    1  A    between atoms: C_4  and  N_5 
REMARK       I    between atoms: N_5  and  C_6 
REMARK    2  A    between atoms: C_6  and  C_7 
REMARK    3  A    between atoms: C_7  and  N_8 
REMARK    4  A    between atoms: C_7  and  C_24 
REMARK    5  A    between atoms: N_8  and  C_11 
REMARK    6  A    between atoms: C_11  and  C_12 
REMARK    7  A    between atoms: C_15  and  N_16 
REMARK    8  A    between atoms: C_31  and  O_32 
ROOT
HETATM    1  C   UNL     1     -41.379  54.543 -52.784  1.00  0.00     0.310 C 
ENDROOT
BRANCH   1   2
HETATM    2  C   UNL     1     -42.369  54.664 -51.600  1.00  0.00     0.257 C 
HETATM    3  N   UNL     1     -42.596  55.839 -50.950  1.00  0.00    -0.323 N 
HETATM    4  H   UNL     1     -42.995  55.726 -50.018  1.00  0.00     0.169 HD
HETATM    5  O   UNL     1     -42.943  53.634 -51.217  1.00  0.00    -0.270 OA
BRANCH   3   6
HETATM    6  C   UNL     1     -42.165  57.153 -51.228  1.00  0.00     0.069 A 
HETATM    7  C   UNL     1     -41.002  57.708 -50.684  1.00  0.00     0.039 A 
HETATM    8  C   UNL     1     -40.627  59.022 -50.993  1.00  0.00    -0.060 A 
HETATM    9  C   UNL     1     -39.397  59.627 -50.381  1.00  0.00     0.048 C 
HETATM   10  C   UNL     1     -41.434  59.777 -51.849  1.00  0.00     0.009 A 
HETATM   11  C   UNL     1     -42.572  59.216 -52.433  1.00  0.00     0.039 A 
HETATM   12  C   UNL     1     -42.937  57.902 -52.138  1.00  0.00     0.095 A 
BRANCH  12  13
HETATM   13  O   UNL     1     -44.041  57.256 -52.643  1.00  0.00    -0.354 OA
HETATM   14  C   UNL     1     -44.931  58.030 -53.442  1.00  0.00     0.210 C 
ENDBRANCH  12  13
ENDBRANCH   3   6
ENDBRANCH   1   2
BRANCH   1  15
HETATM   15  N   UNL     1     -42.058  55.014 -54.068  1.00  0.00    -0.054 N 
HETATM   16  H   UNL     1     -42.180  54.173 -54.653  1.00  0.00     0.278 HD
HETATM   17  H   UNL     1     -42.993  55.372 -53.856  1.00  0.00     0.278 HD
BRANCH  15  18
HETATM   18  C   UNL     1     -41.329  56.000 -54.914  1.00  0.00     0.272 C 
BRANCH  18  19
HETATM   19  C   UNL     1     -42.240  56.567 -55.967  1.00  0.00    -0.033 A 
HETATM   20  C   UNL     1     -42.796  55.731 -56.941  1.00  0.00     0.011 A 
HETATM   21  C   UNL     1     -43.619  56.252 -57.944  1.00  0.00     0.030 A 
HETATM   22  C   UNL     1     -43.930  57.615 -57.997  1.00  0.00     0.037 A 
HETATM   23  C   UNL     1     -43.387  58.443 -57.005  1.00  0.00     0.030 A 
HETATM   24  C   UNL     1     -42.543  57.932 -56.008  1.00  0.00     0.011 A 
BRANCH  22  25
HETATM   25  N   UNL     1     -44.777  58.141 -59.007  1.00  0.00    -0.318 N 
HETATM   26  C   UNL     1     -46.182  58.078 -59.023  1.00  0.00     0.224 C 
HETATM   27  O   UNL     1     -46.935  57.567 -58.209  1.00  0.00    -0.273 OA
HETATM   28  C   UNL     1     -46.654  58.692 -60.321  1.00  0.00     0.105 C 
HETATM   29  C   UNL     1     -45.455  59.501 -60.775  1.00  0.00     0.029 C 
HETATM   30  C   UNL     1     -44.279  58.715 -60.235  1.00  0.00     0.133 C 
ENDBRANCH  22  25
ENDBRANCH  18  19
ENDBRANCH  15  18
ENDBRANCH   1  15
BRANCH   1  31
HETATM   31  C   UNL     1     -40.727  53.185 -52.959  1.00  0.00    -0.019 A 
HETATM   32  C   UNL     1     -40.925  52.469 -54.153  1.00  0.00     0.010 A 
HETATM   33  C   UNL     1     -40.367  51.200 -54.321  1.00  0.00     0.001 A 
HETATM   34  C   UNL     1     -39.613  50.626 -53.300  1.00  0.00     0.000 A 
HETATM   35  C   UNL     1     -39.415  51.317 -52.108  1.00  0.00     0.001 A 
HETATM   36  C   UNL     1     -39.971  52.585 -51.934  1.00  0.00     0.010 A 
ENDBRANCH   1  31
TORSDOF 8
ENDMDL
MODEL 3
REMARK VINA RESULT:      -8.2      2.595      7.402
REMARK  8 active torsions:
REMARK  status: ('A' for Active; 'I' for Inactive)
REMARK    1  A    between atoms: C_4  and  N_5 
REMARK       I    between atoms: N_5  and  C_6 
REMARK    2  A    between atoms: C_6  and  C_7 
REMARK    3  A    between atoms: C_7  and  N_8 
REMARK    4  A    between atoms: C_7  and  C_24 
REMARK    5  A    between atoms: N_8  and  C_11 
REMARK    6  A    between atoms: C_11  and  C_12 
REMARK    7  A    between atoms: C_15  and  N_16 
REMARK    8  A    between atoms: C_31  and  O_32 
ROOT
HETATM    1  C   UNL     1     -43.320  56.754 -57.438  1.00  0.00     0.310 C 
ENDROOT
BRANCH   1   2
HETATM    2  C   UNL     1     -42.471  58.046 -57.540  1.00  0.00     0.257 C 
HETATM    3  N   UNL     1     -42.242  58.860 -56.474  1.00  0.00    -0.323 N 
HETATM    4  H   UNL     1     -41.966  59.808 -56.729  1.00  0.00     0.169 HD
HETATM    5  O   UNL     1     -42.020  58.355 -58.653  1.00  0.00    -0.270 OA
BRANCH   3   6
HETATM    6  C   UNL     1     -42.545  58.705 -55.104  1.00  0.00     0.069 A 
HETATM    7  C   UNL     1     -41.606  58.292 -54.155  1.00  0.00     0.039 A 
HETATM    8  C   UNL     1     -41.968  58.150 -52.809  1.00  0.00    -0.060 A 
HETATM    9  C   UNL     1     -40.967  57.673 -51.796  1.00  0.00     0.048 C 
HETATM   10  C   UNL     1     -43.284  58.421 -52.425  1.00  0.00     0.009 A 
HETATM   11  C   UNL     1     -44.218  58.879 -53.359  1.00  0.00     0.039 A 
HETATM   12  C   UNL     1     -43.853  59.035 -54.697  1.00  0.00     0.095 A 
BRANCH  12  13
HETATM   13  O   UNL     1     -44.691  59.463 -55.699  1.00  0.00    -0.354 OA
HETATM   14  C   UNL     1     -45.279  60.751 -55.541  1.00  0.00     0.210 C 
ENDBRANCH  12  13
ENDBRANCH   3   6
ENDBRANCH   1   2
BRANCH   1  15
HETATM   15  N   UNL     1     -42.431  55.593 -56.997  1.00  0.00    -0.054 N 
HETATM   16  H   UNL     1     -42.006  55.213 -57.856  1.00  0.00     0.278 HD
HETATM   17  H   UNL     1     -41.668  55.942 -56.411  1.00  0.00     0.278 HD
BRANCH  15  18
HETATM   18  C   UNL     1     -43.088  54.439 -56.320  1.00  0.00     0.272 C 
BRANCH  18  19
HETATM   19  C   UNL     1     -42.656  54.355 -54.883  1.00  0.00    -0.033 A 
HETATM   20  C   UNL     1     -41.355  53.953 -54.561  1.00  0.00     0.011 A 
HETATM   21  C   UNL     1     -40.951  53.840 -53.227  1.00  0.00     0.030 A 
HETATM   22  C   UNL     1     -41.821  54.143 -52.174  1.00  0.00     0.037 A 
HETATM   23  C   UNL     1     -43.116  54.567 -52.504  1.00  0.00     0.030 A 
HETATM   24  C   UNL     1     -43.535  54.662 -53.840  1.00  0.00     0.011 A 
BRANCH  22  25
HETATM   25  N   UNL     1     -41.406  54.042 -50.822  1.00  0.00    -0.318 N 
HETATM   26  C   UNL     1     -40.562  53.053 -50.288  1.00  0.00     0.224 C 
HETATM   27  O   UNL     1     -40.041  52.104 -50.853  1.00  0.00    -0.273 OA
HETATM   28  C   UNL     1     -40.457  53.292 -48.799  1.00  0.00     0.105 C 
HETATM   29  C   UNL     1     -40.912  54.731 -48.650  1.00  0.00     0.029 C 
HETATM   30  C   UNL     1     -41.911  54.900 -49.775  1.00  0.00     0.133 C 
ENDBRANCH  22  25
ENDBRANCH  18  19
ENDBRANCH  15  18
ENDBRANCH   1  15
BRANCH   1  31
HETATM   31  C   UNL     1     -44.132  56.402 -58.670  1.00  0.00    -0.019 A 
HETATM   32  C   UNL     1     -45.326  57.096 -58.935  1.00  0.00     0.010 A 
HETATM   33  C   UNL     1     -46.109  56.761 -60.042  1.00  0.00     0.001 A 
HETATM   34  C   UNL     1     -45.718  55.729 -60.891  1.00  0.00     0.000 A 
HETATM   35  C   UNL     1     -44.544  55.026 -60.638  1.00  0.00     0.001 A 
HETATM   36  C   UNL     1     -43.758  55.355 -59.533  1.00  0.00     0.010 A 
ENDBRANCH   1  31
TORSDOF 8
ENDMDL
MODEL 4
REMARK VINA RESULT:      -8.2      2.398      7.010
REMARK  8 active torsions:
REMARK  status: ('A' for Active; 'I' for Inactive)
REMARK    1  A    between atoms: C_4  and  N_5 
REMARK       I    between atoms: N_5  and  C_6 
REMARK    2  A    between atoms: C_6  and  C_7 
REMARK    3  A    between atoms: C_7  and  N_8 
REMARK    4  A    between atoms: C_7  and  C_24 
REMARK    5  A    between atoms: N_8  and  C_11 
REMARK    6  A    between atoms: C_11  and  C_12 
REMARK    7  A    between atoms: C_15  and  N_16 
REMARK    8  A    between atoms: C_31  and  O_32 
ROOT
HETATM    1  C   UNL     1     -42.387  56.639 -55.078  1.00  0.00     0.310 C 
ENDROOT
BRANCH   1   2
HETATM    2  C   UNL     1     -43.569  56.099 -54.235  1.00  0.00     0.257 C 
HETATM    3  N   UNL     1     -43.463  54.998 -53.442  1.00  0.00    -0.323 N 
HETATM    4  H   UNL     1     -44.357  54.566 -53.212  1.00  0.00     0.169 HD
HETATM    5  O   UNL     1     -44.659  56.684 -54.326  1.00  0.00    -0.270 OA
BRANCH   3   6
HETATM    6  C   UNL     1     -42.345  54.215 -53.084  1.00  0.00     0.069 A 
HETATM    7  C   UNL     1     -41.795  53.238 -53.920  1.00  0.00     0.039 A 
HETATM    8  C   UNL     1     -40.686  52.488 -53.507  1.00  0.00    -0.060 A 
HETATM    9  C   UNL     1     -40.119  51.416 -54.392  1.00  0.00     0.048 C 
HETATM   10  C   UNL     1     -40.138  52.723 -52.243  1.00  0.00     0.009 A 
HETATM   11  C   UNL     1     -40.651  53.728 -51.420  1.00  0.00     0.039 A 
HETATM   12  C   UNL     1     -41.746  54.486 -51.838  1.00  0.00     0.095 A 
BRANCH  12  13
HETATM   13  O   UNL     1     -42.339  55.487 -51.106  1.00  0.00    -0.354 OA
HETATM   14  C   UNL     1     -41.596  56.012 -50.010  1.00  0.00     0.210 C 
ENDBRANCH  12  13
ENDBRANCH   3   6
ENDBRANCH   1   2
BRANCH   1  15
HETATM   15  N   UNL     1     -42.007  58.035 -54.589  1.00  0.00    -0.054 N 
HETATM   16  H   UNL     1     -41.372  58.426 -55.302  1.00  0.00     0.278 HD
HETATM   17  H   UNL     1     -42.837  58.633 -54.564  1.00  0.00     0.278 HD
BRANCH  15  18
HETATM   18  C   UNL     1     -41.281  58.140 -53.292  1.00  0.00     0.272 C 
BRANCH  18  19
HETATM   19  C   UNL     1     -42.026  59.035 -52.341  1.00  0.00    -0.033 A 
HETATM   20  C   UNL     1     -43.336  59.434 -52.631  1.00  0.00     0.011 A 
HETATM   21  C   UNL     1     -44.028  60.293 -51.771  1.00  0.00     0.030 A 
HETATM   22  C   UNL     1     -43.447  60.763 -50.588  1.00  0.00     0.037 A 
HETATM   23  C   UNL     1     -42.142  60.341 -50.294  1.00  0.00     0.030 A 
HETATM   24  C   UNL     1     -41.434  59.498 -51.162  1.00  0.00     0.011 A 
BRANCH  22  25
HETATM   25  N   UNL     1     -44.155  61.622 -49.709  1.00  0.00    -0.318 N 
HETATM   26  C   UNL     1     -45.256  61.264 -48.912  1.00  0.00     0.224 C 
HETATM   27  O   UNL     1     -45.818  60.184 -48.823  1.00  0.00    -0.273 OA
HETATM   28  C   UNL     1     -45.734  62.510 -48.203  1.00  0.00     0.105 C 
HETATM   29  C   UNL     1     -44.544  63.443 -48.306  1.00  0.00     0.029 C 
HETATM   30  C   UNL     1     -43.897  63.041 -49.614  1.00  0.00     0.133 C 
ENDBRANCH  22  25
ENDBRANCH  18  19
ENDBRANCH  15  18
ENDBRANCH   1  15
BRANCH   1  31
HETATM   31  C   UNL     1     -42.582  56.605 -56.582  1.00  0.00    -0.019 A 
HETATM   32  C   UNL     1     -42.369  57.772 -57.335  1.00  0.00     0.010 A 
HETATM   33  C   UNL     1     -42.580  57.774 -58.716  1.00  0.00     0.001 A 
HETATM   34  C   UNL     1     -43.013  56.617 -59.360  1.00  0.00     0.000 A 
HETATM   35  C   UNL     1     -43.237  55.455 -58.627  1.00  0.00     0.001 A 
HETATM   36  C   UNL     1     -43.029  55.448 -57.248  1.00  0.00     0.010 A 
ENDBRANCH   1  31
TORSDOF 8
ENDMDL
MODEL 5
REMARK VINA RESULT:      -8.1      1.797      2.339
REMARK  8 active torsions:
REMARK  status: ('A' for Active; 'I' for Inactive)
REMARK    1  A    between atoms: C_4  and  N_5 
REMARK       I    between atoms: N_5  and  C_6 
REMARK    2  A    between atoms: C_6  and  C_7 
REMARK    3  A    between atoms: C_7  and  N_8 
REMARK    4  A    between atoms: C_7  and  C_24 
REMARK    5  A    between atoms: N_8  and  C_11 
REMARK    6  A    between atoms: C_11  and  C_12 
REMARK    7  A    between atoms: C_15  and  N_16 
REMARK    8  A    between atoms: C_31  and  O_32 
ROOT
HETATM    1  C   UNL     1     -41.221  54.433 -53.231  1.00  0.00     0.310 C 
ENDROOT
BRANCH   1   2
HETATM    2  C   UNL     1     -42.575  54.598 -52.498  1.00  0.00     0.257 C 
HETATM    3  N   UNL     1     -42.920  55.738 -51.839  1.00  0.00    -0.323 N 
HETATM    4  H   UNL     1     -43.656  55.609 -51.146  1.00  0.00     0.169 HD
HETATM    5  O   UNL     1     -43.350  53.630 -52.489  1.00  0.00    -0.270 OA
BRANCH   3   6
HETATM    6  C   UNL     1     -42.288  56.998 -51.769  1.00  0.00     0.069 A 
HETATM    7  C   UNL     1     -42.468  57.998 -52.730  1.00  0.00     0.039 A 
HETATM    8  C   UNL     1     -41.808  59.228 -52.610  1.00  0.00    -0.060 A 
HETATM    9  C   UNL     1     -41.974  60.288 -53.661  1.00  0.00     0.048 C 
HETATM   10  C   UNL     1     -40.961  59.443 -51.520  1.00  0.00     0.009 A 
HETATM   11  C   UNL     1     -40.812  58.468 -50.531  1.00  0.00     0.039 A 
HETATM   12  C   UNL     1     -41.481  57.248 -50.642  1.00  0.00     0.095 A 
BRANCH  12  13
HETATM   13  O   UNL     1     -41.397  56.216 -49.739  1.00  0.00    -0.354 OA
HETATM   14  C   UNL     1     -40.223  55.409 -49.790  1.00  0.00     0.210 C 
ENDBRANCH  12  13
ENDBRANCH   3   6
ENDBRANCH   1   2
BRANCH   1  15
HETATM   15  N   UNL     1     -41.345  54.964 -54.658  1.00  0.00    -0.054 N 
HETATM   16  H   UNL     1     -41.043  55.949 -54.625  1.00  0.00     0.278 HD
HETATM   17  H   UNL     1     -40.693  54.468 -55.271  1.00  0.00     0.278 HD
BRANCH  15  18
HETATM   18  C   UNL     1     -42.700  54.970 -55.277  1.00  0.00     0.272 C 
BRANCH  18  19
HETATM   19  C   UNL     1     -42.742  55.918 -56.444  1.00  0.00    -0.033 A 
HETATM   20  C   UNL     1     -42.459  57.275 -56.258  1.00  0.00     0.011 A 
HETATM   21  C   UNL     1     -42.526  58.172 -57.329  1.00  0.00     0.030 A 
HETATM   22  C   UNL     1     -42.855  57.743 -58.619  1.00  0.00     0.037 A 
HETATM   23  C   UNL     1     -43.116  56.378 -58.802  1.00  0.00     0.030 A 
HETATM   24  C   UNL     1     -43.072  55.476 -57.729  1.00  0.00     0.011 A 
BRANCH  22  25
HETATM   25  N   UNL     1     -42.909  58.651 -59.708  1.00  0.00    -0.318 N 
HETATM   26  C   UNL     1     -44.011  59.446 -60.067  1.00  0.00     0.224 C 
HETATM   27  O   UNL     1     -45.113  59.510 -59.544  1.00  0.00    -0.273 OA
HETATM   28  C   UNL     1     -43.647  60.194 -61.329  1.00  0.00     0.105 C 
HETATM   29  C   UNL     1     -42.133  60.108 -61.354  1.00  0.00     0.029 C 
HETATM   30  C   UNL     1     -41.848  58.783 -60.679  1.00  0.00     0.133 C 
ENDBRANCH  22  25
ENDBRANCH  18  19
ENDBRANCH  15  18
ENDBRANCH   1  15
BRANCH   1  31
HETATM   31  C   UNL     1     -40.622  53.040 -53.200  1.00  0.00    -0.019 A 
HETATM   32  C   UNL     1     -40.688  52.231 -54.348  1.00  0.00     0.010 A 
HETATM   33  C   UNL     1     -40.178  50.931 -54.330  1.00  0.00     0.001 A 
HETATM   34  C   UNL     1     -39.604  50.420 -53.169  1.00  0.00     0.000 A 
HETATM   35  C   UNL     1     -39.539  51.204 -52.021  1.00  0.00     0.001 A 
HETATM   36  C   UNL     1     -40.048  52.503 -52.032  1.00  0.00     0.010 A 
ENDBRANCH   1  31
TORSDOF 8
ENDMDL
MODEL 6
REMARK VINA RESULT:      -8.0      2.346      7.548
REMARK  8 active torsions:
REMARK  status: ('A' for Active; 'I' for Inactive)
REMARK    1  A    between atoms: C_4  and  N_5 
REMARK       I    between atoms: N_5  and  C_6 
REMARK    2  A    between atoms: C_6  and  C_7 
REMARK    3  A    between atoms: C_7  and  N_8 
REMARK    4  A    between atoms: C_7  and  C_24 
REMARK    5  A    between atoms: N_8  and  C_11 
REMARK    6  A    between atoms: C_11  and  C_12 
REMARK    7  A    between atoms: C_15  and  N_16 
REMARK    8  A    between atoms: C_31  and  O_32 
ROOT
HETATM    1  C   UNL     1     -42.893  58.380 -56.583  1.00  0.00     0.310 C 
ENDROOT
BRANCH   1   2
HETATM    2  C   UNL     1     -42.090  59.700 -56.687  1.00  0.00     0.257 C 
HETATM    3  N   UNL     1     -42.139  60.665 -55.728  1.00  0.00    -0.323 N 
HETATM    4  H   UNL     1     -41.847  61.586 -56.054  1.00  0.00     0.169 HD
HETATM    5  O   UNL     1     -41.410  59.885 -57.706  1.00  0.00    -0.270 OA
BRANCH   3   6
HETATM    6  C   UNL     1     -42.740  60.678 -54.451  1.00  0.00     0.069 A 
HETATM    7  C   UNL     1     -44.018  61.191 -54.212  1.00  0.00     0.039 A 
HETATM    8  C   UNL     1     -44.560  61.182 -52.920  1.00  0.00    -0.060 A 
HETATM    9  C   UNL     1     -45.918  61.765 -52.659  1.00  0.00     0.048 C 
HETATM   10  C   UNL     1     -43.804  60.656 -51.869  1.00  0.00     0.009 A 
HETATM   11  C   UNL     1     -42.545  60.099 -52.106  1.00  0.00     0.039 A 
HETATM   12  C   UNL     1     -42.011  60.094 -53.395  1.00  0.00     0.095 A 
BRANCH  12  13
HETATM   13  O   UNL     1     -40.781  59.587 -53.740  1.00  0.00    -0.354 OA
HETATM   14  C   UNL     1     -40.100  58.822 -52.750  1.00  0.00     0.210 C 
ENDBRANCH  12  13
ENDBRANCH   3   6
ENDBRANCH   1   2
BRANCH   1  15
HETATM   15  N   UNL     1     -42.105  57.366 -55.756  1.00  0.00    -0.054 N 
HETATM   16  H   UNL     1     -41.939  56.557 -56.375  1.00  0.00     0.278 HD
HETATM   17  H   UNL     1     -41.189  57.752 -55.513  1.00  0.00     0.278 HD
BRANCH  15  18
HETATM   18  C   UNL     1     -42.754  56.819 -54.531  1.00  0.00     0.272 C 
BRANCH  18  19
HETATM   19  C   UNL     1     -42.098  55.531 -54.118  1.00  0.00    -0.033 A 
HETATM   20  C   UNL     1     -42.641  54.768 -53.078  1.00  0.00     0.011 A 
HETATM   21  C   UNL     1     -42.022  53.585 -52.663  1.00  0.00     0.030 A 
HETATM   22  C   UNL     1     -40.858  53.115 -53.281  1.00  0.00     0.037 A 
HETATM   23  C   UNL     1     -40.333  53.874 -54.336  1.00  0.00     0.030 A 
HETATM   24  C   UNL     1     -40.935  55.073 -54.744  1.00  0.00     0.011 A 
BRANCH  22  25
HETATM   25  N   UNL     1     -40.240  51.907 -52.868  1.00  0.00    -0.318 N 
HETATM   26  C   UNL     1     -39.878  51.571 -51.551  1.00  0.00     0.224 C 
HETATM   27  O   UNL     1     -40.006  52.229 -50.531  1.00  0.00    -0.273 OA
HETATM   28  C   UNL     1     -39.181  50.231 -51.593  1.00  0.00     0.105 C 
HETATM   29  C   UNL     1     -39.607  49.664 -52.933  1.00  0.00     0.029 C 
HETATM   30  C   UNL     1     -39.784  50.897 -53.794  1.00  0.00     0.133 C 
ENDBRANCH  22  25
ENDBRANCH  18  19
ENDBRANCH  15  18
ENDBRANCH   1  15
BRANCH   1  31
HETATM   31  C   UNL     1     -43.359  57.788 -57.900  1.00  0.00    -0.019 A 
HETATM   32  C   UNL     1     -42.753  56.617 -58.388  1.00  0.00     0.010 A 
HETATM   33  C   UNL     1     -43.139  56.077 -59.617  1.00  0.00     0.001 A 
HETATM   34  C   UNL     1     -44.125  56.701 -60.377  1.00  0.00     0.000 A 
HETATM   35  C   UNL     1     -44.728  57.866 -59.914  1.00  0.00     0.001 A 
HETATM   36  C   UNL     1     -44.346  58.411 -58.687  1.00  0.00     0.010 A 
ENDBRANCH   1  31
TORSDOF 8
ENDMDL
MODEL 7
REMARK VINA RESULT:      -7.9      2.413      7.188
REMARK  8 active torsions:
REMARK  status: ('A' for Active; 'I' for Inactive)
REMARK    1  A    between atoms: C_4  and  N_5 
REMARK       I    between atoms: N_5  and  C_6 
REMARK    2  A    between atoms: C_6  and  C_7 
REMARK    3  A    between atoms: C_7  and  N_8 
REMARK    4  A    between atoms: C_7  and  C_24 
REMARK    5  A    between atoms: N_8  and  C_11 
REMARK    6  A    between atoms: C_11  and  C_12 
REMARK    7  A    between atoms: C_15  and  N_16 
REMARK    8  A    between atoms: C_31  and  O_32 
ROOT
HETATM    1  C   UNL     1     -44.464  58.015 -54.907  1.00  0.00     0.310 C 
ENDROOT
BRANCH   1   2
HETATM    2  C   UNL     1     -44.619  58.983 -53.708  1.00  0.00     0.257 C 
HETATM    3  N   UNL     1     -44.116  58.708 -52.473  1.00  0.00    -0.323 N 
HETATM    4  H   UNL     1     -44.553  59.240 -51.720  1.00  0.00     0.169 HD
HETATM    5  O   UNL     1     -45.261  60.029 -53.887  1.00  0.00    -0.270 OA
BRANCH   3   6
HETATM    6  C   UNL     1     -43.281  57.664 -52.021  1.00  0.00     0.069 A 
HETATM    7  C   UNL     1     -43.691  56.328 -51.962  1.00  0.00     0.039 A 
HETATM    8  C   UNL     1     -42.818  55.335 -51.497  1.00  0.00    -0.060 A 
HETATM    9  C   UNL     1     -43.272  53.907 -51.401  1.00  0.00     0.048 C 
HETATM   10  C   UNL     1     -41.532  55.696 -51.088  1.00  0.00     0.009 A 
HETATM   11  C   UNL     1     -41.098  57.020 -51.188  1.00  0.00     0.039 A 
HETATM   12  C   UNL     1     -41.962  58.007 -51.665  1.00  0.00     0.095 A 
BRANCH  12  13
HETATM   13  O   UNL     1     -41.647  59.339 -51.791  1.00  0.00    -0.354 OA
HETATM   14  C   UNL     1     -41.357  60.049 -50.590  1.00  0.00     0.210 C 
ENDBRANCH  12  13
ENDBRANCH   3   6
ENDBRANCH   1   2
BRANCH   1  15
HETATM   15  N   UNL     1     -42.984  57.708 -55.127  1.00  0.00    -0.054 N 
HETATM   16  H   UNL     1     -42.553  58.587 -55.451  1.00  0.00     0.278 HD
HETATM   17  H   UNL     1     -42.543  57.466 -54.236  1.00  0.00     0.278 HD
BRANCH  15  18
HETATM   18  C   UNL     1     -42.637  56.679 -56.147  1.00  0.00     0.272 C 
BRANCH  18  19
HETATM   19  C   UNL     1     -42.017  55.476 -55.493  1.00  0.00    -0.033 A 
HETATM   20  C   UNL     1     -42.756  54.297 -55.345  1.00  0.00     0.011 A 
HETATM   21  C   UNL     1     -42.202  53.181 -54.710  1.00  0.00     0.030 A 
HETATM   22  C   UNL     1     -40.891  53.197 -54.221  1.00  0.00     0.037 A 
HETATM   23  C   UNL     1     -40.150  54.375 -54.392  1.00  0.00     0.030 A 
HETATM   24  C   UNL     1     -40.706  55.505 -55.009  1.00  0.00     0.011 A 
BRANCH  22  25
HETATM   25  N   UNL     1     -40.325  52.061 -53.589  1.00  0.00    -0.318 N 
HETATM   26  C   UNL     1     -39.876  51.993 -52.259  1.00  0.00     0.224 C 
HETATM   27  O   UNL     1     -39.868  52.868 -51.407  1.00  0.00    -0.273 OA
HETATM   28  C   UNL     1     -39.280  50.620 -52.044  1.00  0.00     0.105 C 
HETATM   29  C   UNL     1     -39.860  49.812 -53.188  1.00  0.00     0.029 C 
HETATM   30  C   UNL     1     -40.023  50.835 -54.292  1.00  0.00     0.133 C 
ENDBRANCH  22  25
ENDBRANCH  18  19
ENDBRANCH  15  18
ENDBRANCH   1  15
BRANCH   1  31
HETATM   31  C   UNL     1     -45.144  58.447 -56.192  1.00  0.00    -0.019 A 
HETATM   32  C   UNL     1     -46.364  57.855 -56.564  1.00  0.00     0.010 A 
HETATM   33  C   UNL     1     -46.988  58.209 -57.762  1.00  0.00     0.001 A 
HETATM   34  C   UNL     1     -46.402  59.148 -58.606  1.00  0.00     0.000 A 
HETATM   35  C   UNL     1     -45.190  59.737 -58.258  1.00  0.00     0.001 A 
HETATM   36  C   UNL     1     -44.561  59.387 -57.063  1.00  0.00     0.010 A 
ENDBRANCH   1  31
TORSDOF 8
ENDMDL
MODEL 8
REMARK VINA RESULT:      -7.8      2.568      3.350
REMARK  8 active torsions:
REMARK  status: ('A' for Active; 'I' for Inactive)
REMARK    1  A    between atoms: C_4  and  N_5 
REMARK       I    between atoms: N_5  and  C_6 
REMARK    2  A    between atoms: C_6  and  C_7 
REMARK    3  A    between atoms: C_7  and  N_8 
REMARK    4  A    between atoms: C_7  and  C_24 
REMARK    5  A    between atoms: N_8  and  C_11 
REMARK    6  A    between atoms: C_11  and  C_12 
REMARK    7  A    between atoms: C_15  and  N_16 
REMARK    8  A    between atoms: C_31  and  O_32 
ROOT
HETATM    1  C   UNL     1     -41.839  54.727 -54.074  1.00  0.00     0.310 C 
ENDROOT
BRANCH   1   2
HETATM    2  C   UNL     1     -43.266  54.870 -53.489  1.00  0.00     0.257 C 
HETATM    3  N   UNL     1     -43.632  55.913 -52.694  1.00  0.00    -0.323 N 
HETATM    4  H   UNL     1     -44.457  55.728 -52.124  1.00  0.00     0.169 HD
HETATM    5  O   UNL     1     -44.084  53.971 -53.733  1.00  0.00    -0.270 OA
BRANCH   3   6
HETATM    6  C   UNL     1     -42.950  57.096 -52.342  1.00  0.00     0.069 A 
HETATM    7  C   UNL     1     -43.004  58.267 -53.105  1.00  0.00     0.039 A 
HETATM    8  C   UNL     1     -42.299  59.411 -52.707  1.00  0.00    -0.060 A 
HETATM    9  C   UNL     1     -42.330  60.655 -53.545  1.00  0.00     0.048 C 
HETATM   10  C   UNL     1     -41.535  59.367 -51.538  1.00  0.00     0.009 A 
HETATM   11  C   UNL     1     -41.512  58.217 -50.744  1.00  0.00     0.039 A 
HETATM   12  C   UNL     1     -42.226  57.083 -51.133  1.00  0.00     0.095 A 
BRANCH  12  13
HETATM   13  O   UNL     1     -42.264  55.897 -50.439  1.00  0.00    -0.354 OA
HETATM   14  C   UNL     1     -41.269  55.705 -49.437  1.00  0.00     0.210 C 
ENDBRANCH  12  13
ENDBRANCH   3   6
ENDBRANCH   1   2
BRANCH   1  15
HETATM   15  N   UNL     1     -41.889  54.907 -55.590  1.00  0.00    -0.054 N 
HETATM   16  H   UNL     1     -41.062  54.417 -55.965  1.00  0.00     0.278 HD
HETATM   17  H   UNL     1     -42.715  54.437 -55.969  1.00  0.00     0.278 HD
BRANCH  15  18
HETATM   18  C   UNL     1     -41.819  56.296 -56.124  1.00  0.00     0.272 C 
BRANCH  18  19
HETATM   19  C   UNL     1     -42.927  56.538 -57.111  1.00  0.00    -0.033 A 
HETATM   20  C   UNL     1     -43.891  57.520 -56.860  1.00  0.00     0.011 A 
HETATM   21  C   UNL     1     -44.944  57.733 -57.756  1.00  0.00     0.030 A 
HETATM   22  C   UNL     1     -45.059  56.989 -58.935  1.00  0.00     0.037 A 
HETATM   23  C   UNL     1     -44.078  56.021 -59.190  1.00  0.00     0.030 A 
HETATM   24  C   UNL     1     -43.030  55.788 -58.287  1.00  0.00     0.011 A 
BRANCH  22  25
HETATM   25  N   UNL     1     -46.120  57.215 -59.850  1.00  0.00    -0.318 N 
HETATM   26  C   UNL     1     -46.434  58.439 -60.465  1.00  0.00     0.224 C 
HETATM   27  O   UNL     1     -45.888  59.523 -60.336  1.00  0.00    -0.273 OA
HETATM   28  C   UNL     1     -47.681  58.230 -61.293  1.00  0.00     0.105 C 
HETATM   29  C   UNL     1     -47.739  56.724 -61.453  1.00  0.00     0.029 C 
HETATM   30  C   UNL     1     -47.108  56.212 -60.176  1.00  0.00     0.133 C 
ENDBRANCH  22  25
ENDBRANCH  18  19
ENDBRANCH  15  18
ENDBRANCH   1  15
BRANCH   1  31
HETATM   31  C   UNL     1     -41.091  53.466 -53.684  1.00  0.00    -0.019 A 
HETATM   32  C   UNL     1     -40.591  53.333 -52.376  1.00  0.00     0.010 A 
HETATM   33  C   UNL     1     -39.866  52.198 -52.007  1.00  0.00     0.001 A 
HETATM   34  C   UNL     1     -39.624  51.188 -52.934  1.00  0.00     0.000 A 
HETATM   35  C   UNL     1     -40.103  51.308 -54.235  1.00  0.00     0.001 A 
HETATM   36  C   UNL     1     -40.828  52.440 -54.611  1.00  0.00     0.010 A 
ENDBRANCH   1  31
TORSDOF 8
ENDMDL
MODEL 9
REMARK VINA RESULT:      -7.8     16.587     20.045
REMARK  8 active torsions:
REMARK  status: ('A' for Active; 'I' for Inactive)
REMARK    1  A    between atoms: C_4  and  N_5 
REMARK       I    between atoms: N_5  and  C_6 
REMARK    2  A    between atoms: C_6  and  C_7 
REMARK    3  A    between atoms: C_7  and  N_8 
REMARK    4  A    between atoms: C_7  and  C_24 
REMARK    5  A    between atoms: N_8  and  C_11 
REMARK    6  A    between atoms: C_11  and  C_12 
REMARK    7  A    between atoms: C_15  and  N_16 
REMARK    8  A    between atoms: C_31  and  O_32 
ROOT
HETATM    1  C   UNL     1     -37.055  40.826 -57.817  1.00  0.00     0.310 C 
ENDROOT
BRANCH   1   2
HETATM    2  C   UNL     1     -37.166  41.438 -59.235  1.00  0.00     0.257 C 
HETATM    3  N   UNL     1     -37.481  40.696 -60.332  1.00  0.00    -0.323 N 
HETATM    4  H   UNL     1     -37.206  41.125 -61.215  1.00  0.00     0.169 HD
HETATM    5  O   UNL     1     -36.918  42.646 -59.365  1.00  0.00    -0.270 OA
BRANCH   3   6
HETATM    6  C   UNL     1     -37.896  39.353 -60.457  1.00  0.00     0.069 A 
HETATM    7  C   UNL     1     -39.207  38.931 -60.215  1.00  0.00     0.039 A 
HETATM    8  C   UNL     1     -39.558  37.582 -60.350  1.00  0.00    -0.060 A 
HETATM    9  C   UNL     1     -40.958  37.125 -60.056  1.00  0.00     0.048 C 
HETATM   10  C   UNL     1     -38.580  36.658 -60.726  1.00  0.00     0.009 A 
HETATM   11  C   UNL     1     -37.279  37.077 -61.015  1.00  0.00     0.039 A 
HETATM   12  C   UNL     1     -36.932  38.423 -60.896  1.00  0.00     0.095 A 
BRANCH  12  13
HETATM   13  O   UNL     1     -35.684  38.943 -61.140  1.00  0.00    -0.354 OA
HETATM   14  C   UNL     1     -34.746  38.088 -61.789  1.00  0.00     0.210 C 
ENDBRANCH  12  13
ENDBRANCH   3   6
ENDBRANCH   1   2
BRANCH   1  15
HETATM   15  N   UNL     1     -37.607  41.813 -56.790  1.00  0.00    -0.054 N 
HETATM   16  H   UNL     1     -36.818  42.422 -56.524  1.00  0.00     0.278 HD
HETATM   17  H   UNL     1     -38.314  42.410 -57.227  1.00  0.00     0.278 HD
BRANCH  15  18
HETATM   18  C   UNL     1     -38.144  41.258 -55.516  1.00  0.00     0.272 C 
BRANCH  18  19
HETATM   19  C   UNL     1     -37.030  41.013 -54.537  1.00  0.00    -0.033 A 
HETATM   20  C   UNL     1     -36.399  42.090 -53.905  1.00  0.00     0.011 A 
HETATM   21  C   UNL     1     -35.341  41.877 -53.016  1.00  0.00     0.030 A 
HETATM   22  C   UNL     1     -34.892  40.587 -52.714  1.00  0.00     0.037 A 
HETATM   23  C   UNL     1     -35.543  39.511 -53.335  1.00  0.00     0.030 A 
HETATM   24  C   UNL     1     -36.591  39.718 -54.243  1.00  0.00     0.011 A 
BRANCH  22  25
HETATM   25  N   UNL     1     -33.827  40.371 -51.802  1.00  0.00    -0.318 N 
HETATM   26  C   UNL     1     -32.458  40.351 -52.119  1.00  0.00     0.224 C 
HETATM   27  O   UNL     1     -31.921  40.499 -53.206  1.00  0.00    -0.273 OA
HETATM   28  C   UNL     1     -31.698  40.009 -50.858  1.00  0.00     0.105 C 
HETATM   29  C   UNL     1     -32.701  40.309 -49.761  1.00  0.00     0.029 C 
HETATM   30  C   UNL     1     -34.034  40.015 -50.417  1.00  0.00     0.133 C 
ENDBRANCH  22  25
ENDBRANCH  18  19
ENDBRANCH  15  18
ENDBRANCH   1  15
BRANCH   1  31
HETATM   31  C   UNL     1     -35.680  40.320 -57.425  1.00  0.00    -0.019 A 
HETATM   32  C   UNL     1     -34.707  41.230 -56.977  1.00  0.00     0.010 A 
HETATM   33  C   UNL     1     -33.423  40.791 -56.648  1.00  0.00     0.001 A 
HETATM   34  C   UNL     1     -33.090  39.444 -56.769  1.00  0.00     0.000 A 
HETATM   35  C   UNL     1     -34.039  38.531 -57.220  1.00  0.00     0.001 A 
HETATM   36  C   UNL     1     -35.323  38.963 -57.551  1.00  0.00     0.010 A 
ENDBRANCH   1  31
TORSDOF 8
ENDMDL
MODEL 10
REMARK VINA RESULT:      -7.8      2.866      8.080
REMARK  8 active torsions:
REMARK  status: ('A' for Active; 'I' for Inactive)
REMARK    1  A    between atoms: C_4  and  N_5 
REMARK       I    between atoms: N_5  and  C_6 
REMARK    2  A    between atoms: C_6  and  C_7 
REMARK    3  A    between atoms: C_7  and  N_8 
REMARK    4  A    between atoms: C_7  and  C_24 
REMARK    5  A    between atoms: N_8  and  C_11 
REMARK    6  A    between atoms: C_11  and  C_12 
REMARK    7  A    between atoms: C_15  and  N_16 
REMARK    8  A    between atoms: C_31  and  O_32 
ROOT
HETATM    1  C   UNL     1     -42.708  56.891 -58.659  1.00  0.00     0.310 C 
ENDROOT
BRANCH   1   2
HETATM    2  C   UNL     1     -44.186  56.538 -58.957  1.00  0.00     0.257 C 
HETATM    3  N   UNL     1     -45.226  57.112 -58.291  1.00  0.00    -0.323 N 
HETATM    4  H   UNL     1     -46.093  56.577 -58.339  1.00  0.00     0.169 HD
HETATM    5  O   UNL     1     -44.412  55.671 -59.813  1.00  0.00    -0.270 OA
BRANCH   3   6
HETATM    6  C   UNL     1     -45.262  58.172 -57.360  1.00  0.00     0.069 A 
HETATM    7  C   UNL     1     -45.039  57.995 -55.991  1.00  0.00     0.039 A 
HETATM    8  C   UNL     1     -45.094  59.086 -55.113  1.00  0.00    -0.060 A 
HETATM    9  C   UNL     1     -44.890  58.889 -53.639  1.00  0.00     0.048 C 
HETATM   10  C   UNL     1     -45.380  60.355 -55.622  1.00  0.00     0.009 A 
HETATM   11  C   UNL     1     -45.557  60.549 -56.994  1.00  0.00     0.039 A 
HETATM   12  C   UNL     1     -45.487  59.465 -57.871  1.00  0.00     0.095 A 
BRANCH  12  13
HETATM   13  O   UNL     1     -45.660  59.538 -59.232  1.00  0.00    -0.354 OA
HETATM   14  C   UNL     1     -45.604  60.834 -59.821  1.00  0.00     0.210 C 
ENDBRANCH  12  13
ENDBRANCH   3   6
ENDBRANCH   1   2
BRANCH   1  15
HETATM   15  N   UNL     1     -42.365  56.486 -57.227  1.00  0.00    -0.054 N 
HETATM   16  H   UNL     1     -41.335  56.498 -57.163  1.00  0.00     0.278 HD
HETATM   17  H   UNL     1     -42.715  57.190 -56.572  1.00  0.00     0.278 HD
BRANCH  15  18
HETATM   18  C   UNL     1     -42.788  55.132 -56.771  1.00  0.00     0.272 C 
BRANCH  18  19
HETATM   19  C   UNL     1     -42.400  54.913 -55.335  1.00  0.00    -0.033 A 
HETATM   20  C   UNL     1     -43.381  54.643 -54.375  1.00  0.00     0.011 A 
HETATM   21  C   UNL     1     -43.037  54.470 -53.031  1.00  0.00     0.030 A 
HETATM   22  C   UNL     1     -41.706  54.540 -52.605  1.00  0.00     0.037 A 
HETATM   23  C   UNL     1     -40.726  54.790 -53.576  1.00  0.00     0.030 A 
HETATM   24  C   UNL     1     -41.066  54.986 -54.923  1.00  0.00     0.011 A 
BRANCH  22  25
HETATM   25  N   UNL     1     -41.356  54.350 -51.243  1.00  0.00    -0.318 N 
HETATM   26  C   UNL     1     -40.444  53.401 -50.749  1.00  0.00     0.224 C 
HETATM   27  O   UNL     1     -39.798  52.566 -51.364  1.00  0.00    -0.273 OA
HETATM   28  C   UNL     1     -40.444  53.504 -49.241  1.00  0.00     0.105 C 
HETATM   29  C   UNL     1     -41.053  54.871 -48.991  1.00  0.00     0.029 C 
HETATM   30  C   UNL     1     -42.002  55.049 -50.157  1.00  0.00     0.133 C 
ENDBRANCH  22  25
ENDBRANCH  18  19
ENDBRANCH  15  18
ENDBRANCH   1  15
BRANCH   1  31
HETATM   31  C   UNL     1     -42.302  58.324 -58.949  1.00  0.00    -0.019 A 
HETATM   32  C   UNL     1     -41.914  59.163 -57.889  1.00  0.00     0.010 A 
HETATM   33  C   UNL     1     -41.575  60.496 -58.129  1.00  0.00     0.001 A 
HETATM   34  C   UNL     1     -41.624  61.011 -59.422  1.00  0.00     0.000 A 
HETATM   35  C   UNL     1     -42.015  60.196 -60.480  1.00  0.00     0.001 A 
HETATM   36  C   UNL     1     -42.357  58.864 -60.248  1.00  0.00     0.010 A 
ENDBRANCH   1  31
TORSDOF 8
ENDMDL
