MODEL 1
REMARK VINA RESULT:      -8.6      0.000      0.000
REMARK  2 active torsions:
REMARK  status: ('A' for Active; 'I' for Inactive)
REMARK       I    between atoms: N_5  and  C_6 
REMARK    1  A    between atoms: C_6  and  C_7 
REMARK    2  A    between atoms: N_11  and  C_12 
ROOT
HETATM    1  C   UNL     1     -43.120  57.465 -60.337  1.00  0.00     0.050 C 
HETATM    2  C   UNL     1     -42.973  57.087 -58.890  1.00  0.00    -0.030 A 
HETATM    3  C   UNL     1     -42.625  58.017 -57.890  1.00  0.00     0.087 A 
HETATM    4  C   UNL     1     -42.511  57.595 -56.550  1.00  0.00     0.160 A 
HETATM    5  N   UNL     1     -42.109  58.520 -55.545  1.00  0.00    -0.287 N 
HETATM    6  C   UNL     1     -41.953  58.268 -54.169  1.00  0.00     0.263 C 
HETATM    7  O   UNL     1     -41.837  59.214 -53.382  1.00  0.00    -0.267 OA
HETATM    8  C   UNL     1     -42.011  59.931 -55.902  1.00  0.00     0.237 C 
HETATM    9  C   UNL     1     -42.110  60.332 -57.359  1.00  0.00     0.240 C 
HETATM   10  O   UNL     1     -41.968  61.493 -57.740  1.00  0.00    -0.271 OA
HETATM   11  N   UNL     1     -42.409  59.351 -58.252  1.00  0.00    -0.322 N 
HETATM   12  N   UNL     1     -42.782  56.321 -56.213  1.00  0.00    -0.241 NA
HETATM   13  C   UNL     1     -43.119  55.438 -57.175  1.00  0.00     0.119 A 
HETATM   14  C   UNL     1     -43.219  55.767 -58.510  1.00  0.00     0.028 A 
HETATM   15  H   UNL     1     -42.500  59.656 -59.212  1.00  0.00     0.169 HD
ENDROOT
BRANCH   6  16
HETATM   16  C   UNL     1     -41.928  56.923 -53.619  1.00  0.00     0.076 C 
HETATM   17  C   UNL     1     -42.925  56.312 -52.816  1.00  0.00     0.068 C 
HETATM   18  C   UNL     1     -44.211  56.896 -52.358  1.00  0.00     0.073 C 
HETATM   19  N   UNL     1     -42.602  55.059 -52.479  1.00  0.00    -0.172 NA
HETATM   20  N   UNL     1     -41.405  54.835 -53.079  1.00  0.00    -0.244 N 
HETATM   21  C   UNL     1     -40.910  55.990 -53.643  1.00  0.00     0.138 C 
BRANCH  20  22
HETATM   22  C   UNL     1     -40.832  53.533 -53.093  1.00  0.00     0.058 A 
HETATM   23  C   UNL     1     -40.832  52.794 -54.287  1.00  0.00     0.031 A 
HETATM   24  C   UNL     1     -40.234  51.533 -54.338  1.00  0.00     0.002 A 
HETATM   25  C   UNL     1     -39.635  51.000 -53.199  1.00  0.00     0.000 A 
HETATM   26  C   UNL     1     -39.634  51.725 -52.009  1.00  0.00     0.002 A 
HETATM   27  C   UNL     1     -40.230  52.989 -51.950  1.00  0.00     0.031 A 
ENDBRANCH  20  22
ENDBRANCH   6  16
TORSDOF 2
ENDMDL
MODEL 2
REMARK VINA RESULT:      -8.5      2.354      7.008
REMARK  2 active torsions:
REMARK  status: ('A' for Active; 'I' for Inactive)
REMARK       I    between atoms: N_5  and  C_6 
REMARK    1  A    between atoms: C_6  and  C_7 
REMARK    2  A    between atoms: N_11  and  C_12 
ROOT
HETATM    1  C   UNL     1     -39.492  50.677 -52.134  1.00  0.00     0.050 C 
HETATM    2  C   UNL     1     -39.943  52.040 -52.581  1.00  0.00    -0.030 A 
HETATM    3  C   UNL     1     -40.421  53.017 -51.685  1.00  0.00     0.087 A 
HETATM    4  C   UNL     1     -40.823  54.277 -52.171  1.00  0.00     0.160 A 
HETATM    5  N   UNL     1     -41.354  55.249 -51.276  1.00  0.00    -0.287 N 
HETATM    6  C   UNL     1     -41.793  56.548 -51.592  1.00  0.00     0.263 C 
HETATM    7  O   UNL     1     -42.001  57.362 -50.685  1.00  0.00    -0.267 OA
HETATM    8  C   UNL     1     -41.291  54.978 -49.844  1.00  0.00     0.237 C 
HETATM    9  C   UNL     1     -40.884  53.598 -49.370  1.00  0.00     0.240 C 
HETATM   10  O   UNL     1     -40.875  53.279 -48.183  1.00  0.00    -0.271 OA
HETATM   11  N   UNL     1     -40.478  52.714 -50.320  1.00  0.00    -0.322 N 
HETATM   12  N   UNL     1     -40.703  54.571 -53.479  1.00  0.00    -0.241 NA
HETATM   13  C   UNL     1     -40.240  53.632 -54.330  1.00  0.00     0.119 A 
HETATM   14  C   UNL     1     -39.860  52.368 -53.934  1.00  0.00     0.028 A 
HETATM   15  H   UNL     1     -40.181  51.812 -49.969  1.00  0.00     0.169 HD
ENDROOT
BRANCH   6  16
HETATM   16  C   UNL     1     -42.010  56.989 -52.960  1.00  0.00     0.076 C 
HETATM   17  C   UNL     1     -41.305  58.009 -53.649  1.00  0.00     0.068 C 
HETATM   18  C   UNL     1     -40.195  58.853 -53.139  1.00  0.00     0.073 C 
HETATM   19  N   UNL     1     -41.743  58.165 -54.902  1.00  0.00    -0.172 NA
HETATM   20  N   UNL     1     -42.718  57.232 -55.049  1.00  0.00    -0.244 N 
HETATM   21  C   UNL     1     -43.000  56.617 -53.849  1.00  0.00     0.138 C 
BRANCH  20  22
HETATM   22  C   UNL     1     -43.294  56.977 -56.325  1.00  0.00     0.058 A 
HETATM   23  C   UNL     1     -44.285  57.842 -56.818  1.00  0.00     0.031 A 
HETATM   24  C   UNL     1     -44.832  57.638 -58.086  1.00  0.00     0.002 A 
HETATM   25  C   UNL     1     -44.397  56.573 -58.870  1.00  0.00     0.000 A 
HETATM   26  C   UNL     1     -43.417  55.707 -58.387  1.00  0.00     0.002 A 
HETATM   27  C   UNL     1     -42.864  55.904 -57.118  1.00  0.00     0.031 A 
ENDBRANCH  20  22
ENDBRANCH   6  16
TORSDOF 2
ENDMDL
MODEL 3
REMARK VINA RESULT:      -8.3      3.762      4.866
REMARK  2 active torsions:
REMARK  status: ('A' for Active; 'I' for Inactive)
REMARK       I    between atoms: N_5  and  C_6 
REMARK    1  A    between atoms: C_6  and  C_7 
REMARK    2  A    between atoms: N_11  and  C_12 
ROOT
HETATM    1  C   UNL     1     -42.509  60.863 -53.671  1.00  0.00     0.050 C 
HETATM    2  C   UNL     1     -42.305  59.425 -53.281  1.00  0.00    -0.030 A 
HETATM    3  C   UNL     1     -43.187  58.735 -52.426  1.00  0.00     0.087 A 
HETATM    4  C   UNL     1     -42.939  57.385 -52.106  1.00  0.00     0.160 A 
HETATM    5  N   UNL     1     -43.799  56.698 -51.202  1.00  0.00    -0.287 N 
HETATM    6  C   UNL     1     -43.699  55.358 -50.783  1.00  0.00     0.263 C 
HETATM    7  O   UNL     1     -44.646  54.830 -50.191  1.00  0.00    -0.267 OA
HETATM    8  C   UNL     1     -45.028  57.360 -50.779  1.00  0.00     0.237 C 
HETATM    9  C   UNL     1     -45.236  58.821 -51.121  1.00  0.00     0.240 C 
HETATM   10  O   UNL     1     -46.214  59.461 -50.738  1.00  0.00    -0.271 OA
HETATM   11  N   UNL     1     -44.304  59.408 -51.918  1.00  0.00    -0.322 N 
HETATM   12  N   UNL     1     -41.894  56.737 -52.653  1.00  0.00    -0.241 NA
HETATM   13  C   UNL     1     -41.056  57.404 -53.474  1.00  0.00     0.119 A 
HETATM   14  C   UNL     1     -41.214  58.732 -53.807  1.00  0.00     0.028 A 
HETATM   15  H   UNL     1     -44.488  60.374 -52.155  1.00  0.00     0.169 HD
ENDROOT
BRANCH   6  16
HETATM   16  C   UNL     1     -42.516  54.550 -51.024  1.00  0.00     0.076 C 
HETATM   17  C   UNL     1     -41.336  54.510 -50.238  1.00  0.00     0.068 C 
HETATM   18  C   UNL     1     -41.040  55.273 -48.999  1.00  0.00     0.073 C 
HETATM   19  N   UNL     1     -40.433  53.654 -50.727  1.00  0.00    -0.172 NA
HETATM   20  N   UNL     1     -41.026  53.111 -51.822  1.00  0.00    -0.244 N 
HETATM   21  C   UNL     1     -42.215  53.745 -52.106  1.00  0.00     0.138 C 
BRANCH  20  22
HETATM   22  C   UNL     1     -40.429  52.013 -52.502  1.00  0.00     0.058 A 
HETATM   23  C   UNL     1     -39.904  50.945 -51.757  1.00  0.00     0.031 A 
HETATM   24  C   UNL     1     -39.355  49.836 -52.403  1.00  0.00     0.002 A 
HETATM   25  C   UNL     1     -39.324  49.784 -53.795  1.00  0.00     0.000 A 
HETATM   26  C   UNL     1     -39.840  50.842 -54.542  1.00  0.00     0.002 A 
HETATM   27  C   UNL     1     -40.392  51.956 -53.902  1.00  0.00     0.031 A 
ENDBRANCH  20  22
ENDBRANCH   6  16
TORSDOF 2
ENDMDL
MODEL 4
REMARK VINA RESULT:      -8.0      3.492      7.201
REMARK  2 active torsions:
REMARK  status: ('A' for Active; 'I' for Inactive)
REMARK       I    between atoms: N_5  and  C_6 
REMARK    1  A    between atoms: C_6  and  C_7 
REMARK    2  A    between atoms: N_11  and  C_12 
ROOT
HETATM    1  C   UNL     1     -39.887  51.330 -54.457  1.00  0.00     0.050 C 
HETATM    2  C   UNL     1     -40.245  52.726 -54.029  1.00  0.00    -0.030 A 
HETATM    3  C   UNL     1     -40.454  53.081 -52.682  1.00  0.00     0.087 A 
HETATM    4  C   UNL     1     -40.782  54.410 -52.351  1.00  0.00     0.160 A 
HETATM    5  N   UNL     1     -41.045  54.763 -50.996  1.00  0.00    -0.287 N 
HETATM    6  C   UNL     1     -41.377  56.036 -50.496  1.00  0.00     0.263 C 
HETATM    7  O   UNL     1     -41.338  56.244 -49.278  1.00  0.00    -0.267 OA
HETATM    8  C   UNL     1     -40.778  53.771 -49.960  1.00  0.00     0.237 C 
HETATM    9  C   UNL     1     -40.460  52.347 -50.365  1.00  0.00     0.240 C 
HETATM   10  O   UNL     1     -40.293  51.444 -49.546  1.00  0.00    -0.271 OA
HETATM   11  N   UNL     1     -40.320  52.098 -51.694  1.00  0.00    -0.322 N 
HETATM   12  N   UNL     1     -40.847  55.354 -53.308  1.00  0.00    -0.241 NA
HETATM   13  C   UNL     1     -40.641  55.007 -54.596  1.00  0.00     0.119 A 
HETATM   14  C   UNL     1     -40.349  53.722 -55.000  1.00  0.00     0.028 A 
HETATM   15  H   UNL     1     -40.075  51.146 -51.931  1.00  0.00     0.169 HD
ENDROOT
BRANCH   6  16
HETATM   16  C   UNL     1     -41.764  57.138 -51.360  1.00  0.00     0.076 C 
HETATM   17  C   UNL     1     -41.066  58.358 -51.548  1.00  0.00     0.068 C 
HETATM   18  C   UNL     1     -39.793  58.787 -50.915  1.00  0.00     0.073 C 
HETATM   19  N   UNL     1     -41.684  59.163 -52.419  1.00  0.00    -0.172 NA
HETATM   20  N   UNL     1     -42.775  58.464 -52.824  1.00  0.00    -0.244 N 
HETATM   21  C   UNL     1     -42.925  57.309 -52.089  1.00  0.00     0.138 C 
BRANCH  20  22
HETATM   22  C   UNL     1     -43.582  58.933 -53.898  1.00  0.00     0.058 A 
HETATM   23  C   UNL     1     -44.499  58.059 -54.503  1.00  0.00     0.031 A 
HETATM   24  C   UNL     1     -45.334  58.509 -55.528  1.00  0.00     0.002 A 
HETATM   25  C   UNL     1     -45.259  59.832 -55.957  1.00  0.00     0.000 A 
HETATM   26  C   UNL     1     -44.347  60.705 -55.365  1.00  0.00     0.002 A 
HETATM   27  C   UNL     1     -43.508  60.262 -54.338  1.00  0.00     0.031 A 
ENDBRANCH  20  22
ENDBRANCH   6  16
TORSDOF 2
ENDMDL
MODEL 5
REMARK VINA RESULT:      -7.8      1.988      7.014
REMARK  2 active torsions:
REMARK  status: ('A' for Active; 'I' for Inactive)
REMARK       I    between atoms: N_5  and  C_6 
REMARK    1  A    between atoms: C_6  and  C_7 
REMARK    2  A    between atoms: N_11  and  C_12 
ROOT
HETATM    1  C   UNL     1     -39.467  51.281 -51.452  1.00  0.00     0.050 C 
HETATM    2  C   UNL     1     -40.015  52.407 -52.284  1.00  0.00    -0.030 A 
HETATM    3  C   UNL     1     -40.519  53.595 -51.720  1.00  0.00     0.087 A 
HETATM    4  C   UNL     1     -41.013  54.614 -52.559  1.00  0.00     0.160 A 
HETATM    5  N   UNL     1     -41.570  55.796 -51.993  1.00  0.00    -0.287 N 
HETATM    6  C   UNL     1     -42.098  56.904 -52.681  1.00  0.00     0.263 C 
HETATM    7  O   UNL     1     -42.322  57.954 -52.070  1.00  0.00    -0.267 OA
HETATM    8  C   UNL     1     -41.440  56.000 -50.554  1.00  0.00     0.237 C 
HETATM    9  C   UNL     1     -40.934  54.865 -49.689  1.00  0.00     0.240 C 
HETATM   10  O   UNL     1     -40.864  54.943 -48.464  1.00  0.00    -0.271 OA
HETATM   11  N   UNL     1     -40.509  53.743 -50.328  1.00  0.00    -0.322 N 
HETATM   12  N   UNL     1     -40.958  54.480 -53.897  1.00  0.00    -0.241 NA
HETATM   13  C   UNL     1     -40.469  53.340 -54.429  1.00  0.00     0.119 A 
HETATM   14  C   UNL     1     -40.000  52.287 -53.674  1.00  0.00     0.028 A 
HETATM   15  H   UNL     1     -40.146  53.016 -49.726  1.00  0.00     0.169 HD
ENDROOT
BRANCH   6  16
HETATM   16  C   UNL     1     -42.389  56.873 -54.105  1.00  0.00     0.076 C 
HETATM   17  C   UNL     1     -43.366  56.079 -54.758  1.00  0.00     0.068 C 
HETATM   18  C   UNL     1     -44.306  55.106 -54.147  1.00  0.00     0.073 C 
HETATM   19  N   UNL     1     -43.388  56.292 -56.078  1.00  0.00    -0.172 NA
HETATM   20  N   UNL     1     -42.445  57.244 -56.292  1.00  0.00    -0.244 N 
HETATM   21  C   UNL     1     -41.728  57.499 -55.144  1.00  0.00     0.138 C 
BRANCH  20  22
HETATM   22  C   UNL     1     -42.310  57.860 -57.567  1.00  0.00     0.058 A 
HETATM   23  C   UNL     1     -42.478  57.085 -58.727  1.00  0.00     0.031 A 
HETATM   24  C   UNL     1     -42.397  57.677 -59.989  1.00  0.00     0.002 A 
HETATM   25  C   UNL     1     -42.147  59.042 -60.105  1.00  0.00     0.000 A 
HETATM   26  C   UNL     1     -41.976  59.817 -58.959  1.00  0.00     0.002 A 
HETATM   27  C   UNL     1     -42.056  59.233 -57.691  1.00  0.00     0.031 A 
ENDBRANCH  20  22
ENDBRANCH   6  16
TORSDOF 2
ENDMDL
MODEL 6
REMARK VINA RESULT:      -7.7      2.477      3.314
REMARK  2 active torsions:
REMARK  status: ('A' for Active; 'I' for Inactive)
REMARK       I    between atoms: N_5  and  C_6 
REMARK    1  A    between atoms: C_6  and  C_7 
REMARK    2  A    between atoms: N_11  and  C_12 
ROOT
HETATM    1  C   UNL     1     -45.924  59.879 -57.056  1.00  0.00     0.050 C 
HETATM    2  C   UNL     1     -45.097  58.899 -56.272  1.00  0.00    -0.030 A 
HETATM    3  C   UNL     1     -45.040  58.903 -54.865  1.00  0.00     0.087 A 
HETATM    4  C   UNL     1     -44.248  57.950 -54.192  1.00  0.00     0.160 A 
HETATM    5  N   UNL     1     -44.147  57.982 -52.773  1.00  0.00    -0.287 N 
HETATM    6  C   UNL     1     -43.411  57.109 -51.951  1.00  0.00     0.263 C 
HETATM    7  O   UNL     1     -43.608  57.104 -50.731  1.00  0.00    -0.267 OA
HETATM    8  C   UNL     1     -45.023  58.889 -52.038  1.00  0.00     0.237 C 
HETATM    9  C   UNL     1     -45.831  59.916 -52.802  1.00  0.00     0.240 C 
HETATM   10  O   UNL     1     -46.536  60.756 -52.245  1.00  0.00    -0.271 OA
HETATM   11  N   UNL     1     -45.785  59.854 -54.159  1.00  0.00    -0.322 N 
HETATM   12  N   UNL     1     -43.587  57.005 -54.886  1.00  0.00    -0.241 NA
HETATM   13  C   UNL     1     -43.650  57.005 -56.233  1.00  0.00     0.119 A 
HETATM   14  C   UNL     1     -44.375  57.923 -56.961  1.00  0.00     0.028 A 
HETATM   15  H   UNL     1     -46.361  60.532 -54.641  1.00  0.00     0.169 HD
ENDROOT
BRANCH   6  16
HETATM   16  C   UNL     1     -42.417  56.190 -52.479  1.00  0.00     0.076 C 
HETATM   17  C   UNL     1     -41.195  56.528 -53.114  1.00  0.00     0.068 C 
HETATM   18  C   UNL     1     -40.653  57.884 -53.382  1.00  0.00     0.073 C 
HETATM   19  N   UNL     1     -40.500  55.446 -53.479  1.00  0.00    -0.172 NA
HETATM   20  N   UNL     1     -41.251  54.394 -53.063  1.00  0.00    -0.244 N 
HETATM   21  C   UNL     1     -42.477  54.814 -52.596  1.00  0.00     0.138 C 
BRANCH  20  22
HETATM   22  C   UNL     1     -40.738  53.068 -53.117  1.00  0.00     0.058 A 
HETATM   23  C   UNL     1     -40.861  52.331 -54.307  1.00  0.00     0.031 A 
HETATM   24  C   UNL     1     -40.324  51.045 -54.399  1.00  0.00     0.002 A 
HETATM   25  C   UNL     1     -39.663  50.486 -53.308  1.00  0.00     0.000 A 
HETATM   26  C   UNL     1     -39.541  51.209 -52.122  1.00  0.00     0.002 A 
HETATM   27  C   UNL     1     -40.075  52.497 -52.022  1.00  0.00     0.031 A 
ENDBRANCH  20  22
ENDBRANCH   6  16
TORSDOF 2
ENDMDL
MODEL 7
REMARK VINA RESULT:      -7.7      2.704      4.842
REMARK  2 active torsions:
REMARK  status: ('A' for Active; 'I' for Inactive)
REMARK       I    between atoms: N_5  and  C_6 
REMARK    1  A    between atoms: C_6  and  C_7 
REMARK    2  A    between atoms: N_11  and  C_12 
ROOT
HETATM    1  C   UNL     1     -42.025  61.118 -50.199  1.00  0.00     0.050 C 
HETATM    2  C   UNL     1     -42.048  59.945 -51.139  1.00  0.00    -0.030 A 
HETATM    3  C   UNL     1     -43.195  59.574 -51.868  1.00  0.00     0.087 A 
HETATM    4  C   UNL     1     -43.145  58.466 -52.737  1.00  0.00     0.160 A 
HETATM    5  N   UNL     1     -44.315  58.057 -53.437  1.00  0.00    -0.287 N 
HETATM    6  C   UNL     1     -44.437  56.985 -54.341  1.00  0.00     0.263 C 
HETATM    7  O   UNL     1     -45.442  56.896 -55.054  1.00  0.00    -0.267 OA
HETATM    8  C   UNL     1     -45.492  58.918 -53.380  1.00  0.00     0.237 C 
HETATM    9  C   UNL     1     -45.511  60.079 -52.408  1.00  0.00     0.240 C 
HETATM   10  O   UNL     1     -46.493  60.803 -52.256  1.00  0.00    -0.271 OA
HETATM   11  N   UNL     1     -44.365  60.328 -51.720  1.00  0.00    -0.322 N 
HETATM   12  N   UNL     1     -41.994  57.791 -52.913  1.00  0.00    -0.241 NA
HETATM   13  C   UNL     1     -40.899  58.155 -52.214  1.00  0.00     0.119 A 
HETATM   14  C   UNL     1     -40.879  59.205 -51.322  1.00  0.00     0.028 A 
HETATM   15  H   UNL     1     -44.399  61.129 -51.103  1.00  0.00     0.169 HD
ENDROOT
BRANCH   6  16
HETATM   16  C   UNL     1     -43.413  55.963 -54.483  1.00  0.00     0.076 C 
HETATM   17  C   UNL     1     -42.571  55.750 -55.604  1.00  0.00     0.068 C 
HETATM   18  C   UNL     1     -42.538  56.512 -56.877  1.00  0.00     0.073 C 
HETATM   19  N   UNL     1     -41.728  54.729 -55.413  1.00  0.00    -0.172 NA
HETATM   20  N   UNL     1     -41.996  54.286 -54.159  1.00  0.00    -0.244 N 
HETATM   21  C   UNL     1     -43.106  54.913 -53.639  1.00  0.00     0.138 C 
BRANCH  20  22
HETATM   22  C   UNL     1     -41.162  53.316 -53.537  1.00  0.00     0.058 A 
HETATM   23  C   UNL     1     -40.672  52.241 -54.297  1.00  0.00     0.031 A 
HETATM   24  C   UNL     1     -39.815  51.301 -53.721  1.00  0.00     0.002 A 
HETATM   25  C   UNL     1     -39.441  51.426 -52.385  1.00  0.00     0.000 A 
HETATM   26  C   UNL     1     -39.926  52.488 -51.622  1.00  0.00     0.002 A 
HETATM   27  C   UNL     1     -40.785  53.432 -52.192  1.00  0.00     0.031 A 
ENDBRANCH  20  22
ENDBRANCH   6  16
TORSDOF 2
ENDMDL
MODEL 8
REMARK VINA RESULT:      -7.6      3.474      4.876
REMARK  2 active torsions:
REMARK  status: ('A' for Active; 'I' for Inactive)
REMARK       I    between atoms: N_5  and  C_6 
REMARK    1  A    between atoms: C_6  and  C_7 
REMARK    2  A    between atoms: N_11  and  C_12 
ROOT
HETATM    1  C   UNL     1     -42.494  62.158 -50.399  1.00  0.00     0.050 C 
HETATM    2  C   UNL     1     -42.420  60.726 -50.850  1.00  0.00    -0.030 A 
HETATM    3  C   UNL     1     -43.321  60.172 -51.779  1.00  0.00     0.087 A 
HETATM    4  C   UNL     1     -43.190  58.822 -52.163  1.00  0.00     0.160 A 
HETATM    5  N   UNL     1     -44.129  58.243 -53.063  1.00  0.00    -0.287 N 
HETATM    6  C   UNL     1     -44.141  56.922 -53.550  1.00  0.00     0.263 C 
HETATM    7  O   UNL     1     -44.867  56.629 -54.506  1.00  0.00    -0.267 OA
HETATM    8  C   UNL     1     -45.096  59.122 -53.713  1.00  0.00     0.237 C 
HETATM    9  C   UNL     1     -45.222  60.556 -53.245  1.00  0.00     0.240 C 
HETATM   10  O   UNL     1     -46.060  61.333 -53.699  1.00  0.00    -0.271 OA
HETATM   11  N   UNL     1     -44.329  60.983 -52.313  1.00  0.00    -0.322 N 
HETATM   12  N   UNL     1     -42.177  58.074 -51.686  1.00  0.00    -0.241 NA
HETATM   13  C   UNL     1     -41.316  58.614 -50.800  1.00  0.00     0.119 A 
HETATM   14  C   UNL     1     -41.399  59.915 -50.352  1.00  0.00     0.028 A 
HETATM   15  H   UNL     1     -44.418  61.954 -52.044  1.00  0.00     0.169 HD
ENDROOT
BRANCH   6  16
HETATM   16  C   UNL     1     -43.318  55.871 -52.977  1.00  0.00     0.076 C 
HETATM   17  C   UNL     1     -43.416  55.331 -51.669  1.00  0.00     0.068 C 
HETATM   18  C   UNL     1     -44.369  55.709 -50.595  1.00  0.00     0.073 C 
HETATM   19  N   UNL     1     -42.515  54.366 -51.454  1.00  0.00    -0.172 NA
HETATM   20  N   UNL     1     -41.841  54.253 -52.627  1.00  0.00    -0.244 N 
HETATM   21  C   UNL     1     -42.204  55.249 -53.506  1.00  0.00     0.138 C 
BRANCH  20  22
HETATM   22  C   UNL     1     -40.918  53.189 -52.834  1.00  0.00     0.058 A 
HETATM   23  C   UNL     1     -40.179  52.697 -51.746  1.00  0.00     0.031 A 
HETATM   24  C   UNL     1     -39.302  51.624 -51.916  1.00  0.00     0.002 A 
HETATM   25  C   UNL     1     -39.154  51.036 -53.170  1.00  0.00     0.000 A 
HETATM   26  C   UNL     1     -39.881  51.522 -54.256  1.00  0.00     0.002 A 
HETATM   27  C   UNL     1     -40.761  52.596 -54.094  1.00  0.00     0.031 A 
ENDBRANCH  20  22
ENDBRANCH   6  16
TORSDOF 2
ENDMDL
MODEL 9
REMARK VINA RESULT:      -7.5      2.857      6.840
REMARK  2 active torsions:
REMARK  status: ('A' for Active; 'I' for Inactive)
REMARK       I    between atoms: N_5  and  C_6 
REMARK    1  A    between atoms: C_6  and  C_7 
REMARK    2  A    between atoms: N_11  and  C_12 
ROOT
HETATM    1  C   UNL     1     -43.192  55.075 -50.458  1.00  0.00     0.050 C 
HETATM    2  C   UNL     1     -43.335  55.792 -51.772  1.00  0.00    -0.030 A 
HETATM    3  C   UNL     1     -44.067  56.988 -51.913  1.00  0.00     0.087 A 
HETATM    4  C   UNL     1     -44.156  57.610 -53.174  1.00  0.00     0.160 A 
HETATM    5  N   UNL     1     -44.936  58.791 -53.332  1.00  0.00    -0.287 N 
HETATM    6  C   UNL     1     -45.125  59.536 -54.510  1.00  0.00     0.263 C 
HETATM    7  O   UNL     1     -45.625  60.665 -54.448  1.00  0.00    -0.267 OA
HETATM    8  C   UNL     1     -45.470  59.432 -52.134  1.00  0.00     0.237 C 
HETATM    9  C   UNL     1     -45.378  58.710 -50.807  1.00  0.00     0.240 C 
HETATM   10  O   UNL     1     -45.866  59.158 -49.771  1.00  0.00    -0.271 OA
HETATM   11  N   UNL     1     -44.685  57.540 -50.785  1.00  0.00    -0.322 N 
HETATM   12  N   UNL     1     -43.504  57.097 -54.233  1.00  0.00    -0.241 NA
HETATM   13  C   UNL     1     -42.802  55.954 -54.090  1.00  0.00     0.119 A 
HETATM   14  C   UNL     1     -42.696  55.270 -52.897  1.00  0.00     0.028 A 
HETATM   15  H   UNL     1     -44.614  57.098 -49.878  1.00  0.00     0.169 HD
ENDROOT
BRANCH   6  16
HETATM   16  C   UNL     1     -44.747  59.035 -55.821  1.00  0.00     0.076 C 
HETATM   17  C   UNL     1     -43.597  59.393 -56.571  1.00  0.00     0.068 C 
HETATM   18  C   UNL     1     -42.526  60.350 -56.196  1.00  0.00     0.073 C 
HETATM   19  N   UNL     1     -43.536  58.744 -57.738  1.00  0.00    -0.172 NA
HETATM   20  N   UNL     1     -44.630  57.941 -57.748  1.00  0.00    -0.244 N 
HETATM   21  C   UNL     1     -45.451  58.209 -56.675  1.00  0.00     0.138 C 
BRANCH  20  22
HETATM   22  C   UNL     1     -44.801  56.958 -58.763  1.00  0.00     0.058 A 
HETATM   23  C   UNL     1     -45.964  56.979 -59.551  1.00  0.00     0.031 A 
HETATM   24  C   UNL     1     -46.133  56.054 -60.583  1.00  0.00     0.002 A 
HETATM   25  C   UNL     1     -45.148  55.103 -60.836  1.00  0.00     0.000 A 
HETATM   26  C   UNL     1     -43.993  55.073 -60.056  1.00  0.00     0.002 A 
HETATM   27  C   UNL     1     -43.816  55.996 -59.020  1.00  0.00     0.031 A 
ENDBRANCH  20  22
ENDBRANCH   6  16
TORSDOF 2
ENDMDL
MODEL 10
REMARK VINA RESULT:      -7.4      2.406      4.321
REMARK  2 active torsions:
REMARK  status: ('A' for Active; 'I' for Inactive)
REMARK       I    between atoms: N_5  and  C_6 
REMARK    1  A    between atoms: C_6  and  C_7 
REMARK    2  A    between atoms: N_11  and  C_12 
ROOT
HETATM    1  C   UNL     1     -42.866  62.504 -50.758  1.00  0.00     0.050 C 
HETATM    2  C   UNL     1     -42.637  61.148 -51.366  1.00  0.00    -0.030 A 
HETATM    3  C   UNL     1     -42.663  60.923 -52.757  1.00  0.00     0.087 A 
HETATM    4  C   UNL     1     -42.434  59.626 -53.261  1.00  0.00     0.160 A 
HETATM    5  N   UNL     1     -42.509  59.383 -54.661  1.00  0.00    -0.287 N 
HETATM    6  C   UNL     1     -42.303  58.160 -55.326  1.00  0.00     0.263 C 
HETATM    7  O   UNL     1     -42.162  58.146 -56.554  1.00  0.00    -0.267 OA
HETATM    8  C   UNL     1     -42.636  60.529 -55.556  1.00  0.00     0.237 C 
HETATM    9  C   UNL     1     -42.913  61.897 -54.970  1.00  0.00     0.240 C 
HETATM   10  O   UNL     1     -43.100  62.893 -55.666  1.00  0.00    -0.271 OA
HETATM   11  N   UNL     1     -42.908  62.001 -53.614  1.00  0.00    -0.322 N 
HETATM   12  N   UNL     1     -42.139  58.614 -52.424  1.00  0.00    -0.241 NA
HETATM   13  C   UNL     1     -42.112  58.840 -51.094  1.00  0.00     0.119 A 
HETATM   14  C   UNL     1     -42.358  60.071 -50.525  1.00  0.00     0.028 A 
HETATM   15  H   UNL     1     -43.063  62.934 -53.253  1.00  0.00     0.169 HD
ENDROOT
BRANCH   6  16
HETATM   16  C   UNL     1     -42.240  56.890 -54.623  1.00  0.00     0.076 C 
HETATM   17  C   UNL     1     -43.325  56.180 -54.047  1.00  0.00     0.068 C 
HETATM   18  C   UNL     1     -44.758  56.564 -54.029  1.00  0.00     0.073 C 
HETATM   19  N   UNL     1     -42.932  55.035 -53.479  1.00  0.00    -0.172 NA
HETATM   20  N   UNL     1     -41.594  54.977 -53.702  1.00  0.00    -0.244 N 
HETATM   21  C   UNL     1     -41.133  56.151 -54.254  1.00  0.00     0.138 C 
BRANCH  20  22
HETATM   22  C   UNL     1     -40.857  53.799 -53.396  1.00  0.00     0.058 A 
HETATM   23  C   UNL     1     -40.511  53.531 -52.061  1.00  0.00     0.031 A 
HETATM   24  C   UNL     1     -39.828  52.359 -51.731  1.00  0.00     0.002 A 
HETATM   25  C   UNL     1     -39.484  51.448 -52.727  1.00  0.00     0.000 A 
HETATM   26  C   UNL     1     -39.819  51.709 -54.055  1.00  0.00     0.002 A 
HETATM   27  C   UNL     1     -40.503  52.880 -54.394  1.00  0.00     0.031 A 
ENDBRANCH  20  22
ENDBRANCH   6  16
TORSDOF 2
ENDMDL
