MODEL 1
REMARK VINA RESULT:      -9.0      0.000      0.000
REMARK  3 active torsions:
REMARK  status: ('A' for Active; 'I' for Inactive)
REMARK    1  A    between atoms: C_6  and  N_7 
REMARK       I    between atoms: N_7  and  C_8 
REMARK    2  A    between atoms: C_8  and  C_9 
REMARK    3  A    between atoms: C_9  and  N_10 
ROOT
HETATM    1  N   UNL     1     -42.002  55.943 -54.501  1.00  0.00    -0.224 N 
HETATM    2  N   UNL     1     -41.661  55.030 -55.524  1.00  0.00    -0.180 NA
HETATM    3  C   UNL     1     -41.144  53.876 -55.210  1.00  0.00     0.153 A 
HETATM    4  C   UNL     1     -40.904  53.524 -53.841  1.00  0.00     0.028 A 
HETATM    5  C   UNL     1     -41.199  54.437 -52.862  1.00  0.00     0.116 A 
HETATM    6  N   UNL     1     -40.877  53.891 -51.653  1.00  0.00    -0.350 N 
HETATM    7  H   UNL     1     -40.990  54.356 -50.761  1.00  0.00     0.166 HD
HETATM    8  C   UNL     1     -40.378  52.618 -51.839  1.00  0.00     0.044 A 
HETATM    9  C   UNL     1     -40.382  52.362 -53.217  1.00  0.00     0.005 A 
HETATM   10  C   UNL     1     -39.924  51.682 -50.903  1.00  0.00     0.030 A 
HETATM   11  C   UNL     1     -39.461  50.455 -51.384  1.00  0.00     0.002 A 
HETATM   12  C   UNL     1     -39.451  50.174 -52.749  1.00  0.00     0.001 A 
HETATM   13  C   UNL     1     -39.909  51.117 -53.676  1.00  0.00     0.014 A 
HETATM   14  C   UNL     1     -41.739  55.736 -53.133  1.00  0.00     0.291 A 
HETATM   15  O   UNL     1     -41.950  56.563 -52.253  1.00  0.00    -0.264 OA
ENDROOT
BRANCH   1  16
HETATM   16  C   UNL     1     -42.439  57.265 -54.930  1.00  0.00     0.258 C 
BRANCH  16  17
HETATM   17  C   UNL     1     -43.658  57.319 -55.875  1.00  0.00     0.244 C 
HETATM   18  N   UNL     1     -43.443  57.537 -57.249  1.00  0.00    -0.321 N 
HETATM   19  C   UNL     1     -42.181  58.115 -57.712  1.00  0.00     0.159 C 
HETATM   20  O   UNL     1     -44.772  57.271 -55.343  1.00  0.00    -0.271 OA
BRANCH  18  21
HETATM   21  C   UNL     1     -44.453  57.285 -58.260  1.00  0.00     0.037 A 
HETATM   22  C   UNL     1     -44.306  56.333 -59.278  1.00  0.00     0.037 A 
HETATM   23  C   UNL     1     -45.307  56.090 -60.246  1.00  0.00    -0.054 A 
HETATM   24  C   UNL     1     -46.510  56.811 -60.196  1.00  0.00    -0.056 A 
HETATM   25  C   UNL     1     -45.074  55.013 -61.272  1.00  0.00     0.049 C 
HETATM   26  C   UNL     1     -47.614  56.589 -61.190  1.00  0.00     0.049 C 
HETATM   27  C   UNL     1     -46.659  57.791 -59.210  1.00  0.00     0.009 A 
HETATM   28  C   UNL     1     -45.652  58.020 -58.264  1.00  0.00     0.030 A 
ENDBRANCH  18  21
ENDBRANCH  16  17
ENDBRANCH   1  16
TORSDOF 3
ENDMDL
MODEL 2
REMARK VINA RESULT:      -9.0      1.351      1.903
REMARK  3 active torsions:
REMARK  status: ('A' for Active; 'I' for Inactive)
REMARK    1  A    between atoms: C_6  and  N_7 
REMARK       I    between atoms: N_7  and  C_8 
REMARK    2  A    between atoms: C_8  and  C_9 
REMARK    3  A    between atoms: C_9  and  N_10 
ROOT
HETATM    1  N   UNL     1     -41.285  55.788 -53.757  1.00  0.00    -0.224 N 
HETATM    2  N   UNL     1     -41.320  55.700 -52.348  1.00  0.00    -0.180 NA
HETATM    3  C   UNL     1     -40.993  54.581 -51.766  1.00  0.00     0.153 A 
HETATM    4  C   UNL     1     -40.610  53.434 -52.535  1.00  0.00     0.028 A 
HETATM    5  C   UNL     1     -40.623  53.521 -53.904  1.00  0.00     0.116 A 
HETATM    6  N   UNL     1     -40.240  52.315 -54.416  1.00  0.00    -0.350 N 
HETATM    7  H   UNL     1     -40.168  52.104 -55.403  1.00  0.00     0.166 HD
HETATM    8  C   UNL     1     -39.968  51.440 -53.383  1.00  0.00     0.044 A 
HETATM    9  C   UNL     1     -40.198  52.124 -52.182  1.00  0.00     0.005 A 
HETATM   10  C   UNL     1     -39.544  50.108 -53.421  1.00  0.00     0.030 A 
HETATM   11  C   UNL     1     -39.351  49.454 -52.201  1.00  0.00     0.002 A 
HETATM   12  C   UNL     1     -39.573  50.107 -50.991  1.00  0.00     0.001 A 
HETATM   13  C   UNL     1     -39.996  51.442 -50.966  1.00  0.00     0.014 A 
HETATM   14  C   UNL     1     -41.001  54.707 -54.614  1.00  0.00     0.291 A 
HETATM   15  O   UNL     1     -41.060  54.756 -55.838  1.00  0.00    -0.264 OA
ENDROOT
BRANCH   1  16
HETATM   16  C   UNL     1     -41.800  57.019 -54.344  1.00  0.00     0.258 C 
BRANCH  16  17
HETATM   17  C   UNL     1     -43.041  56.889 -55.251  1.00  0.00     0.244 C 
HETATM   18  N   UNL     1     -43.043  57.539 -56.499  1.00  0.00    -0.321 N 
HETATM   19  C   UNL     1     -42.110  58.637 -56.755  1.00  0.00     0.159 C 
HETATM   20  O   UNL     1     -44.015  56.297 -54.772  1.00  0.00    -0.271 OA
BRANCH  18  21
HETATM   21  C   UNL     1     -43.989  57.229 -57.554  1.00  0.00     0.037 A 
HETATM   22  C   UNL     1     -43.828  56.160 -58.446  1.00  0.00     0.037 A 
HETATM   23  C   UNL     1     -44.767  55.863 -59.460  1.00  0.00    -0.054 A 
HETATM   24  C   UNL     1     -45.921  56.651 -59.587  1.00  0.00    -0.056 A 
HETATM   25  C   UNL     1     -44.528  54.664 -60.338  1.00  0.00     0.049 C 
HETATM   26  C   UNL     1     -46.960  56.377 -60.638  1.00  0.00     0.049 C 
HETATM   27  C   UNL     1     -46.079  57.744 -58.732  1.00  0.00     0.009 A 
HETATM   28  C   UNL     1     -45.133  58.024 -57.737  1.00  0.00     0.030 A 
ENDBRANCH  18  21
ENDBRANCH  16  17
ENDBRANCH   1  16
TORSDOF 3
ENDMDL
MODEL 3
REMARK VINA RESULT:      -8.9      3.652      4.745
REMARK  3 active torsions:
REMARK  status: ('A' for Active; 'I' for Inactive)
REMARK    1  A    between atoms: C_6  and  N_7 
REMARK       I    between atoms: N_7  and  C_8 
REMARK    2  A    between atoms: C_8  and  C_9 
REMARK    3  A    between atoms: C_9  and  N_10 
ROOT
HETATM    1  N   UNL     1     -41.267  55.657 -51.226  1.00  0.00    -0.224 N 
HETATM    2  N   UNL     1     -41.369  55.615 -52.634  1.00  0.00    -0.180 NA
HETATM    3  C   UNL     1     -41.064  54.519 -53.269  1.00  0.00     0.153 A 
HETATM    4  C   UNL     1     -40.614  53.357 -52.559  1.00  0.00     0.028 A 
HETATM    5  C   UNL     1     -40.478  53.426 -51.197  1.00  0.00     0.116 A 
HETATM    6  N   UNL     1     -40.028  52.218 -50.747  1.00  0.00    -0.350 N 
HETATM    7  H   UNL     1     -39.838  51.997 -49.778  1.00  0.00     0.166 HD
HETATM    8  C   UNL     1     -39.876  51.356 -51.814  1.00  0.00     0.044 A 
HETATM    9  C   UNL     1     -40.238  52.054 -52.974  1.00  0.00     0.005 A 
HETATM   10  C   UNL     1     -39.447  50.024 -51.841  1.00  0.00     0.030 A 
HETATM   11  C   UNL     1     -39.383  49.389 -53.085  1.00  0.00     0.002 A 
HETATM   12  C   UNL     1     -39.735  50.059 -54.254  1.00  0.00     0.001 A 
HETATM   13  C   UNL     1     -40.164  51.391 -54.214  1.00  0.00     0.014 A 
HETATM   14  C   UNL     1     -40.764  54.605 -50.435  1.00  0.00     0.291 A 
HETATM   15  O   UNL     1     -40.588  54.671 -49.223  1.00  0.00    -0.264 OA
ENDROOT
BRANCH   1  16
HETATM   16  C   UNL     1     -41.485  56.954 -50.597  1.00  0.00     0.258 C 
BRANCH  16  17
HETATM   17  C   UNL     1     -42.183  58.031 -51.453  1.00  0.00     0.244 C 
HETATM   18  N   UNL     1     -41.391  58.938 -52.182  1.00  0.00    -0.321 N 
HETATM   19  C   UNL     1     -39.988  59.143 -51.819  1.00  0.00     0.159 C 
HETATM   20  O   UNL     1     -43.413  58.096 -51.363  1.00  0.00    -0.271 OA
BRANCH  18  21
HETATM   21  C   UNL     1     -41.913  59.763 -53.255  1.00  0.00     0.037 A 
HETATM   22  C   UNL     1     -41.759  59.452 -54.613  1.00  0.00     0.037 A 
HETATM   23  C   UNL     1     -42.287  60.260 -55.646  1.00  0.00    -0.054 A 
HETATM   24  C   UNL     1     -43.009  61.418 -55.319  1.00  0.00    -0.056 A 
HETATM   25  C   UNL     1     -42.110  59.815 -57.073  1.00  0.00     0.049 C 
HETATM   26  C   UNL     1     -43.604  62.309 -56.373  1.00  0.00     0.049 C 
HETATM   27  C   UNL     1     -43.140  61.764 -53.972  1.00  0.00     0.009 A 
HETATM   28  C   UNL     1     -42.604  60.953 -52.964  1.00  0.00     0.030 A 
ENDBRANCH  18  21
ENDBRANCH  16  17
ENDBRANCH   1  16
TORSDOF 3
ENDMDL
MODEL 4
REMARK VINA RESULT:      -8.8      4.635      5.853
REMARK  3 active torsions:
REMARK  status: ('A' for Active; 'I' for Inactive)
REMARK    1  A    between atoms: C_6  and  N_7 
REMARK       I    between atoms: N_7  and  C_8 
REMARK    2  A    between atoms: C_8  and  C_9 
REMARK    3  A    between atoms: C_9  and  N_10 
ROOT
HETATM    1  N   UNL     1     -41.078  55.952 -51.722  1.00  0.00    -0.224 N 
HETATM    2  N   UNL     1     -41.137  55.790 -53.124  1.00  0.00    -0.180 NA
HETATM    3  C   UNL     1     -40.878  54.625 -53.648  1.00  0.00     0.153 A 
HETATM    4  C   UNL     1     -40.521  53.508 -52.823  1.00  0.00     0.028 A 
HETATM    5  C   UNL     1     -40.426  53.692 -51.468  1.00  0.00     0.116 A 
HETATM    6  N   UNL     1     -40.064  52.506 -50.897  1.00  0.00    -0.350 N 
HETATM    7  H   UNL     1     -39.919  52.362 -49.906  1.00  0.00     0.166 HD
HETATM    8  C   UNL     1     -39.930  51.543 -51.878  1.00  0.00     0.044 A 
HETATM    9  C   UNL     1     -40.212  52.154 -53.107  1.00  0.00     0.005 A 
HETATM   10  C   UNL     1     -39.580  50.193 -51.772  1.00  0.00     0.030 A 
HETATM   11  C   UNL     1     -39.515  49.445 -52.951  1.00  0.00     0.002 A 
HETATM   12  C   UNL     1     -39.788  50.026 -54.188  1.00  0.00     0.001 A 
HETATM   13  C   UNL     1     -40.138  51.379 -54.281  1.00  0.00     0.014 A 
HETATM   14  C   UNL     1     -40.665  54.949 -50.824  1.00  0.00     0.291 A 
HETATM   15  O   UNL     1     -40.524  55.113 -49.617  1.00  0.00    -0.264 OA
ENDROOT
BRANCH   1  16
HETATM   16  C   UNL     1     -41.238  57.310 -51.218  1.00  0.00     0.258 C 
BRANCH  16  17
HETATM   17  C   UNL     1     -42.669  57.885 -51.216  1.00  0.00     0.244 C 
HETATM   18  N   UNL     1     -42.842  59.280 -51.143  1.00  0.00    -0.321 N 
HETATM   19  C   UNL     1     -41.754  60.129 -50.657  1.00  0.00     0.159 C 
HETATM   20  O   UNL     1     -43.593  57.065 -51.173  1.00  0.00    -0.271 OA
BRANCH  18  21
HETATM   21  C   UNL     1     -44.093  59.943 -51.459  1.00  0.00     0.037 A 
HETATM   22  C   UNL     1     -44.765  60.790 -50.567  1.00  0.00     0.037 A 
HETATM   23  C   UNL     1     -45.977  61.439 -50.897  1.00  0.00    -0.054 A 
HETATM   24  C   UNL     1     -46.540  61.250 -52.168  1.00  0.00    -0.056 A 
HETATM   25  C   UNL     1     -46.597  62.368 -49.888  1.00  0.00     0.049 C 
HETATM   26  C   UNL     1     -47.820  61.922 -52.580  1.00  0.00     0.049 C 
HETATM   27  C   UNL     1     -45.904  60.379 -53.056  1.00  0.00     0.009 A 
HETATM   28  C   UNL     1     -44.707  59.741 -52.707  1.00  0.00     0.030 A 
ENDBRANCH  18  21
ENDBRANCH  16  17
ENDBRANCH   1  16
TORSDOF 3
ENDMDL
MODEL 5
REMARK VINA RESULT:      -8.7      5.012      6.220
REMARK  3 active torsions:
REMARK  status: ('A' for Active; 'I' for Inactive)
REMARK    1  A    between atoms: C_6  and  N_7 
REMARK       I    between atoms: N_7  and  C_8 
REMARK    2  A    between atoms: C_8  and  C_9 
REMARK    3  A    between atoms: C_9  and  N_10 
ROOT
HETATM    1  N   UNL     1     -41.123  55.611 -50.940  1.00  0.00    -0.224 N 
HETATM    2  N   UNL     1     -41.219  55.685 -52.347  1.00  0.00    -0.180 NA
HETATM    3  C   UNL     1     -40.952  54.632 -53.066  1.00  0.00     0.153 A 
HETATM    4  C   UNL     1     -40.548  53.402 -52.450  1.00  0.00     0.028 A 
HETATM    5  C   UNL     1     -40.417  53.358 -51.086  1.00  0.00     0.116 A 
HETATM    6  N   UNL     1     -40.014  52.102 -50.732  1.00  0.00    -0.350 N 
HETATM    7  H   UNL     1     -39.837  51.798 -49.783  1.00  0.00     0.166 HD
HETATM    8  C   UNL     1     -39.889  51.322 -51.864  1.00  0.00     0.044 A 
HETATM    9  C   UNL     1     -40.218  52.123 -52.965  1.00  0.00     0.005 A 
HETATM   10  C   UNL     1     -39.508  49.982 -51.996  1.00  0.00     0.030 A 
HETATM   11  C   UNL     1     -39.461  49.444 -53.285  1.00  0.00     0.002 A 
HETATM   12  C   UNL     1     -39.782  50.217 -54.399  1.00  0.00     0.001 A 
HETATM   13  C   UNL     1     -40.162  51.557 -54.254  1.00  0.00     0.014 A 
HETATM   14  C   UNL     1     -40.663  54.483 -50.234  1.00  0.00     0.291 A 
HETATM   15  O   UNL     1     -40.491  54.446 -49.020  1.00  0.00    -0.264 OA
ENDROOT
BRANCH   1  16
HETATM   16  C   UNL     1     -41.296  56.862 -50.211  1.00  0.00     0.258 C 
BRANCH  16  17
HETATM   17  C   UNL     1     -41.361  58.152 -51.054  1.00  0.00     0.244 C 
HETATM   18  N   UNL     1     -42.620  58.700 -51.364  1.00  0.00    -0.321 N 
HETATM   19  C   UNL     1     -43.823  57.871 -51.273  1.00  0.00     0.159 C 
HETATM   20  O   UNL     1     -40.288  58.574 -51.500  1.00  0.00    -0.271 OA
BRANCH  18  21
HETATM   21  C   UNL     1     -42.797  60.053 -51.854  1.00  0.00     0.037 A 
HETATM   22  C   UNL     1     -42.934  61.167 -51.014  1.00  0.00     0.037 A 
HETATM   23  C   UNL     1     -43.092  62.482 -51.509  1.00  0.00    -0.054 A 
HETATM   24  C   UNL     1     -43.102  62.704 -52.894  1.00  0.00    -0.056 A 
HETATM   25  C   UNL     1     -43.183  63.618 -50.526  1.00  0.00     0.049 C 
HETATM   26  C   UNL     1     -43.255  64.080 -53.479  1.00  0.00     0.049 C 
HETATM   27  C   UNL     1     -43.006  61.601 -53.747  1.00  0.00     0.009 A 
HETATM   28  C   UNL     1     -42.856  60.306 -53.236  1.00  0.00     0.030 A 
ENDBRANCH  18  21
ENDBRANCH  16  17
ENDBRANCH   1  16
TORSDOF 3
ENDMDL
MODEL 6
REMARK VINA RESULT:      -8.6      1.298      8.273
REMARK  3 active torsions:
REMARK  status: ('A' for Active; 'I' for Inactive)
REMARK    1  A    between atoms: C_6  and  N_7 
REMARK       I    between atoms: N_7  and  C_8 
REMARK    2  A    between atoms: C_8  and  C_9 
REMARK    3  A    between atoms: C_9  and  N_10 
ROOT
HETATM    1  N   UNL     1     -42.923  57.854 -55.762  1.00  0.00    -0.224 N 
HETATM    2  N   UNL     1     -42.166  56.977 -56.570  1.00  0.00    -0.180 NA
HETATM    3  C   UNL     1     -42.685  56.508 -57.670  1.00  0.00     0.153 A 
HETATM    4  C   UNL     1     -44.018  56.858 -58.065  1.00  0.00     0.028 A 
HETATM    5  C   UNL     1     -44.756  57.676 -57.247  1.00  0.00     0.116 A 
HETATM    6  N   UNL     1     -45.984  57.858 -57.816  1.00  0.00    -0.350 N 
HETATM    7  H   UNL     1     -46.728  58.416 -57.417  1.00  0.00     0.166 HD
HETATM    8  C   UNL     1     -46.047  57.166 -59.009  1.00  0.00     0.044 A 
HETATM    9  C   UNL     1     -44.815  56.522 -59.187  1.00  0.00     0.005 A 
HETATM   10  C   UNL     1     -47.093  57.059 -59.933  1.00  0.00     0.030 A 
HETATM   11  C   UNL     1     -46.877  56.273 -61.068  1.00  0.00     0.002 A 
HETATM   12  C   UNL     1     -45.663  55.620 -61.272  1.00  0.00     0.001 A 
HETATM   13  C   UNL     1     -44.624  55.736 -60.340  1.00  0.00     0.014 A 
HETATM   14  C   UNL     1     -44.265  58.204 -56.009  1.00  0.00     0.291 A 
HETATM   15  O   UNL     1     -44.953  58.891 -55.262  1.00  0.00    -0.264 OA
ENDROOT
BRANCH   1  16
HETATM   16  C   UNL     1     -42.336  58.224 -54.480  1.00  0.00     0.258 C 
BRANCH  16  17
HETATM   17  C   UNL     1     -41.503  57.142 -53.761  1.00  0.00     0.244 C 
HETATM   18  N   UNL     1     -42.166  56.039 -53.191  1.00  0.00    -0.321 N 
HETATM   19  C   UNL     1     -43.599  56.114 -52.904  1.00  0.00     0.159 C 
HETATM   20  O   UNL     1     -40.294  57.368 -53.639  1.00  0.00    -0.271 OA
BRANCH  18  21
HETATM   21  C   UNL     1     -41.484  54.824 -52.790  1.00  0.00     0.037 A 
HETATM   22  C   UNL     1     -41.218  53.762 -53.665  1.00  0.00     0.037 A 
HETATM   23  C   UNL     1     -40.539  52.590 -53.261  1.00  0.00    -0.054 A 
HETATM   24  C   UNL     1     -40.093  52.471 -51.936  1.00  0.00    -0.056 A 
HETATM   25  C   UNL     1     -40.259  51.527 -54.288  1.00  0.00     0.049 C 
HETATM   26  C   UNL     1     -39.356  51.254 -51.451  1.00  0.00     0.049 C 
HETATM   27  C   UNL     1     -40.382  53.503 -51.039  1.00  0.00     0.009 A 
HETATM   28  C   UNL     1     -41.062  54.653 -51.459  1.00  0.00     0.030 A 
ENDBRANCH  18  21
ENDBRANCH  16  17
ENDBRANCH   1  16
TORSDOF 3
ENDMDL
MODEL 7
REMARK VINA RESULT:      -8.6      3.997      8.721
REMARK  3 active torsions:
REMARK  status: ('A' for Active; 'I' for Inactive)
REMARK    1  A    between atoms: C_6  and  N_7 
REMARK       I    between atoms: N_7  and  C_8 
REMARK    2  A    between atoms: C_8  and  C_9 
REMARK    3  A    between atoms: C_9  and  N_10 
ROOT
HETATM    1  N   UNL     1     -43.291  57.482 -53.292  1.00  0.00    -0.224 N 
HETATM    2  N   UNL     1     -42.354  57.724 -52.263  1.00  0.00    -0.180 NA
HETATM    3  C   UNL     1     -42.601  58.642 -51.372  1.00  0.00     0.153 A 
HETATM    4  C   UNL     1     -43.804  59.420 -51.428  1.00  0.00     0.028 A 
HETATM    5  C   UNL     1     -44.683  59.204 -52.458  1.00  0.00     0.116 A 
HETATM    6  N   UNL     1     -45.736  60.060 -52.313  1.00  0.00    -0.350 N 
HETATM    7  H   UNL     1     -46.528  60.114 -52.941  1.00  0.00     0.166 HD
HETATM    8  C   UNL     1     -45.551  60.832 -51.183  1.00  0.00     0.044 A 
HETATM    9  C   UNL     1     -44.332  60.448 -50.607  1.00  0.00     0.005 A 
HETATM   10  C   UNL     1     -46.359  61.835 -50.635  1.00  0.00     0.030 A 
HETATM   11  C   UNL     1     -45.912  62.463 -49.470  1.00  0.00     0.002 A 
HETATM   12  C   UNL     1     -44.704  62.103 -48.876  1.00  0.00     0.001 A 
HETATM   13  C   UNL     1     -43.904  61.098 -49.433  1.00  0.00     0.014 A 
HETATM   14  C   UNL     1     -44.465  58.234 -53.490  1.00  0.00     0.291 A 
HETATM   15  O   UNL     1     -45.233  58.087 -54.435  1.00  0.00    -0.264 OA
ENDROOT
BRANCH   1  16
HETATM   16  C   UNL     1     -42.885  56.544 -54.331  1.00  0.00     0.258 C 
BRANCH  16  17
HETATM   17  C   UNL     1     -42.557  55.106 -53.878  1.00  0.00     0.244 C 
HETATM   18  N   UNL     1     -41.228  54.652 -53.968  1.00  0.00    -0.321 N 
HETATM   19  C   UNL     1     -40.276  55.337 -54.843  1.00  0.00     0.159 C 
HETATM   20  O   UNL     1     -43.516  54.396 -53.557  1.00  0.00    -0.271 OA
BRANCH  18  21
HETATM   21  C   UNL     1     -40.746  53.467 -53.283  1.00  0.00     0.037 A 
HETATM   22  C   UNL     1     -40.412  52.276 -53.942  1.00  0.00     0.037 A 
HETATM   23  C   UNL     1     -39.931  51.135 -53.260  1.00  0.00    -0.054 A 
HETATM   24  C   UNL     1     -39.761  51.181 -51.867  1.00  0.00    -0.056 A 
HETATM   25  C   UNL     1     -39.554  49.919 -54.062  1.00  0.00     0.049 C 
HETATM   26  C   UNL     1     -39.242  50.004 -51.090  1.00  0.00     0.049 C 
HETATM   27  C   UNL     1     -40.125  52.347 -51.189  1.00  0.00     0.009 A 
HETATM   28  C   UNL     1     -40.606  53.465 -51.884  1.00  0.00     0.030 A 
ENDBRANCH  18  21
ENDBRANCH  16  17
ENDBRANCH   1  16
TORSDOF 3
ENDMDL
MODEL 8
REMARK VINA RESULT:      -8.6     14.922     18.256
REMARK  3 active torsions:
REMARK  status: ('A' for Active; 'I' for Inactive)
REMARK    1  A    between atoms: C_6  and  N_7 
REMARK       I    between atoms: N_7  and  C_8 
REMARK    2  A    between atoms: C_8  and  C_9 
REMARK    3  A    between atoms: C_9  and  N_10 
ROOT
HETATM    1  N   UNL     1     -37.426  41.127 -57.329  1.00  0.00    -0.224 N 
HETATM    2  N   UNL     1     -37.837  39.830 -56.951  1.00  0.00    -0.180 NA
HETATM    3  C   UNL     1     -38.013  38.919 -57.865  1.00  0.00     0.153 A 
HETATM    4  C   UNL     1     -37.808  39.217 -59.252  1.00  0.00     0.028 A 
HETATM    5  C   UNL     1     -37.451  40.493 -59.608  1.00  0.00     0.116 A 
HETATM    6  N   UNL     1     -37.326  40.542 -60.967  1.00  0.00    -0.350 N 
HETATM    7  H   UNL     1     -37.074  41.368 -61.494  1.00  0.00     0.166 HD
HETATM    8  C   UNL     1     -37.593  39.297 -61.500  1.00  0.00     0.044 A 
HETATM    9  C   UNL     1     -37.904  38.441 -60.435  1.00  0.00     0.005 A 
HETATM   10  C   UNL     1     -37.588  38.868 -62.832  1.00  0.00     0.030 A 
HETATM   11  C   UNL     1     -37.910  37.532 -63.085  1.00  0.00     0.002 A 
HETATM   12  C   UNL     1     -38.225  36.659 -62.046  1.00  0.00     0.001 A 
HETATM   13  C   UNL     1     -38.226  37.099 -60.717  1.00  0.00     0.014 A 
HETATM   14  C   UNL     1     -37.270  41.554 -58.662  1.00  0.00     0.291 A 
HETATM   15  O   UNL     1     -37.002  42.702 -58.997  1.00  0.00    -0.264 OA
ENDROOT
BRANCH   1  16
HETATM   16  C   UNL     1     -37.389  42.131 -56.272  1.00  0.00     0.258 C 
BRANCH  16  17
HETATM   17  C   UNL     1     -36.169  42.098 -55.328  1.00  0.00     0.244 C 
HETATM   18  N   UNL     1     -36.288  41.450 -54.084  1.00  0.00    -0.321 N 
HETATM   19  C   UNL     1     -37.612  41.194 -53.515  1.00  0.00     0.159 C 
HETATM   20  O   UNL     1     -35.177  42.744 -55.685  1.00  0.00    -0.271 OA
BRANCH  18  21
HETATM   21  C   UNL     1     -35.147  41.074 -53.272  1.00  0.00     0.037 A 
HETATM   22  C   UNL     1     -34.136  40.210 -53.714  1.00  0.00     0.037 A 
HETATM   23  C   UNL     1     -33.022  39.865 -52.915  1.00  0.00    -0.054 A 
HETATM   24  C   UNL     1     -32.898  40.410 -51.628  1.00  0.00    -0.056 A 
HETATM   25  C   UNL     1     -31.965  38.966 -53.497  1.00  0.00     0.049 C 
HETATM   26  C   UNL     1     -31.732  40.090 -50.737  1.00  0.00     0.049 C 
HETATM   27  C   UNL     1     -33.916  41.244 -51.156  1.00  0.00     0.009 A 
HETATM   28  C   UNL     1     -35.014  41.568 -51.963  1.00  0.00     0.030 A 
ENDBRANCH  18  21
ENDBRANCH  16  17
ENDBRANCH   1  16
TORSDOF 3
ENDMDL
MODEL 9
REMARK VINA RESULT:      -8.4      1.519      8.635
REMARK  3 active torsions:
REMARK  status: ('A' for Active; 'I' for Inactive)
REMARK    1  A    between atoms: C_6  and  N_7 
REMARK       I    between atoms: N_7  and  C_8 
REMARK    2  A    between atoms: C_8  and  C_9 
REMARK    3  A    between atoms: C_9  and  N_10 
ROOT
HETATM    1  N   UNL     1     -42.722  57.294 -54.971  1.00  0.00    -0.224 N 
HETATM    2  N   UNL     1     -42.258  56.791 -56.206  1.00  0.00    -0.180 NA
HETATM    3  C   UNL     1     -42.985  56.944 -57.276  1.00  0.00     0.153 A 
HETATM    4  C   UNL     1     -44.256  57.604 -57.216  1.00  0.00     0.028 A 
HETATM    5  C   UNL     1     -44.713  58.049 -56.002  1.00  0.00     0.116 A 
HETATM    6  N   UNL     1     -45.936  58.627 -56.188  1.00  0.00    -0.350 N 
HETATM    7  H   UNL     1     -46.500  59.034 -55.453  1.00  0.00     0.166 HD
HETATM    8  C   UNL     1     -46.277  58.567 -57.524  1.00  0.00     0.044 A 
HETATM    9  C   UNL     1     -45.231  57.921 -58.196  1.00  0.00     0.005 A 
HETATM   10  C   UNL     1     -47.423  59.027 -58.182  1.00  0.00     0.030 A 
HETATM   11  C   UNL     1     -47.504  58.823 -59.563  1.00  0.00     0.002 A 
HETATM   12  C   UNL     1     -46.480  58.182 -60.257  1.00  0.00     0.001 A 
HETATM   13  C   UNL     1     -45.338  57.727 -59.588  1.00  0.00     0.014 A 
HETATM   14  C   UNL     1     -43.984  57.889 -54.779  1.00  0.00     0.291 A 
HETATM   15  O   UNL     1     -44.427  58.244 -53.692  1.00  0.00    -0.264 OA
ENDROOT
BRANCH   1  16
HETATM   16  C   UNL     1     -41.927  56.962 -53.795  1.00  0.00     0.258 C 
BRANCH  16  17
HETATM   17  C   UNL     1     -41.869  55.473 -53.396  1.00  0.00     0.244 C 
HETATM   18  N   UNL     1     -40.755  54.707 -53.789  1.00  0.00    -0.321 N 
HETATM   19  C   UNL     1     -39.900  55.165 -54.885  1.00  0.00     0.159 C 
HETATM   20  O   UNL     1     -42.869  55.012 -52.836  1.00  0.00    -0.271 OA
BRANCH  18  21
HETATM   21  C   UNL     1     -40.435  53.417 -53.209  1.00  0.00     0.037 A 
HETATM   22  C   UNL     1     -40.199  52.264 -53.970  1.00  0.00     0.037 A 
HETATM   23  C   UNL     1     -39.874  51.017 -53.388  1.00  0.00    -0.054 A 
HETATM   24  C   UNL     1     -39.765  50.912 -51.993  1.00  0.00    -0.056 A 
HETATM   25  C   UNL     1     -39.591  49.849 -54.294  1.00  0.00     0.049 C 
HETATM   26  C   UNL     1     -39.411  49.617 -51.318  1.00  0.00     0.049 C 
HETATM   27  C   UNL     1     -40.034  52.041 -51.216  1.00  0.00     0.009 A 
HETATM   28  C   UNL     1     -40.361  53.266 -51.813  1.00  0.00     0.030 A 
ENDBRANCH  18  21
ENDBRANCH  16  17
ENDBRANCH   1  16
TORSDOF 3
ENDMDL
MODEL 10
REMARK VINA RESULT:      -8.2      4.032      6.127
REMARK  3 active torsions:
REMARK  status: ('A' for Active; 'I' for Inactive)
REMARK    1  A    between atoms: C_6  and  N_7 
REMARK       I    between atoms: N_7  and  C_8 
REMARK    2  A    between atoms: C_8  and  C_9 
REMARK    3  A    between atoms: C_9  and  N_10 
ROOT
HETATM    1  N   UNL     1     -41.328  55.691 -53.809  1.00  0.00    -0.224 N 
HETATM    2  N   UNL     1     -41.237  55.615 -52.402  1.00  0.00    -0.180 NA
HETATM    3  C   UNL     1     -40.883  54.493 -51.840  1.00  0.00     0.153 A 
HETATM    4  C   UNL     1     -40.596  53.332 -52.630  1.00  0.00     0.028 A 
HETATM    5  C   UNL     1     -40.731  53.409 -53.992  1.00  0.00     0.116 A 
HETATM    6  N   UNL     1     -40.421  52.191 -54.526  1.00  0.00    -0.350 N 
HETATM    7  H   UNL     1     -40.443  51.970 -55.513  1.00  0.00     0.166 HD
HETATM    8  C   UNL     1     -40.076  51.318 -53.513  1.00  0.00     0.044 A 
HETATM    9  C   UNL     1     -40.182  52.016 -52.303  1.00  0.00     0.005 A 
HETATM   10  C   UNL     1     -39.686  49.976 -53.576  1.00  0.00     0.030 A 
HETATM   11  C   UNL     1     -39.397  49.327 -52.372  1.00  0.00     0.002 A 
HETATM   12  C   UNL     1     -39.495  49.995 -51.153  1.00  0.00     0.001 A 
HETATM   13  C   UNL     1     -39.886  51.339 -51.103  1.00  0.00     0.014 A 
HETATM   14  C   UNL     1     -41.146  54.597 -54.677  1.00  0.00     0.291 A 
HETATM   15  O   UNL     1     -41.314  54.638 -55.891  1.00  0.00    -0.264 OA
ENDROOT
BRANCH   1  16
HETATM   16  C   UNL     1     -41.867  56.929 -54.358  1.00  0.00     0.258 C 
BRANCH  16  17
HETATM   17  C   UNL     1     -42.497  57.917 -53.354  1.00  0.00     0.244 C 
HETATM   18  N   UNL     1     -41.719  58.988 -52.876  1.00  0.00    -0.321 N 
HETATM   19  C   UNL     1     -40.260  58.938 -52.977  1.00  0.00     0.159 C 
HETATM   20  O   UNL     1     -43.630  57.641 -52.945  1.00  0.00    -0.271 OA
BRANCH  18  21
HETATM   21  C   UNL     1     -42.286  60.142 -52.204  1.00  0.00     0.037 A 
HETATM   22  C   UNL     1     -42.853  61.230 -52.881  1.00  0.00     0.037 A 
HETATM   23  C   UNL     1     -43.414  62.340 -52.210  1.00  0.00    -0.054 A 
HETATM   24  C   UNL     1     -43.425  62.367 -50.807  1.00  0.00    -0.056 A 
HETATM   25  C   UNL     1     -44.042  63.437 -53.026  1.00  0.00     0.049 C 
HETATM   26  C   UNL     1     -44.018  63.514 -50.038  1.00  0.00     0.049 C 
HETATM   27  C   UNL     1     -42.831  61.309 -50.114  1.00  0.00     0.009 A 
HETATM   28  C   UNL     1     -42.274  60.221 -50.800  1.00  0.00     0.030 A 
ENDBRANCH  18  21
ENDBRANCH  16  17
ENDBRANCH   1  16
TORSDOF 3
ENDMDL
