MODEL 1
REMARK VINA RESULT:      -8.1      0.000      0.000
REMARK  7 active torsions:
REMARK  status: ('A' for Active; 'I' for Inactive)
REMARK    1  A    between atoms: C_2  and  N_3 
REMARK       I    between atoms: N_3  and  C_4 
REMARK    2  A    between atoms: C_4  and  C_5 
REMARK    3  A    between atoms: C_9  and  N_10 
REMARK       I    between atoms: N_10  and  C_11 
REMARK    4  A    between atoms: C_11  and  C_12 
REMARK    5  A    between atoms: C_12  and  S_13 
REMARK    6  A    between atoms: S_13  and  C_14 
REMARK    7  A    between atoms: C_14  and  C_15 
ROOT
HETATM    1  N   UNL     1     -42.270  56.996 -53.531  1.00  0.00    -0.326 N 
HETATM    2  C   UNL     1     -43.197  57.263 -52.532  1.00  0.00     0.231 C 
HETATM    3  O   UNL     1     -44.418  57.167 -52.629  1.00  0.00    -0.272 OA
HETATM    4  H   UNL     1     -41.293  56.971 -53.244  1.00  0.00     0.169 HD
ENDROOT
BRANCH   2   5
HETATM    5  C   UNL     1     -42.566  57.701 -51.218  1.00  0.00     0.177 C 
BRANCH   5   6
HETATM    6  S   UNL     1     -40.977  56.848 -50.921  1.00  0.00    -0.147 SA
BRANCH   6   7
HETATM    7  C   UNL     1     -41.596  55.249 -50.270  1.00  0.00     0.113 C 
HETATM    8  C   UNL     1     -41.080  55.043 -48.847  1.00  0.00     0.029 C 
BRANCH   7   9
HETATM    9  C   UNL     1     -41.191  54.138 -51.190  1.00  0.00     0.118 A 
HETATM   10  N   UNL     1     -41.408  54.084 -52.492  1.00  0.00    -0.232 NA
HETATM   11  C   UNL     1     -40.832  52.907 -52.913  1.00  0.00     0.085 A 
HETATM   12  C   UNL     1     -40.203  52.258 -51.858  1.00  0.00     0.062 A 
HETATM   13  C   UNL     1     -40.792  52.330 -54.191  1.00  0.00     0.034 A 
HETATM   14  N   UNL     1     -40.438  53.062 -50.776  1.00  0.00    -0.342 N 
HETATM   15  C   UNL     1     -39.511  51.053 -52.000  1.00  0.00     0.032 A 
HETATM   16  H   UNL     1     -40.096  52.909 -49.838  1.00  0.00     0.167 HD
HETATM   17  C   UNL     1     -39.480  50.493 -53.282  1.00  0.00     0.002 A 
HETATM   18  C   UNL     1     -40.111  51.117 -54.360  1.00  0.00     0.002 A 
ENDBRANCH   7   9
ENDBRANCH   6   7
ENDBRANCH   5   6
ENDBRANCH   2   5
BRANCH   1  19
HETATM   19  C   UNL     1     -42.540  56.653 -54.883  1.00  0.00     0.040 A 
HETATM   20  C   UNL     1     -42.520  57.665 -55.869  1.00  0.00    -0.034 A 
HETATM   21  C   UNL     1     -42.760  57.331 -57.219  1.00  0.00     0.026 A 
HETATM   22  C   UNL     1     -42.227  59.106 -55.546  1.00  0.00     0.050 C 
HETATM   23  C   UNL     1     -43.029  56.012 -57.597  1.00  0.00     0.032 A 
HETATM   24  C   UNL     1     -43.091  55.025 -56.617  1.00  0.00     0.019 A 
HETATM   25  C   UNL     1     -42.846  55.344 -55.276  1.00  0.00     0.031 A 
BRANCH  23  26
HETATM   26  C   UNL     1     -43.274  55.625 -59.014  1.00  0.00     0.251 C 
HETATM   27  N   UNL     1     -44.458  54.961 -59.271  1.00  0.00    -0.357 N 
HETATM   28  H   UNL     1     -45.165  54.924 -58.550  1.00  0.00     0.162 HD
HETATM   29  O   UNL     1     -42.468  55.929 -59.886  1.00  0.00    -0.268 OA
BRANCH  27  30
HETATM   30  C   UNL     1     -44.861  54.636 -60.622  1.00  0.00     0.118 C 
HETATM   31  C   UNL     1     -45.799  55.686 -61.190  1.00  0.00     0.026 C 
ENDBRANCH  27  30
ENDBRANCH  23  26
ENDBRANCH   1  19
TORSDOF 7
ENDMDL
MODEL 2
REMARK VINA RESULT:      -7.9      2.727      7.216
REMARK  7 active torsions:
REMARK  status: ('A' for Active; 'I' for Inactive)
REMARK    1  A    between atoms: C_2  and  N_3 
REMARK       I    between atoms: N_3  and  C_4 
REMARK    2  A    between atoms: C_4  and  C_5 
REMARK    3  A    between atoms: C_9  and  N_10 
REMARK       I    between atoms: N_10  and  C_11 
REMARK    4  A    between atoms: C_11  and  C_12 
REMARK    5  A    between atoms: C_12  and  S_13 
REMARK    6  A    between atoms: S_13  and  C_14 
REMARK    7  A    between atoms: C_14  and  C_15 
ROOT
HETATM    1  N   UNL     1     -41.852  57.811 -53.309  1.00  0.00    -0.326 N 
HETATM    2  C   UNL     1     -41.063  58.949 -53.214  1.00  0.00     0.231 C 
HETATM    3  O   UNL     1     -39.835  58.986 -53.231  1.00  0.00    -0.272 OA
HETATM    4  H   UNL     1     -42.851  57.965 -53.438  1.00  0.00     0.169 HD
ENDROOT
BRANCH   2   5
HETATM    5  C   UNL     1     -41.865  60.237 -53.087  1.00  0.00     0.177 C 
BRANCH   5   6
HETATM    6  S   UNL     1     -43.260  60.275 -54.268  1.00  0.00    -0.147 SA
BRANCH   6   7
HETATM    7  C   UNL     1     -42.347  60.611 -55.822  1.00  0.00     0.113 C 
HETATM    8  C   UNL     1     -42.921  61.857 -56.493  1.00  0.00     0.029 C 
BRANCH   7   9
HETATM    9  C   UNL     1     -42.405  59.406 -56.712  1.00  0.00     0.118 A 
HETATM   10  N   UNL     1     -42.958  58.243 -56.417  1.00  0.00    -0.232 NA
HETATM   11  C   UNL     1     -42.802  57.465 -57.542  1.00  0.00     0.085 A 
HETATM   12  C   UNL     1     -42.189  58.185 -58.561  1.00  0.00     0.062 A 
HETATM   13  C   UNL     1     -43.170  56.132 -57.773  1.00  0.00     0.034 A 
HETATM   14  N   UNL     1     -41.955  59.417 -58.013  1.00  0.00    -0.342 N 
HETATM   15  C   UNL     1     -41.929  57.655 -59.826  1.00  0.00     0.032 A 
HETATM   16  H   UNL     1     -41.545  60.209 -58.488  1.00  0.00     0.167 HD
HETATM   17  C   UNL     1     -42.306  56.324 -60.040  1.00  0.00     0.002 A 
HETATM   18  C   UNL     1     -42.914  55.572 -59.032  1.00  0.00     0.002 A 
ENDBRANCH   7   9
ENDBRANCH   6   7
ENDBRANCH   5   6
ENDBRANCH   2   5
BRANCH   1  19
HETATM   19  C   UNL     1     -41.411  56.462 -53.351  1.00  0.00     0.040 A 
HETATM   20  C   UNL     1     -41.398  55.702 -52.160  1.00  0.00    -0.034 A 
HETATM   21  C   UNL     1     -40.986  54.353 -52.194  1.00  0.00     0.026 A 
HETATM   22  C   UNL     1     -41.831  56.267 -50.833  1.00  0.00     0.050 C 
HETATM   23  C   UNL     1     -40.580  53.755 -53.391  1.00  0.00     0.032 A 
HETATM   24  C   UNL     1     -40.553  54.519 -54.555  1.00  0.00     0.019 A 
HETATM   25  C   UNL     1     -40.967  55.855 -54.533  1.00  0.00     0.031 A 
BRANCH  23  26
HETATM   26  C   UNL     1     -40.152  52.330 -53.464  1.00  0.00     0.251 C 
HETATM   27  N   UNL     1     -39.747  51.752 -52.277  1.00  0.00    -0.357 N 
HETATM   28  H   UNL     1     -39.920  52.240 -51.410  1.00  0.00     0.162 HD
HETATM   29  O   UNL     1     -40.207  51.723 -54.527  1.00  0.00    -0.268 OA
BRANCH  27  30
HETATM   30  C   UNL     1     -39.421  50.344 -52.198  1.00  0.00     0.118 C 
HETATM   31  C   UNL     1     -39.729  49.777 -50.824  1.00  0.00     0.026 C 
ENDBRANCH  27  30
ENDBRANCH  23  26
ENDBRANCH   1  19
TORSDOF 7
ENDMDL
MODEL 3
REMARK VINA RESULT:      -7.6      2.739      7.344
REMARK  7 active torsions:
REMARK  status: ('A' for Active; 'I' for Inactive)
REMARK    1  A    between atoms: C_2  and  N_3 
REMARK       I    between atoms: N_3  and  C_4 
REMARK    2  A    between atoms: C_4  and  C_5 
REMARK    3  A    between atoms: C_9  and  N_10 
REMARK       I    between atoms: N_10  and  C_11 
REMARK    4  A    between atoms: C_11  and  C_12 
REMARK    5  A    between atoms: C_12  and  S_13 
REMARK    6  A    between atoms: S_13  and  C_14 
REMARK    7  A    between atoms: C_14  and  C_15 
ROOT
HETATM    1  N   UNL     1     -42.050  57.460 -54.035  1.00  0.00    -0.326 N 
HETATM    2  C   UNL     1     -41.378  58.653 -53.798  1.00  0.00     0.231 C 
HETATM    3  O   UNL     1     -40.195  58.771 -53.489  1.00  0.00    -0.272 OA
HETATM    4  H   UNL     1     -42.984  57.542 -54.435  1.00  0.00     0.169 HD
ENDROOT
BRANCH   2   5
HETATM    5  C   UNL     1     -42.252  59.888 -53.967  1.00  0.00     0.177 C 
BRANCH   5   6
HETATM    6  S   UNL     1     -42.342  60.411 -55.716  1.00  0.00    -0.147 SA
BRANCH   6   7
HETATM    7  C   UNL     1     -44.090  59.992 -56.079  1.00  0.00     0.113 C 
HETATM    8  C   UNL     1     -44.840  59.753 -54.770  1.00  0.00     0.029 C 
BRANCH   7   9
HETATM    9  C   UNL     1     -44.146  58.805 -56.993  1.00  0.00     0.118 A 
HETATM   10  N   UNL     1     -43.357  57.746 -56.946  1.00  0.00    -0.232 NA
HETATM   11  C   UNL     1     -43.802  56.911 -57.946  1.00  0.00     0.085 A 
HETATM   12  C   UNL     1     -44.917  57.446 -58.579  1.00  0.00     0.062 A 
HETATM   13  C   UNL     1     -43.310  55.667 -58.366  1.00  0.00     0.034 A 
HETATM   14  N   UNL     1     -45.122  58.645 -57.950  1.00  0.00    -0.342 N 
HETATM   15  C   UNL     1     -45.596  56.802 -59.614  1.00  0.00     0.032 A 
HETATM   16  H   UNL     1     -45.874  59.292 -58.138  1.00  0.00     0.167 HD
HETATM   17  C   UNL     1     -45.093  55.560 -60.019  1.00  0.00     0.002 A 
HETATM   18  C   UNL     1     -43.968  55.001 -59.409  1.00  0.00     0.002 A 
ENDBRANCH   7   9
ENDBRANCH   6   7
ENDBRANCH   5   6
ENDBRANCH   2   5
BRANCH   1  19
HETATM   19  C   UNL     1     -41.543  56.144 -53.878  1.00  0.00     0.040 A 
HETATM   20  C   UNL     1     -41.629  55.516 -52.615  1.00  0.00    -0.034 A 
HETATM   21  C   UNL     1     -41.152  54.197 -52.454  1.00  0.00     0.026 A 
HETATM   22  C   UNL     1     -42.237  56.190 -51.414  1.00  0.00     0.050 C 
HETATM   23  C   UNL     1     -40.584  53.503 -53.526  1.00  0.00     0.032 A 
HETATM   24  C   UNL     1     -40.461  54.139 -54.758  1.00  0.00     0.019 A 
HETATM   25  C   UNL     1     -40.939  55.444 -54.931  1.00  0.00     0.031 A 
BRANCH  23  26
HETATM   26  C   UNL     1     -40.083  52.106 -53.394  1.00  0.00     0.251 C 
HETATM   27  N   UNL     1     -39.662  51.725 -52.135  1.00  0.00    -0.357 N 
HETATM   28  H   UNL     1     -39.868  52.322 -51.347  1.00  0.00     0.162 HD
HETATM   29  O   UNL     1     -40.094  51.351 -54.360  1.00  0.00    -0.268 OA
BRANCH  27  30
HETATM   30  C   UNL     1     -39.264  50.361 -51.855  1.00  0.00     0.118 C 
HETATM   31  C   UNL     1     -39.893  49.851 -50.571  1.00  0.00     0.026 C 
ENDBRANCH  27  30
ENDBRANCH  23  26
ENDBRANCH   1  19
TORSDOF 7
ENDMDL
MODEL 4
REMARK VINA RESULT:      -7.6      1.563      2.208
REMARK  7 active torsions:
REMARK  status: ('A' for Active; 'I' for Inactive)
REMARK    1  A    between atoms: C_2  and  N_3 
REMARK       I    between atoms: N_3  and  C_4 
REMARK    2  A    between atoms: C_4  and  C_5 
REMARK    3  A    between atoms: C_9  and  N_10 
REMARK       I    between atoms: N_10  and  C_11 
REMARK    4  A    between atoms: C_11  and  C_12 
REMARK    5  A    between atoms: C_12  and  S_13 
REMARK    6  A    between atoms: S_13  and  C_14 
REMARK    7  A    between atoms: C_14  and  C_15 
ROOT
HETATM    1  N   UNL     1     -42.767  56.207 -53.376  1.00  0.00    -0.326 N 
HETATM    2  C   UNL     1     -43.614  56.751 -52.419  1.00  0.00     0.231 C 
HETATM    3  O   UNL     1     -44.537  57.534 -52.626  1.00  0.00    -0.272 OA
HETATM    4  H   UNL     1     -42.156  55.454 -53.061  1.00  0.00     0.169 HD
ENDROOT
BRANCH   2   5
HETATM    5  C   UNL     1     -43.316  56.278 -51.003  1.00  0.00     0.177 C 
BRANCH   5   6
HETATM    6  S   UNL     1     -41.517  56.188 -50.692  1.00  0.00    -0.147 SA
BRANCH   6   7
HETATM    7  C   UNL     1     -41.415  54.527 -49.921  1.00  0.00     0.113 C 
HETATM    8  C   UNL     1     -40.447  54.571 -48.740  1.00  0.00     0.029 C 
BRANCH   7   9
HETATM    9  C   UNL     1     -41.013  53.516 -50.951  1.00  0.00     0.118 A 
HETATM   10  N   UNL     1     -41.113  53.653 -52.262  1.00  0.00    -0.232 NA
HETATM   11  C   UNL     1     -40.592  52.496 -52.794  1.00  0.00     0.085 A 
HETATM   12  C   UNL     1     -40.115  51.660 -51.793  1.00  0.00     0.062 A 
HETATM   13  C   UNL     1     -40.480  52.092 -54.133  1.00  0.00     0.034 A 
HETATM   14  N   UNL     1     -40.385  52.333 -50.631  1.00  0.00    -0.342 N 
HETATM   15  C   UNL     1     -39.507  50.429 -52.044  1.00  0.00     0.032 A 
HETATM   16  H   UNL     1     -40.144  52.028 -49.700  1.00  0.00     0.167 HD
HETATM   17  C   UNL     1     -39.401  50.042 -53.385  1.00  0.00     0.002 A 
HETATM   18  C   UNL     1     -39.881  50.856 -54.414  1.00  0.00     0.002 A 
ENDBRANCH   7   9
ENDBRANCH   6   7
ENDBRANCH   5   6
ENDBRANCH   2   5
BRANCH   1  19
HETATM   19  C   UNL     1     -42.731  56.511 -54.762  1.00  0.00     0.040 A 
HETATM   20  C   UNL     1     -42.963  55.482 -55.701  1.00  0.00    -0.034 A 
HETATM   21  C   UNL     1     -42.956  55.778 -57.082  1.00  0.00     0.026 A 
HETATM   22  C   UNL     1     -43.245  54.060 -55.294  1.00  0.00     0.050 C 
HETATM   23  C   UNL     1     -42.711  57.078 -57.536  1.00  0.00     0.032 A 
HETATM   24  C   UNL     1     -42.440  58.080 -56.610  1.00  0.00     0.019 A 
HETATM   25  C   UNL     1     -42.453  57.799 -55.239  1.00  0.00     0.031 A 
BRANCH  23  26
HETATM   26  C   UNL     1     -42.709  57.427 -58.984  1.00  0.00     0.251 C 
HETATM   27  N   UNL     1     -43.235  58.660 -59.317  1.00  0.00    -0.357 N 
HETATM   28  H   UNL     1     -43.428  59.325 -58.581  1.00  0.00     0.162 HD
HETATM   29  O   UNL     1     -42.223  56.656 -59.805  1.00  0.00    -0.268 OA
BRANCH  27  30
HETATM   30  C   UNL     1     -43.183  59.159 -60.674  1.00  0.00     0.118 C 
HETATM   31  C   UNL     1     -41.941  60.000 -60.910  1.00  0.00     0.026 C 
ENDBRANCH  27  30
ENDBRANCH  23  26
ENDBRANCH   1  19
TORSDOF 7
ENDMDL
MODEL 5
REMARK VINA RESULT:      -7.1     15.005     16.501
REMARK  7 active torsions:
REMARK  status: ('A' for Active; 'I' for Inactive)
REMARK    1  A    between atoms: C_2  and  N_3 
REMARK       I    between atoms: N_3  and  C_4 
REMARK    2  A    between atoms: C_4  and  C_5 
REMARK    3  A    between atoms: C_9  and  N_10 
REMARK       I    between atoms: N_10  and  C_11 
REMARK    4  A    between atoms: C_11  and  C_12 
REMARK    5  A    between atoms: C_12  and  S_13 
REMARK    6  A    between atoms: S_13  and  C_14 
REMARK    7  A    between atoms: C_14  and  C_15 
ROOT
HETATM    1  N   UNL     1     -37.036  41.271 -54.116  1.00  0.00    -0.326 N 
HETATM    2  C   UNL     1     -36.731  40.226 -53.254  1.00  0.00     0.231 C 
HETATM    3  O   UNL     1     -36.414  39.085 -53.579  1.00  0.00    -0.272 OA
HETATM    4  H   UNL     1     -37.125  42.194 -53.692  1.00  0.00     0.169 HD
ENDROOT
BRANCH   2   5
HETATM    5  C   UNL     1     -36.809  40.609 -51.782  1.00  0.00     0.177 C 
BRANCH   5   6
HETATM    6  S   UNL     1     -35.649  39.621 -50.772  1.00  0.00    -0.147 SA
BRANCH   6   7
HETATM    7  C   UNL     1     -34.131  40.634 -50.956  1.00  0.00     0.113 C 
HETATM    8  C   UNL     1     -34.514  42.104 -51.113  1.00  0.00     0.029 C 
BRANCH   7   9
HETATM    9  C   UNL     1     -33.325  40.128 -52.114  1.00  0.00     0.118 A 
HETATM   10  N   UNL     1     -32.614  39.014 -52.144  1.00  0.00    -0.232 NA
HETATM   11  C   UNL     1     -32.084  38.949 -53.413  1.00  0.00     0.085 A 
HETATM   12  C   UNL     1     -32.523  40.015 -54.188  1.00  0.00     0.062 A 
HETATM   13  C   UNL     1     -31.225  37.999 -53.983  1.00  0.00     0.034 A 
HETATM   14  N   UNL     1     -33.317  40.745 -53.345  1.00  0.00    -0.342 N 
HETATM   15  C   UNL     1     -32.167  40.190 -55.527  1.00  0.00     0.032 A 
HETATM   16  H   UNL     1     -33.830  41.580 -53.588  1.00  0.00     0.167 HD
HETATM   17  C   UNL     1     -31.311  39.230 -56.080  1.00  0.00     0.002 A 
HETATM   18  C   UNL     1     -30.844  38.154 -55.322  1.00  0.00     0.002 A 
ENDBRANCH   7   9
ENDBRANCH   6   7
ENDBRANCH   5   6
ENDBRANCH   2   5
BRANCH   1  19
HETATM   19  C   UNL     1     -37.137  41.215 -55.531  1.00  0.00     0.040 A 
HETATM   20  C   UNL     1     -36.164  41.869 -56.319  1.00  0.00    -0.034 A 
HETATM   21  C   UNL     1     -36.238  41.797 -57.727  1.00  0.00     0.026 A 
HETATM   22  C   UNL     1     -35.016  42.637 -55.719  1.00  0.00     0.050 C 
HETATM   23  C   UNL     1     -37.270  41.095 -58.357  1.00  0.00     0.032 A 
HETATM   24  C   UNL     1     -38.251  40.487 -57.578  1.00  0.00     0.019 A 
HETATM   25  C   UNL     1     -38.181  40.545 -56.181  1.00  0.00     0.031 A 
BRANCH  23  26
HETATM   26  C   UNL     1     -37.371  40.988 -59.840  1.00  0.00     0.251 C 
HETATM   27  N   UNL     1     -37.366  39.710 -60.363  1.00  0.00    -0.357 N 
HETATM   28  H   UNL     1     -37.472  38.924 -59.737  1.00  0.00     0.162 HD
HETATM   29  O   UNL     1     -37.490  41.998 -60.524  1.00  0.00    -0.268 OA
BRANCH  27  30
HETATM   30  C   UNL     1     -37.575  39.474 -61.775  1.00  0.00     0.118 C 
HETATM   31  C   UNL     1     -38.507  38.299 -62.011  1.00  0.00     0.026 C 
ENDBRANCH  27  30
ENDBRANCH  23  26
ENDBRANCH   1  19
TORSDOF 7
ENDMDL
MODEL 6
REMARK VINA RESULT:      -7.0      4.613      8.840
REMARK  7 active torsions:
REMARK  status: ('A' for Active; 'I' for Inactive)
REMARK    1  A    between atoms: C_2  and  N_3 
REMARK       I    between atoms: N_3  and  C_4 
REMARK    2  A    between atoms: C_4  and  C_5 
REMARK    3  A    between atoms: C_9  and  N_10 
REMARK       I    between atoms: N_10  and  C_11 
REMARK    4  A    between atoms: C_11  and  C_12 
REMARK    5  A    between atoms: C_12  and  S_13 
REMARK    6  A    between atoms: S_13  and  C_14 
REMARK    7  A    between atoms: C_14  and  C_15 
ROOT
HETATM    1  N   UNL     1     -41.997  57.860 -52.134  1.00  0.00    -0.326 N 
HETATM    2  C   UNL     1     -41.261  59.031 -52.260  1.00  0.00     0.231 C 
HETATM    3  O   UNL     1     -40.117  59.127 -52.695  1.00  0.00    -0.272 OA
HETATM    4  H   UNL     1     -42.984  57.970 -51.904  1.00  0.00     0.169 HD
ENDROOT
BRANCH   2   5
HETATM    5  C   UNL     1     -42.013  60.274 -51.802  1.00  0.00     0.177 C 
BRANCH   5   6
HETATM    6  S   UNL     1     -43.789  59.927 -51.549  1.00  0.00    -0.147 SA
BRANCH   6   7
HETATM    7  C   UNL     1     -44.409  61.633 -51.290  1.00  0.00     0.113 C 
HETATM    8  C   UNL     1     -43.466  62.626 -51.965  1.00  0.00     0.029 C 
BRANCH   7   9
HETATM    9  C   UNL     1     -44.561  61.898 -49.823  1.00  0.00     0.118 A 
HETATM   10  N   UNL     1     -44.848  63.061 -49.265  1.00  0.00    -0.232 NA
HETATM   11  C   UNL     1     -44.921  62.813 -47.913  1.00  0.00     0.085 A 
HETATM   12  C   UNL     1     -44.729  61.463 -47.646  1.00  0.00     0.062 A 
HETATM   13  C   UNL     1     -45.162  63.693 -46.848  1.00  0.00     0.034 A 
HETATM   14  N   UNL     1     -44.511  60.901 -48.875  1.00  0.00    -0.342 N 
HETATM   15  C   UNL     1     -44.777  60.920 -46.360  1.00  0.00     0.032 A 
HETATM   16  H   UNL     1     -44.363  59.920 -49.060  1.00  0.00     0.167 HD
HETATM   17  C   UNL     1     -45.021  61.812 -45.310  1.00  0.00     0.002 A 
HETATM   18  C   UNL     1     -45.207  63.176 -45.546  1.00  0.00     0.002 A 
ENDBRANCH   7   9
ENDBRANCH   6   7
ENDBRANCH   5   6
ENDBRANCH   2   5
BRANCH   1  19
HETATM   19  C   UNL     1     -41.553  56.536 -52.391  1.00  0.00     0.040 A 
HETATM   20  C   UNL     1     -41.268  55.680 -51.304  1.00  0.00    -0.034 A 
HETATM   21  C   UNL     1     -40.851  54.353 -51.547  1.00  0.00     0.026 A 
HETATM   22  C   UNL     1     -41.410  56.115 -49.870  1.00  0.00     0.050 C 
HETATM   23  C   UNL     1     -40.706  53.874 -52.852  1.00  0.00     0.032 A 
HETATM   24  C   UNL     1     -40.946  54.733 -53.921  1.00  0.00     0.019 A 
HETATM   25  C   UNL     1     -41.368  56.047 -53.691  1.00  0.00     0.031 A 
BRANCH  23  26
HETATM   26  C   UNL     1     -40.280  52.476 -53.144  1.00  0.00     0.251 C 
HETATM   27  N   UNL     1     -39.757  51.763 -52.083  1.00  0.00    -0.357 N 
HETATM   28  H   UNL     1     -39.845  52.137 -51.149  1.00  0.00     0.162 HD
HETATM   29  O   UNL     1     -40.437  52.004 -54.264  1.00  0.00    -0.268 OA
BRANCH  27  30
HETATM   30  C   UNL     1     -39.418  50.362 -52.213  1.00  0.00     0.118 C 
HETATM   31  C   UNL     1     -39.658  49.609 -50.917  1.00  0.00     0.026 C 
ENDBRANCH  27  30
ENDBRANCH  23  26
ENDBRANCH   1  19
TORSDOF 7
ENDMDL
MODEL 7
REMARK VINA RESULT:      -6.9     14.792     18.957
REMARK  7 active torsions:
REMARK  status: ('A' for Active; 'I' for Inactive)
REMARK    1  A    between atoms: C_2  and  N_3 
REMARK       I    between atoms: N_3  and  C_4 
REMARK    2  A    between atoms: C_4  and  C_5 
REMARK    3  A    between atoms: C_9  and  N_10 
REMARK       I    between atoms: N_10  and  C_11 
REMARK    4  A    between atoms: C_11  and  C_12 
REMARK    5  A    between atoms: C_12  and  S_13 
REMARK    6  A    between atoms: S_13  and  C_14 
REMARK    7  A    between atoms: C_14  and  C_15 
ROOT
HETATM    1  N   UNL     1     -35.163  39.012 -50.721  1.00  0.00    -0.326 N 
HETATM    2  C   UNL     1     -36.402  39.617 -50.557  1.00  0.00     0.231 C 
HETATM    3  O   UNL     1     -36.717  40.395 -49.660  1.00  0.00    -0.272 OA
HETATM    4  H   UNL     1     -35.015  38.519 -51.601  1.00  0.00     0.169 HD
ENDROOT
BRANCH   2   5
HETATM    5  C   UNL     1     -37.411  39.241 -51.633  1.00  0.00     0.177 C 
BRANCH   5   6
HETATM    6  S   UNL     1     -37.948  40.704 -52.588  1.00  0.00    -0.147 SA
BRANCH   6   7
HETATM    7  C   UNL     1     -36.424  41.023 -53.557  1.00  0.00     0.113 C 
HETATM    8  C   UNL     1     -35.785  42.328 -53.089  1.00  0.00     0.029 C 
BRANCH   7   9
HETATM    9  C   UNL     1     -36.751  41.040 -55.020  1.00  0.00     0.118 A 
HETATM   10  N   UNL     1     -36.493  42.021 -55.867  1.00  0.00    -0.232 NA
HETATM   11  C   UNL     1     -36.935  41.576 -57.092  1.00  0.00     0.085 A 
HETATM   12  C   UNL     1     -37.423  40.278 -57.001  1.00  0.00     0.062 A 
HETATM   13  C   UNL     1     -36.942  42.223 -58.336  1.00  0.00     0.034 A 
HETATM   14  N   UNL     1     -37.288  39.956 -55.678  1.00  0.00    -0.342 N 
HETATM   15  C   UNL     1     -37.913  39.563 -58.096  1.00  0.00     0.032 A 
HETATM   16  H   UNL     1     -37.518  39.067 -55.258  1.00  0.00     0.167 HD
HETATM   17  C   UNL     1     -37.909  40.223 -59.330  1.00  0.00     0.002 A 
HETATM   18  C   UNL     1     -37.435  41.532 -59.451  1.00  0.00     0.002 A 
ENDBRANCH   7   9
ENDBRANCH   6   7
ENDBRANCH   5   6
ENDBRANCH   2   5
BRANCH   1  19
HETATM   19  C   UNL     1     -34.047  39.090 -49.847  1.00  0.00     0.040 A 
HETATM   20  C   UNL     1     -32.948  39.905 -50.200  1.00  0.00    -0.034 A 
HETATM   21  C   UNL     1     -31.845  40.011 -49.326  1.00  0.00     0.026 A 
HETATM   22  C   UNL     1     -32.906  40.700 -51.478  1.00  0.00     0.050 C 
HETATM   23  C   UNL     1     -31.817  39.311 -48.116  1.00  0.00     0.032 A 
HETATM   24  C   UNL     1     -32.881  38.475 -47.791  1.00  0.00     0.019 A 
HETATM   25  C   UNL     1     -33.984  38.370 -48.646  1.00  0.00     0.031 A 
BRANCH  23  26
HETATM   26  C   UNL     1     -30.674  39.411 -47.165  1.00  0.00     0.251 C 
HETATM   27  N   UNL     1     -30.972  39.227 -45.829  1.00  0.00    -0.357 N 
HETATM   28  H   UNL     1     -31.882  38.869 -45.575  1.00  0.00     0.162 HD
HETATM   29  O   UNL     1     -29.538  39.607 -47.583  1.00  0.00    -0.268 OA
BRANCH  27  30
HETATM   30  C   UNL     1     -29.932  39.185 -44.824  1.00  0.00     0.118 C 
HETATM   31  C   UNL     1     -29.730  40.543 -44.175  1.00  0.00     0.026 C 
ENDBRANCH  27  30
ENDBRANCH  23  26
ENDBRANCH   1  19
TORSDOF 7
ENDMDL
MODEL 8
REMARK VINA RESULT:      -6.9      3.815      6.961
REMARK  7 active torsions:
REMARK  status: ('A' for Active; 'I' for Inactive)
REMARK    1  A    between atoms: C_2  and  N_3 
REMARK       I    between atoms: N_3  and  C_4 
REMARK    2  A    between atoms: C_4  and  C_5 
REMARK    3  A    between atoms: C_9  and  N_10 
REMARK       I    between atoms: N_10  and  C_11 
REMARK    4  A    between atoms: C_11  and  C_12 
REMARK    5  A    between atoms: C_12  and  S_13 
REMARK    6  A    between atoms: S_13  and  C_14 
REMARK    7  A    between atoms: C_14  and  C_15 
ROOT
HETATM    1  N   UNL     1     -44.998  58.656 -52.249  1.00  0.00    -0.326 N 
HETATM    2  C   UNL     1     -45.853  59.165 -51.280  1.00  0.00     0.231 C 
HETATM    3  O   UNL     1     -46.026  58.711 -50.152  1.00  0.00    -0.272 OA
HETATM    4  H   UNL     1     -44.852  59.239 -53.072  1.00  0.00     0.169 HD
ENDROOT
BRANCH   2   5
HETATM    5  C   UNL     1     -46.606  60.410 -51.727  1.00  0.00     0.177 C 
BRANCH   5   6
HETATM    6  S   UNL     1     -46.138  61.870 -50.732  1.00  0.00    -0.147 SA
BRANCH   6   7
HETATM    7  C   UNL     1     -44.803  62.554 -51.788  1.00  0.00     0.113 C 
HETATM    8  C   UNL     1     -45.368  62.900 -53.164  1.00  0.00     0.029 C 
BRANCH   7   9
HETATM    9  C   UNL     1     -43.669  61.577 -51.865  1.00  0.00     0.118 A 
HETATM   10  N   UNL     1     -43.155  61.063 -52.969  1.00  0.00    -0.232 NA
HETATM   11  C   UNL     1     -42.122  60.255 -52.552  1.00  0.00     0.085 A 
HETATM   12  C   UNL     1     -41.969  60.318 -51.172  1.00  0.00     0.062 A 
HETATM   13  C   UNL     1     -41.257  59.441 -53.298  1.00  0.00     0.034 A 
HETATM   14  N   UNL     1     -42.957  61.171 -50.760  1.00  0.00    -0.342 N 
HETATM   15  C   UNL     1     -40.979  59.621 -50.476  1.00  0.00     0.032 A 
HETATM   16  H   UNL     1     -43.122  61.472 -49.810  1.00  0.00     0.167 HD
HETATM   17  C   UNL     1     -40.124  58.816 -51.237  1.00  0.00     0.002 A 
HETATM   18  C   UNL     1     -40.260  58.723 -52.624  1.00  0.00     0.002 A 
ENDBRANCH   7   9
ENDBRANCH   6   7
ENDBRANCH   5   6
ENDBRANCH   2   5
BRANCH   1  19
HETATM   19  C   UNL     1     -44.227  57.466 -52.173  1.00  0.00     0.040 A 
HETATM   20  C   UNL     1     -43.999  56.715 -53.348  1.00  0.00    -0.034 A 
HETATM   21  C   UNL     1     -43.212  55.545 -53.289  1.00  0.00     0.026 A 
HETATM   22  C   UNL     1     -44.548  57.121 -54.689  1.00  0.00     0.050 C 
HETATM   23  C   UNL     1     -42.660  55.110 -52.080  1.00  0.00     0.032 A 
HETATM   24  C   UNL     1     -42.921  55.829 -50.918  1.00  0.00     0.019 A 
HETATM   25  C   UNL     1     -43.693  56.995 -50.966  1.00  0.00     0.031 A 
BRANCH  23  26
HETATM   26  C   UNL     1     -41.814  53.887 -51.986  1.00  0.00     0.251 C 
HETATM   27  N   UNL     1     -41.112  53.540 -53.124  1.00  0.00    -0.357 N 
HETATM   28  H   UNL     1     -41.059  54.200 -53.888  1.00  0.00     0.162 HD
HETATM   29  O   UNL     1     -41.737  53.269 -50.930  1.00  0.00    -0.268 OA
BRANCH  27  30
HETATM   30  C   UNL     1     -40.169  52.442 -53.122  1.00  0.00     0.118 C 
HETATM   31  C   UNL     1     -40.430  51.482 -54.268  1.00  0.00     0.026 C 
ENDBRANCH  27  30
ENDBRANCH  23  26
ENDBRANCH   1  19
TORSDOF 7
ENDMDL
MODEL 9
REMARK VINA RESULT:      -6.9      2.419      7.274
REMARK  7 active torsions:
REMARK  status: ('A' for Active; 'I' for Inactive)
REMARK    1  A    between atoms: C_2  and  N_3 
REMARK       I    between atoms: N_3  and  C_4 
REMARK    2  A    between atoms: C_4  and  C_5 
REMARK    3  A    between atoms: C_9  and  N_10 
REMARK       I    between atoms: N_10  and  C_11 
REMARK    4  A    between atoms: C_11  and  C_12 
REMARK    5  A    between atoms: C_12  and  S_13 
REMARK    6  A    between atoms: S_13  and  C_14 
REMARK    7  A    between atoms: C_14  and  C_15 
ROOT
HETATM    1  N   UNL     1     -42.472  57.924 -53.220  1.00  0.00    -0.326 N 
HETATM    2  C   UNL     1     -43.792  58.236 -53.517  1.00  0.00     0.231 C 
HETATM    3  O   UNL     1     -44.729  57.444 -53.580  1.00  0.00    -0.272 OA
HETATM    4  H   UNL     1     -41.849  58.714 -53.052  1.00  0.00     0.169 HD
ENDROOT
BRANCH   2   5
HETATM    5  C   UNL     1     -44.026  59.719 -53.766  1.00  0.00     0.177 C 
BRANCH   5   6
HETATM    6  S   UNL     1     -44.449  60.046 -55.514  1.00  0.00    -0.147 SA
BRANCH   6   7
HETATM    7  C   UNL     1     -43.129  59.080 -56.342  1.00  0.00     0.113 C 
HETATM    8  C   UNL     1     -42.118  60.034 -56.974  1.00  0.00     0.029 C 
BRANCH   7   9
HETATM    9  C   UNL     1     -43.739  58.148 -57.346  1.00  0.00     0.118 A 
HETATM   10  N   UNL     1     -44.924  58.280 -57.915  1.00  0.00    -0.232 NA
HETATM   11  C   UNL     1     -45.036  57.218 -58.783  1.00  0.00     0.085 A 
HETATM   12  C   UNL     1     -43.876  56.453 -58.783  1.00  0.00     0.062 A 
HETATM   13  C   UNL     1     -46.099  56.846 -59.619  1.00  0.00     0.034 A 
HETATM   14  N   UNL     1     -43.064  57.068 -57.869  1.00  0.00    -0.342 N 
HETATM   15  C   UNL     1     -43.697  55.328 -59.590  1.00  0.00     0.032 A 
HETATM   16  H   UNL     1     -42.120  56.794 -57.635  1.00  0.00     0.167 HD
HETATM   17  C   UNL     1     -44.767  54.973 -60.420  1.00  0.00     0.002 A 
HETATM   18  C   UNL     1     -45.950  55.716 -60.434  1.00  0.00     0.002 A 
ENDBRANCH   7   9
ENDBRANCH   6   7
ENDBRANCH   5   6
ENDBRANCH   2   5
BRANCH   1  19
HETATM   19  C   UNL     1     -41.918  56.631 -53.023  1.00  0.00     0.040 A 
HETATM   20  C   UNL     1     -41.456  56.266 -51.739  1.00  0.00    -0.034 A 
HETATM   21  C   UNL     1     -40.929  54.974 -51.526  1.00  0.00     0.026 A 
HETATM   22  C   UNL     1     -41.520  57.197 -50.559  1.00  0.00     0.050 C 
HETATM   23  C   UNL     1     -40.846  54.050 -52.573  1.00  0.00     0.032 A 
HETATM   24  C   UNL     1     -41.263  54.428 -53.846  1.00  0.00     0.019 A 
HETATM   25  C   UNL     1     -41.795  55.703 -54.066  1.00  0.00     0.031 A 
BRANCH  23  26
HETATM   26  C   UNL     1     -40.307  52.674 -52.379  1.00  0.00     0.251 C 
HETATM   27  N   UNL     1     -40.022  51.962 -53.527  1.00  0.00    -0.357 N 
HETATM   28  H   UNL     1     -40.020  52.444 -54.415  1.00  0.00     0.162 HD
HETATM   29  O   UNL     1     -40.103  52.245 -51.249  1.00  0.00    -0.268 OA
BRANCH  27  30
HETATM   30  C   UNL     1     -39.387  50.663 -53.469  1.00  0.00     0.118 C 
HETATM   31  C   UNL     1     -39.829  49.776 -54.620  1.00  0.00     0.026 C 
ENDBRANCH  27  30
ENDBRANCH  23  26
ENDBRANCH   1  19
TORSDOF 7
ENDMDL
MODEL 10
REMARK VINA RESULT:      -6.9      3.061      5.101
REMARK  7 active torsions:
REMARK  status: ('A' for Active; 'I' for Inactive)
REMARK    1  A    between atoms: C_2  and  N_3 
REMARK       I    between atoms: N_3  and  C_4 
REMARK    2  A    between atoms: C_4  and  C_5 
REMARK    3  A    between atoms: C_9  and  N_10 
REMARK       I    between atoms: N_10  and  C_11 
REMARK    4  A    between atoms: C_11  and  C_12 
REMARK    5  A    between atoms: C_12  and  S_13 
REMARK    6  A    between atoms: S_13  and  C_14 
REMARK    7  A    between atoms: C_14  and  C_15 
ROOT
HETATM    1  N   UNL     1     -44.424  56.632 -58.113  1.00  0.00    -0.326 N 
HETATM    2  C   UNL     1     -43.229  57.329 -57.995  1.00  0.00     0.231 C 
HETATM    3  O   UNL     1     -42.859  58.262 -58.704  1.00  0.00    -0.272 OA
HETATM    4  H   UNL     1     -44.650  55.993 -57.351  1.00  0.00     0.169 HD
ENDROOT
BRANCH   2   5
HETATM    5  C   UNL     1     -42.350  56.843 -56.851  1.00  0.00     0.177 C 
BRANCH   5   6
HETATM    6  S   UNL     1     -42.704  57.749 -55.303  1.00  0.00    -0.147 SA
BRANCH   6   7
HETATM    7  C   UNL     1     -43.670  56.474 -54.407  1.00  0.00     0.113 C 
HETATM    8  C   UNL     1     -44.404  57.120 -53.234  1.00  0.00     0.029 C 
BRANCH   7   9
HETATM    9  C   UNL     1     -42.760  55.365 -53.970  1.00  0.00     0.118 A 
HETATM   10  N   UNL     1     -42.344  54.357 -54.715  1.00  0.00    -0.232 NA
HETATM   11  C   UNL     1     -41.507  53.623 -53.906  1.00  0.00     0.085 A 
HETATM   12  C   UNL     1     -41.367  54.224 -52.661  1.00  0.00     0.062 A 
HETATM   13  C   UNL     1     -40.815  52.431 -54.170  1.00  0.00     0.034 A 
HETATM   14  N   UNL     1     -42.165  55.333 -52.728  1.00  0.00    -0.342 N 
HETATM   15  C   UNL     1     -40.554  53.712 -51.648  1.00  0.00     0.032 A 
HETATM   16  H   UNL     1     -42.281  56.026 -52.002  1.00  0.00     0.167 HD
HETATM   17  C   UNL     1     -39.870  52.525 -51.929  1.00  0.00     0.002 A 
HETATM   18  C   UNL     1     -39.999  51.891 -53.168  1.00  0.00     0.002 A 
ENDBRANCH   7   9
ENDBRANCH   6   7
ENDBRANCH   5   6
ENDBRANCH   2   5
BRANCH   1  19
HETATM   19  C   UNL     1     -45.411  56.785 -59.122  1.00  0.00     0.040 A 
HETATM   20  C   UNL     1     -45.534  55.797 -60.124  1.00  0.00    -0.034 A 
HETATM   21  C   UNL     1     -46.529  55.925 -61.116  1.00  0.00     0.026 A 
HETATM   22  C   UNL     1     -44.652  54.578 -60.173  1.00  0.00     0.050 C 
HETATM   23  C   UNL     1     -47.393  57.025 -61.130  1.00  0.00     0.032 A 
HETATM   24  C   UNL     1     -47.241  58.018 -60.167  1.00  0.00     0.019 A 
HETATM   25  C   UNL     1     -46.263  57.896 -59.173  1.00  0.00     0.031 A 
BRANCH  23  26
HETATM   26  C   UNL     1     -48.462  57.185 -62.155  1.00  0.00     0.251 C 
HETATM   27  N   UNL     1     -49.067  58.424 -62.219  1.00  0.00    -0.357 N 
HETATM   28  H   UNL     1     -48.657  59.197 -61.714  1.00  0.00     0.162 HD
HETATM   29  O   UNL     1     -48.737  56.259 -62.910  1.00  0.00    -0.268 OA
BRANCH  27  30
HETATM   30  C   UNL     1     -50.036  58.737 -63.248  1.00  0.00     0.118 C 
HETATM   31  C   UNL     1     -51.407  59.011 -62.657  1.00  0.00     0.026 C 
ENDBRANCH  27  30
ENDBRANCH  23  26
ENDBRANCH   1  19
TORSDOF 7
ENDMDL
