MODEL 1
REMARK VINA RESULT:      -9.2      0.000      0.000
REMARK  7 active torsions:
REMARK  status: ('A' for Active; 'I' for Inactive)
REMARK    1  A    between atoms: C_4  and  N_5 
REMARK    2  A    between atoms: C_6  and  S_7 
REMARK    3  A    between atoms: S_7  and  C_8 
REMARK    4  A    between atoms: C_8  and  C_9 
REMARK       I    between atoms: C_9  and  N_10 
REMARK    5  A    between atoms: C_12  and  C_13 
REMARK    6  A    between atoms: C_13  and  N_14 
REMARK       I    between atoms: N_14  and  C_15 
REMARK       I    between atoms: C_15  and  N_16 
REMARK    7  A    between atoms: N_16  and  C_17 
ROOT
HETATM    1  C   UNL     1     -42.795  59.990 -56.028  1.00  0.00     0.229 C 
HETATM    2  N   UNL     1     -43.172  59.042 -55.056  1.00  0.00    -0.351 N 
HETATM    3  C   UNL     1     -42.050  58.369 -54.391  1.00  0.00     0.132 C 
HETATM    4  C   UNL     1     -42.474  57.641 -53.111  1.00  0.00     0.021 C 
HETATM    5  C   UNL     1     -43.559  56.620 -53.471  1.00  0.00     0.009 C 
HETATM    6  C   UNL     1     -44.757  57.365 -54.042  1.00  0.00     0.020 C 
HETATM    7  C   UNL     1     -44.384  58.246 -55.229  1.00  0.00     0.126 C 
HETATM    8  O   UNL     1     -41.597  60.174 -56.281  1.00  0.00    -0.273 OA
ENDROOT
BRANCH   1   9
HETATM    9  C   UNL     1     -43.821  60.979 -56.576  1.00  0.00     0.185 C 
BRANCH   9  10
HETATM   10  S   UNL     1     -44.633  60.661 -58.151  1.00  0.00    -0.082 SA
BRANCH  10  11
HETATM   11  C   UNL     1     -43.326  60.437 -59.258  1.00  0.00     0.173 A 
HETATM   12  N   UNL     1     -42.863  59.218 -59.772  1.00  0.00    -0.300 N 
HETATM   13  C   UNL     1     -41.880  59.601 -60.681  1.00  0.00     0.118 A 
HETATM   14  C   UNL     1     -41.797  60.968 -60.641  1.00  0.00     0.137 A 
HETATM   15  N   UNL     1     -42.693  61.474 -59.758  1.00  0.00    -0.235 NA
BRANCH  12  16
HETATM   16  C   UNL     1     -43.199  57.843 -59.473  1.00  0.00     0.042 A 
HETATM   17  C   UNL     1     -42.818  57.203 -58.286  1.00  0.00     0.037 A 
HETATM   18  C   UNL     1     -43.122  55.851 -58.040  1.00  0.00    -0.059 A 
HETATM   19  C   UNL     1     -42.732  55.212 -56.737  1.00  0.00     0.048 C 
HETATM   20  C   UNL     1     -43.838  55.125 -58.989  1.00  0.00     0.013 A 
HETATM   21  C   UNL     1     -44.228  55.726 -60.186  1.00  0.00    -0.059 A 
HETATM   22  C   UNL     1     -43.919  57.078 -60.415  1.00  0.00     0.037 A 
HETATM   23  C   UNL     1     -45.014  54.935 -61.193  1.00  0.00     0.048 C 
ENDBRANCH  12  16
ENDBRANCH  10  11
ENDBRANCH   9  10
ENDBRANCH   1   9
BRANCH   4  24
HETATM   24  C   UNL     1     -41.266  57.000 -52.417  1.00  0.00     0.130 C 
BRANCH  24  25
HETATM   25  N   UNL     1     -41.672  55.982 -51.459  1.00  0.00    -0.342 N 
HETATM   26  C   UNL     1     -41.497  54.632 -51.477  1.00  0.00     0.320 C 
HETATM   27  N   UNL     1     -40.688  54.144 -52.463  1.00  0.00    -0.309 N 
HETATM   28  O   UNL     1     -42.071  53.982 -50.610  1.00  0.00    -0.247 OA
HETATM   29  H   UNL     1     -40.249  54.826 -53.059  1.00  0.00     0.170 HD
HETATM   30  H   UNL     1     -42.320  56.240 -50.724  1.00  0.00     0.164 HD
BRANCH  27  31
HETATM   31  C   UNL     1     -40.334  52.796 -52.694  1.00  0.00     0.039 A 
HETATM   32  C   UNL     1     -39.798  51.951 -51.721  1.00  0.00     0.071 A 
HETATM   33  C   UNL     1     -39.474  50.636 -52.047  1.00  0.00     0.118 A 
HETATM   34  F   UNL     1     -38.960  49.831 -51.108  1.00  0.00    -0.206 F 
HETATM   35  C   UNL     1     -39.672  50.141 -53.329  1.00  0.00     0.042 A 
HETATM   36  C   UNL     1     -40.209  50.973 -54.306  1.00  0.00     0.005 A 
HETATM   37  C   UNL     1     -40.540  52.294 -53.988  1.00  0.00     0.030 A 
ENDBRANCH  27  31
ENDBRANCH  24  25
ENDBRANCH   4  24
TORSDOF 7
ENDMDL
MODEL 2
REMARK VINA RESULT:      -9.1      3.506      8.476
REMARK  7 active torsions:
REMARK  status: ('A' for Active; 'I' for Inactive)
REMARK    1  A    between atoms: C_4  and  N_5 
REMARK    2  A    between atoms: C_6  and  S_7 
REMARK    3  A    between atoms: S_7  and  C_8 
REMARK    4  A    between atoms: C_8  and  C_9 
REMARK       I    between atoms: C_9  and  N_10 
REMARK    5  A    between atoms: C_12  and  C_13 
REMARK    6  A    between atoms: C_13  and  N_14 
REMARK       I    between atoms: N_14  and  C_15 
REMARK       I    between atoms: C_15  and  N_16 
REMARK    7  A    between atoms: N_16  and  C_17 
ROOT
HETATM    1  C   UNL     1     -43.429  56.705 -52.488  1.00  0.00     0.229 C 
HETATM    2  N   UNL     1     -43.237  58.049 -52.868  1.00  0.00    -0.351 N 
HETATM    3  C   UNL     1     -43.670  58.364 -54.234  1.00  0.00     0.132 C 
HETATM    4  C   UNL     1     -43.795  59.873 -54.480  1.00  0.00     0.021 C 
HETATM    5  C   UNL     1     -42.437  60.524 -54.194  1.00  0.00     0.009 C 
HETATM    6  C   UNL     1     -42.080  60.284 -52.734  1.00  0.00     0.020 C 
HETATM    7  C   UNL     1     -42.092  58.804 -52.368  1.00  0.00     0.126 C 
HETATM    8  O   UNL     1     -43.898  55.894 -53.297  1.00  0.00    -0.273 OA
ENDROOT
BRANCH   1   9
HETATM    9  C   UNL     1     -43.320  56.298 -51.021  1.00  0.00     0.185 C 
BRANCH   9  10
HETATM   10  S   UNL     1     -43.346  54.559 -50.559  1.00  0.00    -0.082 SA
BRANCH  10  11
HETATM   11  C   UNL     1     -41.750  54.259 -49.968  1.00  0.00     0.173 A 
HETATM   12  N   UNL     1     -40.652  53.806 -50.712  1.00  0.00    -0.300 N 
HETATM   13  C   UNL     1     -39.605  53.832 -49.795  1.00  0.00     0.118 A 
HETATM   14  C   UNL     1     -40.121  54.257 -48.598  1.00  0.00     0.137 A 
HETATM   15  N   UNL     1     -41.446  54.515 -48.716  1.00  0.00    -0.235 NA
BRANCH  12  16
HETATM   16  C   UNL     1     -40.522  53.344 -52.077  1.00  0.00     0.042 A 
HETATM   17  C   UNL     1     -40.085  52.054 -52.409  1.00  0.00     0.037 A 
HETATM   18  C   UNL     1     -39.927  51.645 -53.746  1.00  0.00    -0.059 A 
HETATM   19  C   UNL     1     -39.496  50.241 -54.063  1.00  0.00     0.048 C 
HETATM   20  C   UNL     1     -40.229  52.534 -54.776  1.00  0.00     0.013 A 
HETATM   21  C   UNL     1     -40.660  53.828 -54.484  1.00  0.00    -0.059 A 
HETATM   22  C   UNL     1     -40.815  54.220 -53.143  1.00  0.00     0.037 A 
HETATM   23  C   UNL     1     -40.997  54.770 -55.604  1.00  0.00     0.048 C 
ENDBRANCH  12  16
ENDBRANCH  10  11
ENDBRANCH   9  10
ENDBRANCH   1   9
BRANCH   4  24
HETATM   24  C   UNL     1     -44.302  60.158 -55.898  1.00  0.00     0.130 C 
BRANCH  24  25
HETATM   25  N   UNL     1     -43.302  59.828 -56.904  1.00  0.00    -0.342 N 
HETATM   26  C   UNL     1     -43.274  58.827 -57.826  1.00  0.00     0.320 C 
HETATM   27  N   UNL     1     -44.418  58.090 -57.949  1.00  0.00    -0.309 N 
HETATM   28  O   UNL     1     -42.236  58.682 -58.463  1.00  0.00    -0.247 OA
HETATM   29  H   UNL     1     -45.200  58.382 -57.386  1.00  0.00     0.170 HD
HETATM   30  H   UNL     1     -42.399  60.284 -56.856  1.00  0.00     0.164 HD
BRANCH  27  31
HETATM   31  C   UNL     1     -44.654  57.014 -58.832  1.00  0.00     0.039 A 
HETATM   32  C   UNL     1     -45.631  57.022 -59.830  1.00  0.00     0.071 A 
HETATM   33  C   UNL     1     -45.793  55.907 -60.649  1.00  0.00     0.118 A 
HETATM   34  F   UNL     1     -46.732  55.921 -61.604  1.00  0.00    -0.206 F 
HETATM   35  C   UNL     1     -45.001  54.776 -60.495  1.00  0.00     0.042 A 
HETATM   36  C   UNL     1     -44.023  54.759 -59.506  1.00  0.00     0.005 A 
HETATM   37  C   UNL     1     -43.851  55.874 -58.680  1.00  0.00     0.030 A 
ENDBRANCH  27  31
ENDBRANCH  24  25
ENDBRANCH   4  24
TORSDOF 7
ENDMDL
MODEL 3
REMARK VINA RESULT:      -9.0      3.193      8.168
REMARK  7 active torsions:
REMARK  status: ('A' for Active; 'I' for Inactive)
REMARK    1  A    between atoms: C_4  and  N_5 
REMARK    2  A    between atoms: C_6  and  S_7 
REMARK    3  A    between atoms: S_7  and  C_8 
REMARK    4  A    between atoms: C_8  and  C_9 
REMARK       I    between atoms: C_9  and  N_10 
REMARK    5  A    between atoms: C_12  and  C_13 
REMARK    6  A    between atoms: C_13  and  N_14 
REMARK       I    between atoms: N_14  and  C_15 
REMARK       I    between atoms: C_15  and  N_16 
REMARK    7  A    between atoms: N_16  and  C_17 
ROOT
HETATM    1  C   UNL     1     -40.819  58.947 -52.188  1.00  0.00     0.229 C 
HETATM    2  N   UNL     1     -41.988  59.705 -52.399  1.00  0.00    -0.351 N 
HETATM    3  C   UNL     1     -42.032  60.416 -53.682  1.00  0.00     0.132 C 
HETATM    4  C   UNL     1     -43.440  60.911 -54.035  1.00  0.00     0.021 C 
HETATM    5  C   UNL     1     -43.926  61.830 -52.907  1.00  0.00     0.009 C 
HETATM    6  C   UNL     1     -43.987  61.026 -51.617  1.00  0.00     0.020 C 
HETATM    7  C   UNL     1     -42.657  60.363 -51.280  1.00  0.00     0.126 C 
HETATM    8  O   UNL     1     -39.920  58.947 -53.040  1.00  0.00    -0.273 OA
ENDROOT
BRANCH   1   9
HETATM    9  C   UNL     1     -40.761  57.922 -51.059  1.00  0.00     0.185 C 
BRANCH   9  10
HETATM   10  S   UNL     1     -42.038  56.663 -50.912  1.00  0.00    -0.082 SA
BRANCH  10  11
HETATM   11  C   UNL     1     -41.257  55.369 -50.074  1.00  0.00     0.173 A 
HETATM   12  N   UNL     1     -40.637  54.252 -50.650  1.00  0.00    -0.300 N 
HETATM   13  C   UNL     1     -40.088  53.586 -49.557  1.00  0.00     0.118 A 
HETATM   14  C   UNL     1     -40.420  54.300 -48.435  1.00  0.00     0.137 A 
HETATM   15  N   UNL     1     -41.144  55.397 -48.766  1.00  0.00    -0.235 NA
BRANCH  12  16
HETATM   16  C   UNL     1     -40.563  53.771 -52.013  1.00  0.00     0.042 A 
HETATM   17  C   UNL     1     -40.950  54.543 -53.117  1.00  0.00     0.037 A 
HETATM   18  C   UNL     1     -40.909  54.036 -54.429  1.00  0.00    -0.059 A 
HETATM   19  C   UNL     1     -41.292  54.908 -55.591  1.00  0.00     0.048 C 
HETATM   20  C   UNL     1     -40.455  52.737 -54.648  1.00  0.00     0.013 A 
HETATM   21  C   UNL     1     -40.068  51.936 -53.573  1.00  0.00    -0.059 A 
HETATM   22  C   UNL     1     -40.113  52.460 -52.269  1.00  0.00     0.037 A 
HETATM   23  C   UNL     1     -39.565  50.544 -53.826  1.00  0.00     0.048 C 
ENDBRANCH  12  16
ENDBRANCH  10  11
ENDBRANCH   9  10
ENDBRANCH   1   9
BRANCH   4  24
HETATM   24  C   UNL     1     -43.454  61.597 -55.406  1.00  0.00     0.130 C 
BRANCH  24  25
HETATM   25  N   UNL     1     -44.519  61.082 -56.254  1.00  0.00    -0.342 N 
HETATM   26  C   UNL     1     -44.511  60.068 -57.163  1.00  0.00     0.320 C 
HETATM   27  N   UNL     1     -43.382  59.300 -57.198  1.00  0.00    -0.309 N 
HETATM   28  O   UNL     1     -45.514  59.932 -57.857  1.00  0.00    -0.247 OA
HETATM   29  H   UNL     1     -42.674  59.516 -56.516  1.00  0.00     0.170 HD
HETATM   30  H   UNL     1     -45.376  61.617 -56.335  1.00  0.00     0.164 HD
BRANCH  27  31
HETATM   31  C   UNL     1     -43.126  58.189 -58.031  1.00  0.00     0.039 A 
HETATM   32  C   UNL     1     -43.629  56.907 -57.801  1.00  0.00     0.071 A 
HETATM   33  C   UNL     1     -43.314  55.872 -58.677  1.00  0.00     0.118 A 
HETATM   34  F   UNL     1     -43.801  54.644 -58.449  1.00  0.00    -0.206 F 
HETATM   35  C   UNL     1     -42.503  56.084 -59.785  1.00  0.00     0.042 A 
HETATM   36  C   UNL     1     -41.999  57.358 -60.026  1.00  0.00     0.005 A 
HETATM   37  C   UNL     1     -42.311  58.405 -59.153  1.00  0.00     0.030 A 
ENDBRANCH  27  31
ENDBRANCH  24  25
ENDBRANCH   4  24
TORSDOF 7
ENDMDL
MODEL 4
REMARK VINA RESULT:      -8.8      1.553      1.988
REMARK  7 active torsions:
REMARK  status: ('A' for Active; 'I' for Inactive)
REMARK    1  A    between atoms: C_4  and  N_5 
REMARK    2  A    between atoms: C_6  and  S_7 
REMARK    3  A    between atoms: S_7  and  C_8 
REMARK    4  A    between atoms: C_8  and  C_9 
REMARK       I    between atoms: C_9  and  N_10 
REMARK    5  A    between atoms: C_12  and  C_13 
REMARK    6  A    between atoms: C_13  and  N_14 
REMARK       I    between atoms: N_14  and  C_15 
REMARK       I    between atoms: C_15  and  N_16 
REMARK    7  A    between atoms: N_16  and  C_17 
ROOT
HETATM    1  C   UNL     1     -44.989  58.979 -55.158  1.00  0.00     0.229 C 
HETATM    2  N   UNL     1     -43.728  59.116 -54.544  1.00  0.00    -0.351 N 
HETATM    3  C   UNL     1     -43.062  57.847 -54.227  1.00  0.00     0.132 C 
HETATM    4  C   UNL     1     -41.571  58.024 -53.916  1.00  0.00     0.021 C 
HETATM    5  C   UNL     1     -41.434  58.999 -52.741  1.00  0.00     0.009 C 
HETATM    6  C   UNL     1     -42.022  60.342 -53.151  1.00  0.00     0.020 C 
HETATM    7  C   UNL     1     -43.464  60.223 -53.630  1.00  0.00     0.126 C 
HETATM    8  O   UNL     1     -45.462  57.851 -55.356  1.00  0.00    -0.273 OA
ENDROOT
BRANCH   1   9
HETATM    9  C   UNL     1     -45.657  60.181 -55.820  1.00  0.00     0.185 C 
BRANCH   9  10
HETATM   10  S   UNL     1     -46.066  60.139 -57.572  1.00  0.00    -0.082 SA
BRANCH  10  11
HETATM   11  C   UNL     1     -44.554  60.413 -58.362  1.00  0.00     0.173 A 
HETATM   12  N   UNL     1     -43.707  59.440 -58.912  1.00  0.00    -0.300 N 
HETATM   13  C   UNL     1     -42.694  60.189 -59.505  1.00  0.00     0.118 A 
HETATM   14  C   UNL     1     -42.968  61.510 -59.263  1.00  0.00     0.137 A 
HETATM   15  N   UNL     1     -44.116  61.636 -58.555  1.00  0.00    -0.235 NA
BRANCH  12  16
HETATM   16  C   UNL     1     -43.739  57.994 -58.888  1.00  0.00     0.042 A 
HETATM   17  C   UNL     1     -43.200  57.234 -57.840  1.00  0.00     0.037 A 
HETATM   18  C   UNL     1     -43.206  55.828 -57.863  1.00  0.00    -0.059 A 
HETATM   19  C   UNL     1     -42.657  55.048 -56.701  1.00  0.00     0.048 C 
HETATM   20  C   UNL     1     -43.778  55.161 -58.945  1.00  0.00     0.013 A 
HETATM   21  C   UNL     1     -44.316  55.883 -60.010  1.00  0.00    -0.059 A 
HETATM   22  C   UNL     1     -44.305  57.288 -59.970  1.00  0.00     0.037 A 
HETATM   23  C   UNL     1     -44.943  55.151 -61.162  1.00  0.00     0.048 C 
ENDBRANCH  12  16
ENDBRANCH  10  11
ENDBRANCH   9  10
ENDBRANCH   1   9
BRANCH   4  24
HETATM   24  C   UNL     1     -40.901  56.672 -53.645  1.00  0.00     0.130 C 
BRANCH  24  25
HETATM   25  N   UNL     1     -41.786  55.768 -52.924  1.00  0.00    -0.342 N 
HETATM   26  C   UNL     1     -41.712  54.422 -52.737  1.00  0.00     0.320 C 
HETATM   27  N   UNL     1     -40.560  53.819 -53.156  1.00  0.00    -0.309 N 
HETATM   28  O   UNL     1     -42.676  53.877 -52.208  1.00  0.00    -0.247 OA
HETATM   29  H   UNL     1     -39.844  54.427 -53.518  1.00  0.00     0.170 HD
HETATM   30  H   UNL     1     -42.691  56.114 -52.624  1.00  0.00     0.164 HD
BRANCH  27  31
HETATM   31  C   UNL     1     -40.227  52.450 -53.067  1.00  0.00     0.039 A 
HETATM   32  C   UNL     1     -40.253  51.567 -54.149  1.00  0.00     0.071 A 
HETATM   33  C   UNL     1     -39.914  50.230 -53.960  1.00  0.00     0.118 A 
HETATM   34  F   UNL     1     -39.941  49.389 -55.003  1.00  0.00    -0.206 F 
HETATM   35  C   UNL     1     -39.549  49.747 -52.710  1.00  0.00     0.042 A 
HETATM   36  C   UNL     1     -39.518  50.618 -51.625  1.00  0.00     0.005 A 
HETATM   37  C   UNL     1     -39.854  51.963 -51.805  1.00  0.00     0.030 A 
ENDBRANCH  27  31
ENDBRANCH  24  25
ENDBRANCH   4  24
TORSDOF 7
ENDMDL
MODEL 5
REMARK VINA RESULT:      -8.8      1.622      2.494
REMARK  7 active torsions:
REMARK  status: ('A' for Active; 'I' for Inactive)
REMARK    1  A    between atoms: C_4  and  N_5 
REMARK    2  A    between atoms: C_6  and  S_7 
REMARK    3  A    between atoms: S_7  and  C_8 
REMARK    4  A    between atoms: C_8  and  C_9 
REMARK       I    between atoms: C_9  and  N_10 
REMARK    5  A    between atoms: C_12  and  C_13 
REMARK    6  A    between atoms: C_13  and  N_14 
REMARK       I    between atoms: N_14  and  C_15 
REMARK       I    between atoms: C_15  and  N_16 
REMARK    7  A    between atoms: N_16  and  C_17 
ROOT
HETATM    1  C   UNL     1     -44.836  59.002 -54.343  1.00  0.00     0.229 C 
HETATM    2  N   UNL     1     -43.765  59.184 -53.445  1.00  0.00    -0.351 N 
HETATM    3  C   UNL     1     -43.075  57.948 -53.058  1.00  0.00     0.132 C 
HETATM    4  C   UNL     1     -41.716  58.212 -52.399  1.00  0.00     0.021 C 
HETATM    5  C   UNL     1     -41.940  59.097 -51.167  1.00  0.00     0.009 C 
HETATM    6  C   UNL     1     -42.541  60.419 -51.620  1.00  0.00     0.020 C 
HETATM    7  C   UNL     1     -43.819  60.231 -52.429  1.00  0.00     0.126 C 
HETATM    8  O   UNL     1     -45.145  57.861 -54.714  1.00  0.00    -0.273 OA
ENDROOT
BRANCH   1   9
HETATM    9  C   UNL     1     -45.443  60.199 -55.068  1.00  0.00     0.185 C 
BRANCH   9  10
HETATM   10  S   UNL     1     -45.418  60.277 -56.866  1.00  0.00    -0.082 SA
BRANCH  10  11
HETATM   11  C   UNL     1     -43.751  60.514 -57.252  1.00  0.00     0.173 A 
HETATM   12  N   UNL     1     -42.834  59.530 -57.647  1.00  0.00    -0.300 N 
HETATM   13  C   UNL     1     -41.680  60.255 -57.930  1.00  0.00     0.118 A 
HETATM   14  C   UNL     1     -41.953  61.573 -57.672  1.00  0.00     0.137 A 
HETATM   15  N   UNL     1     -43.233  61.721 -57.252  1.00  0.00    -0.235 NA
BRANCH  12  16
HETATM   16  C   UNL     1     -42.925  58.088 -57.728  1.00  0.00     0.042 A 
HETATM   17  C   UNL     1     -43.488  57.418 -58.824  1.00  0.00     0.037 A 
HETATM   18  C   UNL     1     -43.604  56.017 -58.858  1.00  0.00    -0.059 A 
HETATM   19  C   UNL     1     -44.175  55.332 -60.068  1.00  0.00     0.048 C 
HETATM   20  C   UNL     1     -43.132  55.263 -57.785  1.00  0.00     0.013 A 
HETATM   21  C   UNL     1     -42.572  55.894 -56.675  1.00  0.00    -0.059 A 
HETATM   22  C   UNL     1     -42.461  57.295 -56.658  1.00  0.00     0.037 A 
HETATM   23  C   UNL     1     -42.053  55.068 -55.533  1.00  0.00     0.048 C 
ENDBRANCH  12  16
ENDBRANCH  10  11
ENDBRANCH   9  10
ENDBRANCH   1   9
BRANCH   4  24
HETATM   24  C   UNL     1     -41.004  56.897 -52.062  1.00  0.00     0.130 C 
BRANCH  24  25
HETATM   25  N   UNL     1     -41.950  55.841 -51.733  1.00  0.00    -0.342 N 
HETATM   26  C   UNL     1     -41.865  54.493 -51.904  1.00  0.00     0.320 C 
HETATM   27  N   UNL     1     -40.652  54.014 -52.311  1.00  0.00    -0.309 N 
HETATM   28  O   UNL     1     -42.875  53.836 -51.674  1.00  0.00    -0.247 OA
HETATM   29  H   UNL     1     -39.912  54.690 -52.399  1.00  0.00     0.170 HD
HETATM   30  H   UNL     1     -42.896  56.101 -51.475  1.00  0.00     0.164 HD
BRANCH  27  31
HETATM   31  C   UNL     1     -40.298  52.668 -52.548  1.00  0.00     0.039 A 
HETATM   32  C   UNL     1     -39.821  51.800 -51.563  1.00  0.00     0.071 A 
HETATM   33  C   UNL     1     -39.490  50.490 -51.896  1.00  0.00     0.118 A 
HETATM   34  F   UNL     1     -39.034  49.663 -50.945  1.00  0.00    -0.206 F 
HETATM   35  C   UNL     1     -39.622  50.019 -53.196  1.00  0.00     0.042 A 
HETATM   36  C   UNL     1     -40.098  50.874 -54.185  1.00  0.00     0.005 A 
HETATM   37  C   UNL     1     -40.436  52.192 -53.860  1.00  0.00     0.030 A 
ENDBRANCH  27  31
ENDBRANCH  24  25
ENDBRANCH   4  24
TORSDOF 7
ENDMDL
MODEL 6
REMARK VINA RESULT:      -8.6      3.081      3.939
REMARK  7 active torsions:
REMARK  status: ('A' for Active; 'I' for Inactive)
REMARK    1  A    between atoms: C_4  and  N_5 
REMARK    2  A    between atoms: C_6  and  S_7 
REMARK    3  A    between atoms: S_7  and  C_8 
REMARK    4  A    between atoms: C_8  and  C_9 
REMARK       I    between atoms: C_9  and  N_10 
REMARK    5  A    between atoms: C_12  and  C_13 
REMARK    6  A    between atoms: C_13  and  N_14 
REMARK       I    between atoms: N_14  and  C_15 
REMARK       I    between atoms: C_15  and  N_16 
REMARK    7  A    between atoms: N_16  and  C_17 
ROOT
HETATM    1  C   UNL     1     -43.198  61.620 -52.301  1.00  0.00     0.229 C 
HETATM    2  N   UNL     1     -42.526  60.410 -52.561  1.00  0.00    -0.351 N 
HETATM    3  C   UNL     1     -41.894  59.797 -51.387  1.00  0.00     0.132 C 
HETATM    4  C   UNL     1     -41.506  58.332 -51.622  1.00  0.00     0.021 C 
HETATM    5  C   UNL     1     -40.555  58.271 -52.823  1.00  0.00     0.009 C 
HETATM    6  C   UNL     1     -41.285  58.797 -54.050  1.00  0.00     0.020 C 
HETATM    7  C   UNL     1     -41.846  60.198 -53.836  1.00  0.00     0.126 C 
HETATM    8  O   UNL     1     -43.193  62.097 -51.158  1.00  0.00    -0.273 OA
ENDROOT
BRANCH   1   9
HETATM    9  C   UNL     1     -44.151  62.209 -53.338  1.00  0.00     0.185 C 
BRANCH   9  10
HETATM   10  S   UNL     1     -45.759  61.452 -53.622  1.00  0.00    -0.082 SA
BRANCH  10  11
HETATM   11  C   UNL     1     -45.639  60.799 -55.218  1.00  0.00     0.173 A 
HETATM   12  N   UNL     1     -45.311  59.480 -55.561  1.00  0.00    -0.300 N 
HETATM   13  C   UNL     1     -45.453  59.460 -56.946  1.00  0.00     0.118 A 
HETATM   14  C   UNL     1     -45.816  60.722 -57.338  1.00  0.00     0.137 A 
HETATM   15  N   UNL     1     -45.925  61.541 -56.263  1.00  0.00    -0.235 NA
BRANCH  12  16
HETATM   16  C   UNL     1     -44.867  58.349 -54.775  1.00  0.00     0.042 A 
HETATM   17  C   UNL     1     -45.030  58.274 -53.384  1.00  0.00     0.037 A 
HETATM   18  C   UNL     1     -44.551  57.182 -52.638  1.00  0.00    -0.059 A 
HETATM   19  C   UNL     1     -44.781  57.118 -51.155  1.00  0.00     0.048 C 
HETATM   20  C   UNL     1     -43.912  56.131 -53.293  1.00  0.00     0.013 A 
HETATM   21  C   UNL     1     -43.725  56.174 -54.675  1.00  0.00    -0.059 A 
HETATM   22  C   UNL     1     -44.213  57.271 -55.406  1.00  0.00     0.037 A 
HETATM   23  C   UNL     1     -43.049  55.026 -55.370  1.00  0.00     0.048 C 
ENDBRANCH  12  16
ENDBRANCH  10  11
ENDBRANCH   9  10
ENDBRANCH   1   9
BRANCH   4  24
HETATM   24  C   UNL     1     -40.902  57.713 -50.356  1.00  0.00     0.130 C 
BRANCH  24  25
HETATM   25  N   UNL     1     -41.639  56.532 -49.931  1.00  0.00    -0.342 N 
HETATM   26  C   UNL     1     -41.592  55.250 -50.387  1.00  0.00     0.320 C 
HETATM   27  N   UNL     1     -40.602  54.967 -51.285  1.00  0.00    -0.309 N 
HETATM   28  O   UNL     1     -42.432  54.470 -49.950  1.00  0.00    -0.247 OA
HETATM   29  H   UNL     1     -39.961  55.714 -51.493  1.00  0.00     0.170 HD
HETATM   30  H   UNL     1     -42.430  56.652 -49.308  1.00  0.00     0.164 HD
BRANCH  27  31
HETATM   31  C   UNL     1     -40.329  53.723 -51.896  1.00  0.00     0.039 A 
HETATM   32  C   UNL     1     -39.831  52.610 -51.216  1.00  0.00     0.071 A 
HETATM   33  C   UNL     1     -39.586  51.428 -51.909  1.00  0.00     0.118 A 
HETATM   34  F   UNL     1     -39.109  50.364 -51.249  1.00  0.00    -0.206 F 
HETATM   35  C   UNL     1     -39.825  51.327 -53.273  1.00  0.00     0.042 A 
HETATM   36  C   UNL     1     -40.324  52.429 -53.961  1.00  0.00     0.005 A 
HETATM   37  C   UNL     1     -40.575  53.620 -53.274  1.00  0.00     0.030 A 
ENDBRANCH  27  31
ENDBRANCH  24  25
ENDBRANCH   4  24
TORSDOF 7
ENDMDL
MODEL 7
REMARK VINA RESULT:      -8.5      5.100      9.514
REMARK  7 active torsions:
REMARK  status: ('A' for Active; 'I' for Inactive)
REMARK    1  A    between atoms: C_4  and  N_5 
REMARK    2  A    between atoms: C_6  and  S_7 
REMARK    3  A    between atoms: S_7  and  C_8 
REMARK    4  A    between atoms: C_8  and  C_9 
REMARK       I    between atoms: C_9  and  N_10 
REMARK    5  A    between atoms: C_12  and  C_13 
REMARK    6  A    between atoms: C_13  and  N_14 
REMARK       I    between atoms: N_14  and  C_15 
REMARK       I    between atoms: C_15  and  N_16 
REMARK    7  A    between atoms: N_16  and  C_17 
ROOT
HETATM    1  C   UNL     1     -44.498  57.225 -51.321  1.00  0.00     0.229 C 
HETATM    2  N   UNL     1     -44.477  58.061 -52.455  1.00  0.00    -0.351 N 
HETATM    3  C   UNL     1     -45.324  59.255 -52.349  1.00  0.00     0.132 C 
HETATM    4  C   UNL     1     -44.996  60.308 -53.414  1.00  0.00     0.021 C 
HETATM    5  C   UNL     1     -45.162  59.666 -54.796  1.00  0.00     0.009 C 
HETATM    6  C   UNL     1     -44.180  58.509 -54.917  1.00  0.00     0.020 C 
HETATM    7  C   UNL     1     -44.336  57.493 -53.792  1.00  0.00     0.126 C 
HETATM    8  O   UNL     1     -45.219  57.510 -50.355  1.00  0.00    -0.273 OA
ENDROOT
BRANCH   1   9
HETATM    9  C   UNL     1     -43.450  56.127 -51.156  1.00  0.00     0.185 C 
BRANCH   9  10
HETATM   10  S   UNL     1     -41.758  56.550 -50.711  1.00  0.00    -0.082 SA
BRANCH  10  11
HETATM   11  C   UNL     1     -41.172  55.139 -49.904  1.00  0.00     0.173 A 
HETATM   12  N   UNL     1     -40.628  53.995 -50.503  1.00  0.00    -0.300 N 
HETATM   13  C   UNL     1     -40.227  53.219 -49.419  1.00  0.00     0.118 A 
HETATM   14  C   UNL     1     -40.566  53.903 -48.280  1.00  0.00     0.137 A 
HETATM   15  N   UNL     1     -41.150  55.085 -48.591  1.00  0.00    -0.235 NA
BRANCH  12  16
HETATM   16  C   UNL     1     -40.506  53.582 -51.885  1.00  0.00     0.042 A 
HETATM   17  C   UNL     1     -40.818  54.421 -52.963  1.00  0.00     0.037 A 
HETATM   18  C   UNL     1     -40.732  53.980 -54.297  1.00  0.00    -0.059 A 
HETATM   19  C   UNL     1     -41.035  54.922 -55.428  1.00  0.00     0.048 C 
HETATM   20  C   UNL     1     -40.307  52.680 -54.563  1.00  0.00     0.013 A 
HETATM   21  C   UNL     1     -39.995  51.814 -53.516  1.00  0.00    -0.059 A 
HETATM   22  C   UNL     1     -40.083  52.271 -52.189  1.00  0.00     0.037 A 
HETATM   23  C   UNL     1     -39.523  50.420 -53.818  1.00  0.00     0.048 C 
ENDBRANCH  12  16
ENDBRANCH  10  11
ENDBRANCH   9  10
ENDBRANCH   1   9
BRANCH   4  24
HETATM   24  C   UNL     1     -45.862  61.560 -53.235  1.00  0.00     0.130 C 
BRANCH  24  25
HETATM   25  N   UNL     1     -45.161  62.597 -52.490  1.00  0.00    -0.342 N 
HETATM   26  C   UNL     1     -45.126  62.853 -51.154  1.00  0.00     0.320 C 
HETATM   27  N   UNL     1     -45.711  61.919 -50.346  1.00  0.00    -0.309 N 
HETATM   28  O   UNL     1     -44.571  63.887 -50.798  1.00  0.00    -0.247 OA
HETATM   29  H   UNL     1     -46.072  61.098 -50.802  1.00  0.00     0.170 HD
HETATM   30  H   UNL     1     -44.744  63.364 -53.004  1.00  0.00     0.164 HD
BRANCH  27  31
HETATM   31  C   UNL     1     -45.799  61.939 -48.937  1.00  0.00     0.039 A 
HETATM   32  C   UNL     1     -44.866  61.340 -48.087  1.00  0.00     0.071 A 
HETATM   33  C   UNL     1     -45.044  61.407 -46.708  1.00  0.00     0.118 A 
HETATM   34  F   UNL     1     -44.144  60.831 -45.899  1.00  0.00    -0.206 F 
HETATM   35  C   UNL     1     -46.137  62.058 -46.151  1.00  0.00     0.042 A 
HETATM   36  C   UNL     1     -47.071  62.660 -46.988  1.00  0.00     0.005 A 
HETATM   37  C   UNL     1     -46.901  62.601 -48.374  1.00  0.00     0.030 A 
ENDBRANCH  27  31
ENDBRANCH  24  25
ENDBRANCH   4  24
TORSDOF 7
ENDMDL
MODEL 8
REMARK VINA RESULT:      -8.5      1.618      2.327
REMARK  7 active torsions:
REMARK  status: ('A' for Active; 'I' for Inactive)
REMARK    1  A    between atoms: C_4  and  N_5 
REMARK    2  A    between atoms: C_6  and  S_7 
REMARK    3  A    between atoms: S_7  and  C_8 
REMARK    4  A    between atoms: C_8  and  C_9 
REMARK       I    between atoms: C_9  and  N_10 
REMARK    5  A    between atoms: C_12  and  C_13 
REMARK    6  A    between atoms: C_13  and  N_14 
REMARK       I    between atoms: N_14  and  C_15 
REMARK       I    between atoms: C_15  and  N_16 
REMARK    7  A    between atoms: N_16  and  C_17 
ROOT
HETATM    1  C   UNL     1     -42.296  60.756 -57.080  1.00  0.00     0.229 C 
HETATM    2  N   UNL     1     -42.977  59.781 -56.326  1.00  0.00    -0.351 N 
HETATM    3  C   UNL     1     -42.145  58.653 -55.891  1.00  0.00     0.132 C 
HETATM    4  C   UNL     1     -42.805  57.823 -54.784  1.00  0.00     0.021 C 
HETATM    5  C   UNL     1     -44.154  57.312 -55.302  1.00  0.00     0.009 C 
HETATM    6  C   UNL     1     -45.038  58.509 -55.624  1.00  0.00     0.020 C 
HETATM    7  C   UNL     1     -44.377  59.473 -56.603  1.00  0.00     0.126 C 
HETATM    8  O   UNL     1     -41.098  60.603 -57.353  1.00  0.00    -0.273 OA
ENDROOT
BRANCH   1   9
HETATM    9  C   UNL     1     -42.938  62.118 -57.336  1.00  0.00     0.185 C 
BRANCH   9  10
HETATM   10  S   UNL     1     -43.841  62.421 -58.863  1.00  0.00    -0.082 SA
BRANCH  10  11
HETATM   11  C   UNL     1     -42.818  61.767 -60.091  1.00  0.00     0.173 A 
HETATM   12  N   UNL     1     -42.850  60.461 -60.602  1.00  0.00    -0.300 N 
HETATM   13  C   UNL     1     -41.906  60.488 -61.624  1.00  0.00     0.118 A 
HETATM   14  C   UNL     1     -41.366  61.748 -61.647  1.00  0.00     0.137 A 
HETATM   15  N   UNL     1     -41.935  62.528 -60.696  1.00  0.00    -0.235 NA
BRANCH  12  16
HETATM   16  C   UNL     1     -43.592  59.281 -60.215  1.00  0.00     0.042 A 
HETATM   17  C   UNL     1     -44.983  59.174 -60.350  1.00  0.00     0.037 A 
HETATM   18  C   UNL     1     -45.685  58.031 -59.925  1.00  0.00    -0.059 A 
HETATM   19  C   UNL     1     -47.172  57.936 -60.125  1.00  0.00     0.048 C 
HETATM   20  C   UNL     1     -44.984  56.962 -59.370  1.00  0.00     0.013 A 
HETATM   21  C   UNL     1     -43.600  57.035 -59.213  1.00  0.00    -0.059 A 
HETATM   22  C   UNL     1     -42.914  58.183 -59.645  1.00  0.00     0.037 A 
HETATM   23  C   UNL     1     -42.856  55.868 -58.628  1.00  0.00     0.048 C 
ENDBRANCH  12  16
ENDBRANCH  10  11
ENDBRANCH   9  10
ENDBRANCH   1   9
BRANCH   4  24
HETATM   24  C   UNL     1     -41.882  56.691 -54.320  1.00  0.00     0.130 C 
BRANCH  24  25
HETATM   25  N   UNL     1     -42.566  55.773 -53.421  1.00  0.00    -0.342 N 
HETATM   26  C   UNL     1     -42.285  54.480 -53.098  1.00  0.00     0.320 C 
HETATM   27  N   UNL     1     -41.098  53.989 -53.560  1.00  0.00    -0.309 N 
HETATM   28  O   UNL     1     -43.114  53.881 -52.421  1.00  0.00    -0.247 OA
HETATM   29  H   UNL     1     -40.508  54.637 -54.055  1.00  0.00     0.170 HD
HETATM   30  H   UNL     1     -43.483  56.029 -53.073  1.00  0.00     0.164 HD
BRANCH  27  31
HETATM   31  C   UNL     1     -40.567  52.696 -53.356  1.00  0.00     0.039 A 
HETATM   32  C   UNL     1     -40.541  51.699 -54.334  1.00  0.00     0.071 A 
HETATM   33  C   UNL     1     -40.002  50.450 -54.035  1.00  0.00     0.118 A 
HETATM   34  F   UNL     1     -39.980  49.499 -54.978  1.00  0.00    -0.206 F 
HETATM   35  C   UNL     1     -39.486  50.169 -52.777  1.00  0.00     0.042 A 
HETATM   36  C   UNL     1     -39.504  51.155 -51.796  1.00  0.00     0.005 A 
HETATM   37  C   UNL     1     -40.041  52.413 -52.087  1.00  0.00     0.030 A 
ENDBRANCH  27  31
ENDBRANCH  24  25
ENDBRANCH   4  24
TORSDOF 7
ENDMDL
MODEL 9
REMARK VINA RESULT:      -8.4      2.387      3.388
REMARK  7 active torsions:
REMARK  status: ('A' for Active; 'I' for Inactive)
REMARK    1  A    between atoms: C_4  and  N_5 
REMARK    2  A    between atoms: C_6  and  S_7 
REMARK    3  A    between atoms: S_7  and  C_8 
REMARK    4  A    between atoms: C_8  and  C_9 
REMARK       I    between atoms: C_9  and  N_10 
REMARK    5  A    between atoms: C_12  and  C_13 
REMARK    6  A    between atoms: C_13  and  N_14 
REMARK       I    between atoms: N_14  and  C_15 
REMARK       I    between atoms: C_15  and  N_16 
REMARK    7  A    between atoms: N_16  and  C_17 
ROOT
HETATM    1  C   UNL     1     -43.888  58.657 -53.401  1.00  0.00     0.229 C 
HETATM    2  N   UNL     1     -42.775  58.710 -52.539  1.00  0.00    -0.351 N 
HETATM    3  C   UNL     1     -42.731  57.643 -51.532  1.00  0.00     0.132 C 
HETATM    4  C   UNL     1     -41.353  57.510 -50.873  1.00  0.00     0.021 C 
HETATM    5  C   UNL     1     -40.992  58.854 -50.231  1.00  0.00     0.009 C 
HETATM    6  C   UNL     1     -40.924  59.913 -51.322  1.00  0.00     0.020 C 
HETATM    7  C   UNL     1     -42.211  59.994 -52.135  1.00  0.00     0.126 C 
HETATM    8  O   UNL     1     -44.746  57.776 -53.251  1.00  0.00    -0.273 OA
ENDROOT
BRANCH   1   9
HETATM    9  C   UNL     1     -43.915  59.497 -54.675  1.00  0.00     0.185 C 
BRANCH   9  10
HETATM   10  S   UNL     1     -42.713  59.200 -55.982  1.00  0.00    -0.082 SA
BRANCH  10  11
HETATM   11  C   UNL     1     -42.531  57.482 -55.999  1.00  0.00     0.173 A 
HETATM   12  N   UNL     1     -43.119  56.585 -56.903  1.00  0.00    -0.300 N 
HETATM   13  C   UNL     1     -42.573  55.357 -56.544  1.00  0.00     0.118 A 
HETATM   14  C   UNL     1     -41.745  55.575 -55.473  1.00  0.00     0.137 A 
HETATM   15  N   UNL     1     -41.728  56.890 -55.144  1.00  0.00    -0.235 NA
BRANCH  12  16
HETATM   16  C   UNL     1     -44.100  56.761 -57.951  1.00  0.00     0.042 A 
HETATM   17  C   UNL     1     -45.095  57.748 -57.909  1.00  0.00     0.037 A 
HETATM   18  C   UNL     1     -46.064  57.869 -58.922  1.00  0.00    -0.059 A 
HETATM   19  C   UNL     1     -47.089  58.966 -58.863  1.00  0.00     0.048 C 
HETATM   20  C   UNL     1     -46.031  57.000 -60.011  1.00  0.00     0.013 A 
HETATM   21  C   UNL     1     -45.061  56.001 -60.084  1.00  0.00    -0.059 A 
HETATM   22  C   UNL     1     -44.098  55.896 -59.065  1.00  0.00     0.037 A 
HETATM   23  C   UNL     1     -45.027  55.082 -61.271  1.00  0.00     0.048 C 
ENDBRANCH  12  16
ENDBRANCH  10  11
ENDBRANCH   9  10
ENDBRANCH   1   9
BRANCH   4  24
HETATM   24  C   UNL     1     -41.333  56.350 -49.871  1.00  0.00     0.130 C 
BRANCH  24  25
HETATM   25  N   UNL     1     -42.296  55.317 -50.223  1.00  0.00    -0.342 N 
HETATM   26  C   UNL     1     -42.145  54.183 -50.961  1.00  0.00     0.320 C 
HETATM   27  N   UNL     1     -40.865  53.861 -51.314  1.00  0.00    -0.309 N 
HETATM   28  O   UNL     1     -43.162  53.553 -51.233  1.00  0.00    -0.247 OA
HETATM   29  H   UNL     1     -40.140  54.460 -50.957  1.00  0.00     0.170 HD
HETATM   30  H   UNL     1     -43.280  55.493 -50.050  1.00  0.00     0.164 HD
BRANCH  27  31
HETATM   31  C   UNL     1     -40.437  52.741 -52.060  1.00  0.00     0.039 A 
HETATM   32  C   UNL     1     -39.928  51.572 -51.491  1.00  0.00     0.071 A 
HETATM   33  C   UNL     1     -39.524  50.522 -52.311  1.00  0.00     0.118 A 
HETATM   34  F   UNL     1     -39.037  49.403 -51.758  1.00  0.00    -0.206 F 
HETATM   35  C   UNL     1     -39.615  50.609 -53.694  1.00  0.00     0.042 A 
HETATM   36  C   UNL     1     -40.123  51.768 -54.272  1.00  0.00     0.005 A 
HETATM   37  C   UNL     1     -40.534  52.828 -53.457  1.00  0.00     0.030 A 
ENDBRANCH  27  31
ENDBRANCH  24  25
ENDBRANCH   4  24
TORSDOF 7
ENDMDL
MODEL 10
REMARK VINA RESULT:      -8.4      2.114      3.137
REMARK  7 active torsions:
REMARK  status: ('A' for Active; 'I' for Inactive)
REMARK    1  A    between atoms: C_4  and  N_5 
REMARK    2  A    between atoms: C_6  and  S_7 
REMARK    3  A    between atoms: S_7  and  C_8 
REMARK    4  A    between atoms: C_8  and  C_9 
REMARK       I    between atoms: C_9  and  N_10 
REMARK    5  A    between atoms: C_12  and  C_13 
REMARK    6  A    between atoms: C_13  and  N_14 
REMARK       I    between atoms: N_14  and  C_15 
REMARK       I    between atoms: C_15  and  N_16 
REMARK    7  A    between atoms: N_16  and  C_17 
ROOT
HETATM    1  C   UNL     1     -42.262  58.872 -57.113  1.00  0.00     0.229 C 
HETATM    2  N   UNL     1     -42.045  59.125 -55.744  1.00  0.00    -0.351 N 
HETATM    3  C   UNL     1     -41.903  57.921 -54.917  1.00  0.00     0.132 C 
HETATM    4  C   UNL     1     -41.306  58.221 -53.536  1.00  0.00     0.021 C 
HETATM    5  C   UNL     1     -42.206  59.242 -52.831  1.00  0.00     0.009 C 
HETATM    6  C   UNL     1     -42.229  60.522 -53.654  1.00  0.00     0.020 C 
HETATM    7  C   UNL     1     -42.661  60.278 -55.096  1.00  0.00     0.126 C 
HETATM    8  O   UNL     1     -42.352  57.706 -57.521  1.00  0.00    -0.273 OA
ENDROOT
BRANCH   1   9
HETATM    9  C   UNL     1     -42.122  59.998 -58.135  1.00  0.00     0.185 C 
BRANCH   9  10
HETATM   10  S   UNL     1     -43.380  60.235 -59.400  1.00  0.00    -0.082 SA
BRANCH  10  11
HETATM   11  C   UNL     1     -44.864  60.258 -58.516  1.00  0.00     0.173 A 
HETATM   12  N   UNL     1     -45.877  59.289 -58.552  1.00  0.00    -0.300 N 
HETATM   13  C   UNL     1     -46.785  59.732 -57.595  1.00  0.00     0.118 A 
HETATM   14  C   UNL     1     -46.297  60.906 -57.081  1.00  0.00     0.137 A 
HETATM   15  N   UNL     1     -45.112  61.222 -57.659  1.00  0.00    -0.235 NA
BRANCH  12  16
HETATM   16  C   UNL     1     -46.071  58.113 -59.371  1.00  0.00     0.042 A 
HETATM   17  C   UNL     1     -47.095  58.004 -60.322  1.00  0.00     0.037 A 
HETATM   18  C   UNL     1     -47.288  56.831 -61.075  1.00  0.00    -0.059 A 
HETATM   19  C   UNL     1     -48.371  56.767 -62.115  1.00  0.00     0.048 C 
HETATM   20  C   UNL     1     -46.430  55.748 -60.891  1.00  0.00     0.013 A 
HETATM   21  C   UNL     1     -45.404  55.817 -59.949  1.00  0.00    -0.059 A 
HETATM   22  C   UNL     1     -45.223  56.997 -59.207  1.00  0.00     0.037 A 
HETATM   23  C   UNL     1     -44.477  54.648 -59.772  1.00  0.00     0.048 C 
ENDBRANCH  12  16
ENDBRANCH  10  11
ENDBRANCH   9  10
ENDBRANCH   1   9
BRANCH   4  24
HETATM   24  C   UNL     1     -41.123  56.933 -52.725  1.00  0.00     0.130 C 
BRANCH  24  25
HETATM   25  N   UNL     1     -42.077  55.908 -53.121  1.00  0.00    -0.342 N 
HETATM   26  C   UNL     1     -41.922  54.563 -53.262  1.00  0.00     0.320 C 
HETATM   27  N   UNL     1     -40.733  54.047 -52.829  1.00  0.00    -0.309 N 
HETATM   28  O   UNL     1     -42.857  53.940 -53.754  1.00  0.00    -0.247 OA
HETATM   29  H   UNL     1     -40.096  54.694 -52.396  1.00  0.00     0.170 HD
HETATM   30  H   UNL     1     -42.968  56.199 -53.508  1.00  0.00     0.164 HD
BRANCH  27  31
HETATM   31  C   UNL     1     -40.327  52.694 -52.849  1.00  0.00     0.039 A 
HETATM   32  C   UNL     1     -40.282  51.909 -54.004  1.00  0.00     0.071 A 
HETATM   33  C   UNL     1     -39.874  50.580 -53.921  1.00  0.00     0.118 A 
HETATM   34  F   UNL     1     -39.833  49.833 -55.033  1.00  0.00    -0.206 F 
HETATM   35  C   UNL     1     -39.509  50.010 -52.708  1.00  0.00     0.042 A 
HETATM   36  C   UNL     1     -39.548  50.784 -51.553  1.00  0.00     0.005 A 
HETATM   37  C   UNL     1     -39.954  52.120 -51.625  1.00  0.00     0.030 A 
ENDBRANCH  27  31
ENDBRANCH  24  25
ENDBRANCH   4  24
TORSDOF 7
ENDMDL
