MODEL 1
REMARK VINA RESULT:      -9.3      0.000      0.000
REMARK  4 active torsions:
REMARK  status: ('A' for Active; 'I' for Inactive)
REMARK    1  A    between atoms: C_6  and  C_7 
REMARK    2  A    between atoms: C_14  and  C_15 
REMARK       I    between atoms: C_15  and  N_16 
REMARK    3  A    between atoms: N_16  and  N_17 
REMARK       I    between atoms: N_17  and  C_18 
REMARK       I    between atoms: C_18  and  N_19 
REMARK    4  A    between atoms: N_19  and  C_20 
ROOT
HETATM    1  C   UNL     1     -42.550  54.871 -55.640  1.00  0.00     0.271 C 
HETATM    2  N   UNL     1     -42.172  55.836 -56.545  1.00  0.00    -0.262 N 
HETATM    3  O   UNL     1     -43.317  53.952 -55.910  1.00  0.00    -0.266 OA
HETATM    4  H   UNL     1     -41.529  56.603 -56.344  1.00  0.00     0.190 HD
ENDROOT
BRANCH   1   5
HETATM    5  C   UNL     1     -41.960  55.021 -54.291  1.00  0.00     0.048 A 
HETATM    6  C   UNL     1     -41.265  53.958 -53.676  1.00  0.00     0.009 A 
HETATM    7  C   UNL     1     -41.067  52.674 -54.245  1.00  0.00     0.015 A 
HETATM    8  C   UNL     1     -40.717  54.236 -52.411  1.00  0.00     0.068 A 
HETATM    9  C   UNL     1     -40.345  51.692 -53.569  1.00  0.00     0.001 A 
HETATM   10  C   UNL     1     -39.809  51.978 -52.321  1.00  0.00     0.002 A 
HETATM   11  C   UNL     1     -40.001  53.241 -51.760  1.00  0.00     0.032 A 
HETATM   12  N   UNL     1     -40.846  55.430 -51.805  1.00  0.00    -0.248 NA
HETATM   13  C   UNL     1     -41.540  56.430 -52.403  1.00  0.00     0.070 A 
HETATM   14  C   UNL     1     -42.105  56.258 -53.656  1.00  0.00     0.050 A 
BRANCH  13  15
HETATM   15  C   UNL     1     -41.621  57.689 -51.642  1.00  0.00     0.010 A 
HETATM   16  C   UNL     1     -42.743  58.520 -51.662  1.00  0.00     0.130 A 
HETATM   17  N   UNL     1     -42.861  59.696 -50.994  1.00  0.00    -0.272 NA
HETATM   18  C   UNL     1     -41.806  60.073 -50.244  1.00  0.00     0.116 A 
HETATM   19  C   UNL     1     -40.645  59.330 -50.131  1.00  0.00     0.020 A 
HETATM   20  C   UNL     1     -40.559  58.130 -50.836  1.00  0.00     0.017 A 
ENDBRANCH  13  15
ENDBRANCH   1   5
BRANCH   2  21
HETATM   21  N   UNL     1     -42.670  55.769 -57.853  1.00  0.00    -0.249 N 
HETATM   22  C   UNL     1     -43.805  56.519 -58.121  1.00  0.00     0.339 C 
HETATM   23  N   UNL     1     -44.246  56.328 -59.413  1.00  0.00    -0.308 N 
HETATM   24  O   UNL     1     -44.279  57.278 -57.282  1.00  0.00    -0.245 OA
HETATM   25  H   UNL     1     -43.623  55.801 -60.008  1.00  0.00     0.170 HD
HETATM   26  H   UNL     1     -42.541  54.865 -58.305  1.00  0.00     0.192 HD
BRANCH  23  27
HETATM   27  C   UNL     1     -45.365  56.922 -60.030  1.00  0.00     0.038 A 
HETATM   28  C   UNL     1     -45.530  58.301 -60.187  1.00  0.00     0.055 A 
HETATM   29  C   UNL     1     -46.666  58.817 -60.824  1.00  0.00     0.058 A 
HETATM   30 CL   UNL     1     -46.793  60.534 -60.981  1.00  0.00    -0.082 Cl
HETATM   31  C   UNL     1     -47.653  57.951 -61.306  1.00  0.00     0.055 A 
HETATM   32 CL   UNL     1     -49.076  58.512 -62.106  1.00  0.00    -0.083 Cl
HETATM   33  C   UNL     1     -47.499  56.573 -61.142  1.00  0.00     0.028 A 
HETATM   34  C   UNL     1     -46.364  56.063 -60.504  1.00  0.00     0.031 A 
ENDBRANCH  23  27
ENDBRANCH   2  21
TORSDOF 4
ENDMDL
MODEL 2
REMARK VINA RESULT:      -9.2      4.767      8.758
REMARK  4 active torsions:
REMARK  status: ('A' for Active; 'I' for Inactive)
REMARK    1  A    between atoms: C_6  and  C_7 
REMARK    2  A    between atoms: C_14  and  C_15 
REMARK       I    between atoms: C_15  and  N_16 
REMARK    3  A    between atoms: N_16  and  N_17 
REMARK       I    between atoms: N_17  and  C_18 
REMARK       I    between atoms: C_18  and  N_19 
REMARK    4  A    between atoms: N_19  and  C_20 
ROOT
HETATM    1  C   UNL     1     -41.599  57.501 -52.608  1.00  0.00     0.271 C 
HETATM    2  N   UNL     1     -42.730  57.692 -51.849  1.00  0.00    -0.262 N 
HETATM    3  O   UNL     1     -40.620  58.238 -52.565  1.00  0.00    -0.266 OA
HETATM    4  H   UNL     1     -43.551  57.086 -51.863  1.00  0.00     0.190 HD
ENDROOT
BRANCH   1   5
HETATM    5  C   UNL     1     -41.646  56.322 -53.503  1.00  0.00     0.048 A 
HETATM    6  C   UNL     1     -42.207  56.406 -54.794  1.00  0.00     0.009 A 
HETATM    7  C   UNL     1     -42.778  57.574 -55.362  1.00  0.00     0.015 A 
HETATM    8  C   UNL     1     -42.158  55.229 -55.561  1.00  0.00     0.068 A 
HETATM    9  C   UNL     1     -43.289  57.567 -56.659  1.00  0.00     0.001 A 
HETATM   10  C   UNL     1     -43.235  56.399 -57.406  1.00  0.00     0.002 A 
HETATM   11  C   UNL     1     -42.672  55.249 -56.850  1.00  0.00     0.032 A 
HETATM   12  N   UNL     1     -41.623  54.082 -55.105  1.00  0.00    -0.248 NA
HETATM   13  C   UNL     1     -41.112  54.016 -53.851  1.00  0.00     0.070 A 
HETATM   14  C   UNL     1     -41.101  55.126 -53.024  1.00  0.00     0.050 A 
BRANCH  13  15
HETATM   15  C   UNL     1     -40.560  52.706 -53.460  1.00  0.00     0.010 A 
HETATM   16  C   UNL     1     -40.081  52.435 -52.176  1.00  0.00     0.130 A 
HETATM   17  N   UNL     1     -39.549  51.255 -51.771  1.00  0.00    -0.272 NA
HETATM   18  C   UNL     1     -39.497  50.268 -52.689  1.00  0.00     0.116 A 
HETATM   19  C   UNL     1     -39.952  50.409 -53.986  1.00  0.00     0.020 A 
HETATM   20  C   UNL     1     -40.487  51.638 -54.368  1.00  0.00     0.017 A 
ENDBRANCH  13  15
ENDBRANCH   1   5
BRANCH   2  21
HETATM   21  N   UNL     1     -42.773  58.776 -50.961  1.00  0.00    -0.249 N 
HETATM   22  C   UNL     1     -44.019  59.342 -50.736  1.00  0.00     0.339 C 
HETATM   23  N   UNL     1     -43.937  60.437 -49.904  1.00  0.00    -0.308 N 
HETATM   24  O   UNL     1     -45.038  58.847 -51.210  1.00  0.00    -0.245 OA
HETATM   25  H   UNL     1     -43.035  60.584 -49.474  1.00  0.00     0.170 HD
HETATM   26  H   UNL     1     -41.945  59.368 -50.983  1.00  0.00     0.192 HD
BRANCH  23  27
HETATM   27  C   UNL     1     -44.996  61.255 -49.462  1.00  0.00     0.038 A 
HETATM   28  C   UNL     1     -45.470  61.275 -48.148  1.00  0.00     0.055 A 
HETATM   29  C   UNL     1     -46.520  62.127 -47.781  1.00  0.00     0.058 A 
HETATM   30 CL   UNL     1     -47.048  62.093 -46.134  1.00  0.00    -0.082 Cl
HETATM   31  C   UNL     1     -47.108  62.965 -48.733  1.00  0.00     0.055 A 
HETATM   32 CL   UNL     1     -48.400  64.045 -48.353  1.00  0.00    -0.083 Cl
HETATM   33  C   UNL     1     -46.646  62.942 -50.049  1.00  0.00     0.028 A 
HETATM   34  C   UNL     1     -45.598  62.089 -50.412  1.00  0.00     0.031 A 
ENDBRANCH  23  27
ENDBRANCH   2  21
TORSDOF 4
ENDMDL
MODEL 3
REMARK VINA RESULT:      -9.1      4.737      9.360
REMARK  4 active torsions:
REMARK  status: ('A' for Active; 'I' for Inactive)
REMARK    1  A    between atoms: C_6  and  C_7 
REMARK    2  A    between atoms: C_14  and  C_15 
REMARK       I    between atoms: C_15  and  N_16 
REMARK    3  A    between atoms: N_16  and  N_17 
REMARK       I    between atoms: N_17  and  C_18 
REMARK       I    between atoms: C_18  and  N_19 
REMARK    4  A    between atoms: N_19  and  C_20 
ROOT
HETATM    1  C   UNL     1     -43.149  57.415 -56.964  1.00  0.00     0.271 C 
HETATM    2  N   UNL     1     -43.305  56.549 -55.906  1.00  0.00    -0.262 N 
HETATM    3  O   UNL     1     -42.083  57.947 -57.254  1.00  0.00    -0.266 OA
HETATM    4  H   UNL     1     -44.180  56.089 -55.654  1.00  0.00     0.190 HD
ENDROOT
BRANCH   1   5
HETATM    5  C   UNL     1     -44.382  57.667 -57.744  1.00  0.00     0.048 A 
HETATM    6  C   UNL     1     -44.733  56.851 -58.840  1.00  0.00     0.009 A 
HETATM    7  C   UNL     1     -43.976  55.748 -59.312  1.00  0.00     0.015 A 
HETATM    8  C   UNL     1     -45.946  57.168 -59.476  1.00  0.00     0.068 A 
HETATM    9  C   UNL     1     -44.417  54.983 -60.391  1.00  0.00     0.001 A 
HETATM   10  C   UNL     1     -45.615  55.306 -61.011  1.00  0.00     0.002 A 
HETATM   11  C   UNL     1     -46.363  56.391 -60.548  1.00  0.00     0.032 A 
HETATM   12  N   UNL     1     -46.730  58.189 -59.086  1.00  0.00    -0.248 NA
HETATM   13  C   UNL     1     -46.361  58.977 -58.046  1.00  0.00     0.070 A 
HETATM   14  C   UNL     1     -45.191  58.736 -57.346  1.00  0.00     0.050 A 
BRANCH  13  15
HETATM   15  C   UNL     1     -47.296  60.067 -57.714  1.00  0.00     0.010 A 
HETATM   16  C   UNL     1     -46.909  61.218 -57.025  1.00  0.00     0.130 A 
HETATM   17  N   UNL     1     -47.732  62.241 -56.681  1.00  0.00    -0.272 NA
HETATM   18  C   UNL     1     -49.023  62.129 -57.053  1.00  0.00     0.116 A 
HETATM   19  C   UNL     1     -49.525  61.046 -57.751  1.00  0.00     0.020 A 
HETATM   20  C   UNL     1     -48.650  60.013 -58.083  1.00  0.00     0.017 A 
ENDBRANCH  13  15
ENDBRANCH   1   5
BRANCH   2  21
HETATM   21  N   UNL     1     -42.189  56.239 -55.117  1.00  0.00    -0.249 N 
HETATM   22  C   UNL     1     -42.065  54.917 -54.715  1.00  0.00     0.339 C 
HETATM   23  N   UNL     1     -40.975  54.737 -53.892  1.00  0.00    -0.308 N 
HETATM   24  O   UNL     1     -42.837  54.054 -55.120  1.00  0.00    -0.245 OA
HETATM   25  H   UNL     1     -40.357  55.532 -53.815  1.00  0.00     0.170 HD
HETATM   26  H   UNL     1     -41.896  56.988 -54.493  1.00  0.00     0.192 HD
BRANCH  23  27
HETATM   27  C   UNL     1     -40.543  53.535 -53.297  1.00  0.00     0.038 A 
HETATM   28  C   UNL     1     -40.186  52.391 -54.017  1.00  0.00     0.055 A 
HETATM   29  C   UNL     1     -39.754  51.236 -53.353  1.00  0.00     0.058 A 
HETATM   30 CL   UNL     1     -39.329  49.864 -54.316  1.00  0.00    -0.082 Cl
HETATM   31  C   UNL     1     -39.680  51.216 -51.956  1.00  0.00     0.055 A 
HETATM   32 CL   UNL     1     -39.151  49.832 -51.070  1.00  0.00    -0.083 Cl
HETATM   33  C   UNL     1     -40.045  52.352 -51.232  1.00  0.00     0.028 A 
HETATM   34  C   UNL     1     -40.478  53.503 -51.898  1.00  0.00     0.031 A 
ENDBRANCH  23  27
ENDBRANCH   2  21
TORSDOF 4
ENDMDL
MODEL 4
REMARK VINA RESULT:      -8.9      4.874      9.580
REMARK  4 active torsions:
REMARK  status: ('A' for Active; 'I' for Inactive)
REMARK    1  A    between atoms: C_6  and  C_7 
REMARK    2  A    between atoms: C_14  and  C_15 
REMARK       I    between atoms: C_15  and  N_16 
REMARK    3  A    between atoms: N_16  and  N_17 
REMARK       I    between atoms: N_17  and  C_18 
REMARK       I    between atoms: C_18  and  N_19 
REMARK    4  A    between atoms: N_19  and  C_20 
ROOT
HETATM    1  C   UNL     1     -43.229  56.677 -59.189  1.00  0.00     0.271 C 
HETATM    2  N   UNL     1     -43.559  56.569 -57.857  1.00  0.00    -0.262 N 
HETATM    3  O   UNL     1     -42.738  55.763 -59.842  1.00  0.00    -0.266 OA
HETATM    4  H   UNL     1     -43.976  57.313 -57.298  1.00  0.00     0.190 HD
ENDROOT
BRANCH   1   5
HETATM    5  C   UNL     1     -43.510  58.000 -59.791  1.00  0.00     0.048 A 
HETATM    6  C   UNL     1     -44.799  58.330 -60.258  1.00  0.00     0.009 A 
HETATM    7  C   UNL     1     -45.928  57.471 -60.220  1.00  0.00     0.015 A 
HETATM    8  C   UNL     1     -44.949  59.630 -60.773  1.00  0.00     0.068 A 
HETATM    9  C   UNL     1     -47.171  57.896 -60.685  1.00  0.00     0.001 A 
HETATM   10  C   UNL     1     -47.307  59.180 -61.192  1.00  0.00     0.002 A 
HETATM   11  C   UNL     1     -46.198  60.029 -61.230  1.00  0.00     0.032 A 
HETATM   12  N   UNL     1     -43.936  60.512 -60.835  1.00  0.00    -0.248 NA
HETATM   13  C   UNL     1     -42.699  60.165 -60.404  1.00  0.00     0.070 A 
HETATM   14  C   UNL     1     -42.454  58.913 -59.866  1.00  0.00     0.050 A 
BRANCH  13  15
HETATM   15  C   UNL     1     -41.668  61.211 -60.527  1.00  0.00     0.010 A 
HETATM   16  C   UNL     1     -41.292  61.769 -61.751  1.00  0.00     0.130 A 
HETATM   17  N   UNL     1     -40.339  62.720 -61.920  1.00  0.00    -0.272 NA
HETATM   18  C   UNL     1     -39.722  63.163 -60.806  1.00  0.00     0.116 A 
HETATM   19  C   UNL     1     -40.016  62.700 -59.536  1.00  0.00     0.020 A 
HETATM   20  C   UNL     1     -40.997  61.719 -59.403  1.00  0.00     0.017 A 
ENDBRANCH  13  15
ENDBRANCH   1   5
BRANCH   2  21
HETATM   21  N   UNL     1     -43.342  55.348 -57.204  1.00  0.00    -0.249 N 
HETATM   22  C   UNL     1     -42.835  55.418 -55.915  1.00  0.00     0.339 C 
HETATM   23  N   UNL     1     -42.598  54.165 -55.393  1.00  0.00    -0.308 N 
HETATM   24  O   UNL     1     -42.688  56.496 -55.347  1.00  0.00    -0.245 OA
HETATM   25  H   UNL     1     -42.947  53.395 -55.946  1.00  0.00     0.170 HD
HETATM   26  H   UNL     1     -43.056  54.588 -57.820  1.00  0.00     0.192 HD
BRANCH  23  27
HETATM   27  C   UNL     1     -42.086  53.853 -54.118  1.00  0.00     0.038 A 
HETATM   28  C   UNL     1     -42.675  54.262 -52.919  1.00  0.00     0.055 A 
HETATM   29  C   UNL     1     -42.113  53.901 -51.687  1.00  0.00     0.058 A 
HETATM   30 CL   UNL     1     -42.905  54.445 -50.249  1.00  0.00    -0.082 Cl
HETATM   31  C   UNL     1     -40.948  53.128 -51.649  1.00  0.00     0.055 A 
HETATM   32 CL   UNL     1     -40.203  52.640 -50.170  1.00  0.00    -0.083 Cl
HETATM   33  C   UNL     1     -40.349  52.726 -52.843  1.00  0.00     0.028 A 
HETATM   34  C   UNL     1     -40.913  53.090 -54.070  1.00  0.00     0.031 A 
ENDBRANCH  23  27
ENDBRANCH   2  21
TORSDOF 4
ENDMDL
MODEL 5
REMARK VINA RESULT:      -8.6      4.703     10.101
REMARK  4 active torsions:
REMARK  status: ('A' for Active; 'I' for Inactive)
REMARK    1  A    between atoms: C_6  and  C_7 
REMARK    2  A    between atoms: C_14  and  C_15 
REMARK       I    between atoms: C_15  and  N_16 
REMARK    3  A    between atoms: N_16  and  N_17 
REMARK       I    between atoms: N_17  and  C_18 
REMARK       I    between atoms: C_18  and  N_19 
REMARK    4  A    between atoms: N_19  and  C_20 
ROOT
HETATM    1  C   UNL     1     -43.208  57.982 -57.563  1.00  0.00     0.271 C 
HETATM    2  N   UNL     1     -43.252  56.699 -57.070  1.00  0.00    -0.262 N 
HETATM    3  O   UNL     1     -42.169  58.619 -57.706  1.00  0.00    -0.266 OA
HETATM    4  H   UNL     1     -44.103  56.148 -56.952  1.00  0.00     0.190 HD
ENDROOT
BRANCH   1   5
HETATM    5  C   UNL     1     -44.526  58.556 -57.917  1.00  0.00     0.048 A 
HETATM    6  C   UNL     1     -45.097  59.597 -57.156  1.00  0.00     0.009 A 
HETATM    7  C   UNL     1     -44.509  60.187 -56.007  1.00  0.00     0.015 A 
HETATM    8  C   UNL     1     -46.334  60.083 -57.614  1.00  0.00     0.068 A 
HETATM    9  C   UNL     1     -45.140  61.231 -55.333  1.00  0.00     0.001 A 
HETATM   10  C   UNL     1     -46.360  61.702 -55.794  1.00  0.00     0.002 A 
HETATM   11  C   UNL     1     -46.941  61.124 -56.925  1.00  0.00     0.032 A 
HETATM   12  N   UNL     1     -46.955  59.591 -58.701  1.00  0.00    -0.248 NA
HETATM   13  C   UNL     1     -46.401  58.572 -59.403  1.00  0.00     0.070 A 
HETATM   14  C   UNL     1     -45.177  58.035 -59.039  1.00  0.00     0.050 A 
BRANCH  13  15
HETATM   15  C   UNL     1     -47.175  58.111 -60.570  1.00  0.00     0.010 A 
HETATM   16  C   UNL     1     -47.249  56.770 -60.953  1.00  0.00     0.130 A 
HETATM   17  N   UNL     1     -47.932  56.297 -62.025  1.00  0.00    -0.272 NA
HETATM   18  C   UNL     1     -48.600  57.205 -62.765  1.00  0.00     0.116 A 
HETATM   19  C   UNL     1     -48.616  58.558 -62.480  1.00  0.00     0.020 A 
HETATM   20  C   UNL     1     -47.898  59.007 -61.373  1.00  0.00     0.017 A 
ENDBRANCH  13  15
ENDBRANCH   1   5
BRANCH   2  21
HETATM   21  N   UNL     1     -42.051  56.067 -56.720  1.00  0.00    -0.249 N 
HETATM   22  C   UNL     1     -42.119  55.131 -55.699  1.00  0.00     0.339 C 
HETATM   23  N   UNL     1     -40.875  54.623 -55.392  1.00  0.00    -0.308 N 
HETATM   24  O   UNL     1     -43.193  54.804 -55.206  1.00  0.00    -0.245 OA
HETATM   25  H   UNL     1     -40.134  54.885 -56.027  1.00  0.00     0.170 HD
HETATM   26  H   UNL     1     -41.225  56.656 -56.814  1.00  0.00     0.192 HD
BRANCH  23  27
HETATM   27  C   UNL     1     -40.564  53.659 -54.412  1.00  0.00     0.038 A 
HETATM   28  C   UNL     1     -40.237  52.331 -54.700  1.00  0.00     0.055 A 
HETATM   29  C   UNL     1     -39.927  51.434 -53.670  1.00  0.00     0.058 A 
HETATM   30 CL   UNL     1     -39.531  49.808 -54.109  1.00  0.00    -0.082 Cl
HETATM   31  C   UNL     1     -39.945  51.861 -52.338  1.00  0.00     0.055 A 
HETATM   32 CL   UNL     1     -39.568  50.814 -51.018  1.00  0.00    -0.083 Cl
HETATM   33  C   UNL     1     -40.282  53.183 -52.045  1.00  0.00     0.028 A 
HETATM   34  C   UNL     1     -40.592  54.076 -53.076  1.00  0.00     0.031 A 
ENDBRANCH  23  27
ENDBRANCH   2  21
TORSDOF 4
ENDMDL
MODEL 6
REMARK VINA RESULT:      -8.5      4.404      8.439
REMARK  4 active torsions:
REMARK  status: ('A' for Active; 'I' for Inactive)
REMARK    1  A    between atoms: C_6  and  C_7 
REMARK    2  A    between atoms: C_14  and  C_15 
REMARK       I    between atoms: C_15  and  N_16 
REMARK    3  A    between atoms: N_16  and  N_17 
REMARK       I    between atoms: N_17  and  C_18 
REMARK       I    between atoms: C_18  and  N_19 
REMARK    4  A    between atoms: N_19  and  C_20 
ROOT
HETATM    1  C   UNL     1     -41.994  56.742 -51.837  1.00  0.00     0.271 C 
HETATM    2  N   UNL     1     -41.710  58.086 -51.915  1.00  0.00    -0.262 N 
HETATM    3  O   UNL     1     -42.382  56.189 -50.814  1.00  0.00    -0.266 OA
HETATM    4  H   UNL     1     -41.396  58.568 -52.757  1.00  0.00     0.190 HD
ENDROOT
BRANCH   1   5
HETATM    5  C   UNL     1     -41.793  55.993 -53.098  1.00  0.00     0.048 A 
HETATM    6  C   UNL     1     -41.183  54.722 -53.103  1.00  0.00     0.009 A 
HETATM    7  C   UNL     1     -40.700  54.043 -51.955  1.00  0.00     0.015 A 
HETATM    8  C   UNL     1     -41.084  54.095 -54.357  1.00  0.00     0.068 A 
HETATM    9  C   UNL     1     -40.131  52.774 -52.056  1.00  0.00     0.001 A 
HETATM   10  C   UNL     1     -40.038  52.166 -53.299  1.00  0.00     0.002 A 
HETATM   11  C   UNL     1     -40.514  52.831 -54.431  1.00  0.00     0.032 A 
HETATM   12  N   UNL     1     -41.527  54.661 -55.494  1.00  0.00    -0.248 NA
HETATM   13  C   UNL     1     -42.088  55.895 -55.470  1.00  0.00     0.070 A 
HETATM   14  C   UNL     1     -42.243  56.587 -54.281  1.00  0.00     0.050 A 
BRANCH  13  15
HETATM   15  C   UNL     1     -42.530  56.416 -56.777  1.00  0.00     0.010 A 
HETATM   16  C   UNL     1     -43.109  55.611 -57.760  1.00  0.00     0.130 A 
HETATM   17  N   UNL     1     -43.516  56.037 -58.983  1.00  0.00    -0.272 NA
HETATM   18  C   UNL     1     -43.355  57.349 -59.250  1.00  0.00     0.116 A 
HETATM   19  C   UNL     1     -42.809  58.249 -58.354  1.00  0.00     0.020 A 
HETATM   20  C   UNL     1     -42.398  57.774 -57.110  1.00  0.00     0.017 A 
ENDBRANCH  13  15
ENDBRANCH   1   5
BRANCH   2  21
HETATM   21  N   UNL     1     -41.883  58.881 -50.773  1.00  0.00    -0.249 N 
HETATM   22  C   UNL     1     -42.990  59.717 -50.765  1.00  0.00     0.339 C 
HETATM   23  N   UNL     1     -43.027  60.498 -49.630  1.00  0.00    -0.308 N 
HETATM   24  O   UNL     1     -43.823  59.680 -51.665  1.00  0.00    -0.245 OA
HETATM   25  H   UNL     1     -42.348  60.260 -48.921  1.00  0.00     0.170 HD
HETATM   26  H   UNL     1     -41.014  59.186 -50.339  1.00  0.00     0.192 HD
BRANCH  23  27
HETATM   27  C   UNL     1     -43.999  61.458 -49.285  1.00  0.00     0.038 A 
HETATM   28  C   UNL     1     -44.979  61.261 -48.309  1.00  0.00     0.055 A 
HETATM   29  C   UNL     1     -45.905  62.270 -48.013  1.00  0.00     0.058 A 
HETATM   30 CL   UNL     1     -47.085  61.948 -46.790  1.00  0.00    -0.082 Cl
HETATM   31  C   UNL     1     -45.858  63.488 -48.699  1.00  0.00     0.055 A 
HETATM   32 CL   UNL     1     -46.961  64.778 -48.384  1.00  0.00    -0.083 Cl
HETATM   33  C   UNL     1     -44.889  63.686 -49.683  1.00  0.00     0.028 A 
HETATM   34  C   UNL     1     -43.967  62.676 -49.977  1.00  0.00     0.031 A 
ENDBRANCH  23  27
ENDBRANCH   2  21
TORSDOF 4
ENDMDL
MODEL 7
REMARK VINA RESULT:      -8.5      2.178      4.722
REMARK  4 active torsions:
REMARK  status: ('A' for Active; 'I' for Inactive)
REMARK    1  A    between atoms: C_6  and  C_7 
REMARK    2  A    between atoms: C_14  and  C_15 
REMARK       I    between atoms: C_15  and  N_16 
REMARK    3  A    between atoms: N_16  and  N_17 
REMARK       I    between atoms: N_17  and  C_18 
REMARK       I    between atoms: C_18  and  N_19 
REMARK    4  A    between atoms: N_19  and  C_20 
ROOT
HETATM    1  C   UNL     1     -42.832  56.694 -56.246  1.00  0.00     0.271 C 
HETATM    2  N   UNL     1     -43.817  56.126 -57.021  1.00  0.00    -0.262 N 
HETATM    3  O   UNL     1     -42.115  57.613 -56.626  1.00  0.00    -0.266 OA
HETATM    4  H   UNL     1     -44.430  55.368 -56.721  1.00  0.00     0.190 HD
ENDROOT
BRANCH   1   5
HETATM    5  C   UNL     1     -42.691  56.106 -54.894  1.00  0.00     0.048 A 
HETATM    6  C   UNL     1     -43.336  56.679 -53.778  1.00  0.00     0.009 A 
HETATM    7  C   UNL     1     -44.149  57.841 -53.812  1.00  0.00     0.015 A 
HETATM    8  C   UNL     1     -43.157  56.008 -52.556  1.00  0.00     0.068 A 
HETATM    9  C   UNL     1     -44.766  58.321 -52.657  1.00  0.00     0.001 A 
HETATM   10  C   UNL     1     -44.582  57.650 -51.457  1.00  0.00     0.002 A 
HETATM   11  C   UNL     1     -43.782  56.505 -51.421  1.00  0.00     0.032 A 
HETATM   12  N   UNL     1     -42.413  54.894 -52.437  1.00  0.00    -0.248 NA
HETATM   13  C   UNL     1     -41.781  54.373 -53.518  1.00  0.00     0.070 A 
HETATM   14  C   UNL     1     -41.908  54.955 -54.769  1.00  0.00     0.050 A 
BRANCH  13  15
HETATM   15  C   UNL     1     -40.990  53.156 -53.266  1.00  0.00     0.010 A 
HETATM   16  C   UNL     1     -40.431  52.856 -52.021  1.00  0.00     0.130 A 
HETATM   17  N   UNL     1     -39.682  51.760 -51.741  1.00  0.00    -0.272 NA
HETATM   18  C   UNL     1     -39.480  50.892 -52.753  1.00  0.00     0.116 A 
HETATM   19  C   UNL     1     -39.992  51.069 -54.025  1.00  0.00     0.020 A 
HETATM   20  C   UNL     1     -40.752  52.210 -54.276  1.00  0.00     0.017 A 
ENDBRANCH  13  15
ENDBRANCH   1   5
BRANCH   2  21
HETATM   21  N   UNL     1     -44.033  56.626 -58.312  1.00  0.00    -0.249 N 
HETATM   22  C   UNL     1     -45.115  57.480 -58.471  1.00  0.00     0.339 C 
HETATM   23  N   UNL     1     -45.275  57.857 -59.786  1.00  0.00    -0.308 N 
HETATM   24  O   UNL     1     -45.777  57.854 -57.508  1.00  0.00    -0.245 OA
HETATM   25  H   UNL     1     -44.525  57.587 -60.407  1.00  0.00     0.170 HD
HETATM   26  H   UNL     1     -43.783  55.980 -59.059  1.00  0.00     0.192 HD
BRANCH  23  27
HETATM   27  C   UNL     1     -46.263  58.710 -60.316  1.00  0.00     0.038 A 
HETATM   28  C   UNL     1     -47.401  58.261 -60.992  1.00  0.00     0.055 A 
HETATM   29  C   UNL     1     -48.347  59.172 -61.481  1.00  0.00     0.058 A 
HETATM   30 CL   UNL     1     -49.729  58.535 -62.304  1.00  0.00    -0.082 Cl
HETATM   31  C   UNL     1     -48.157  60.545 -61.298  1.00  0.00     0.055 A 
HETATM   32 CL   UNL     1     -49.282  61.725 -61.866  1.00  0.00    -0.083 Cl
HETATM   33  C   UNL     1     -47.017  61.000 -60.634  1.00  0.00     0.028 A 
HETATM   34  C   UNL     1     -46.075  60.088 -60.149  1.00  0.00     0.031 A 
ENDBRANCH  23  27
ENDBRANCH   2  21
TORSDOF 4
ENDMDL
MODEL 8
REMARK VINA RESULT:      -8.4      4.576      8.888
REMARK  4 active torsions:
REMARK  status: ('A' for Active; 'I' for Inactive)
REMARK    1  A    between atoms: C_6  and  C_7 
REMARK    2  A    between atoms: C_14  and  C_15 
REMARK       I    between atoms: C_15  and  N_16 
REMARK    3  A    between atoms: N_16  and  N_17 
REMARK       I    between atoms: N_17  and  C_18 
REMARK       I    between atoms: C_18  and  N_19 
REMARK    4  A    between atoms: N_19  and  C_20 
ROOT
HETATM    1  C   UNL     1     -41.878  58.325 -53.458  1.00  0.00     0.271 C 
HETATM    2  N   UNL     1     -42.984  58.637 -52.701  1.00  0.00    -0.262 N 
HETATM    3  O   UNL     1     -40.821  58.943 -53.402  1.00  0.00    -0.266 OA
HETATM    4  H   UNL     1     -43.869  58.130 -52.726  1.00  0.00     0.190 HD
ENDROOT
BRANCH   1   5
HETATM    5  C   UNL     1     -42.056  57.169 -54.366  1.00  0.00     0.048 A 
HETATM    6  C   UNL     1     -41.696  55.865 -53.967  1.00  0.00     0.009 A 
HETATM    7  C   UNL     1     -41.137  55.520 -52.709  1.00  0.00     0.015 A 
HETATM    8  C   UNL     1     -41.949  54.846 -54.902  1.00  0.00     0.068 A 
HETATM    9  C   UNL     1     -40.835  54.196 -52.395  1.00  0.00     0.001 A 
HETATM   10  C   UNL     1     -41.088  53.200 -53.327  1.00  0.00     0.002 A 
HETATM   11  C   UNL     1     -41.640  53.536 -54.565  1.00  0.00     0.032 A 
HETATM   12  N   UNL     1     -42.488  55.082 -56.112  1.00  0.00    -0.248 NA
HETATM   13  C   UNL     1     -42.803  56.347 -56.485  1.00  0.00     0.070 A 
HETATM   14  C   UNL     1     -42.605  57.416 -55.628  1.00  0.00     0.050 A 
BRANCH  13  15
HETATM   15  C   UNL     1     -43.381  56.485 -57.834  1.00  0.00     0.010 A 
HETATM   16  C   UNL     1     -43.979  57.662 -58.290  1.00  0.00     0.130 A 
HETATM   17  N   UNL     1     -44.540  57.834 -59.514  1.00  0.00    -0.272 NA
HETATM   18  C   UNL     1     -44.497  56.779 -60.352  1.00  0.00     0.116 A 
HETATM   19  C   UNL     1     -43.919  55.566 -60.024  1.00  0.00     0.020 A 
HETATM   20  C   UNL     1     -43.358  55.425 -58.756  1.00  0.00     0.017 A 
ENDBRANCH  13  15
ENDBRANCH   1   5
BRANCH   2  21
HETATM   21  N   UNL     1     -42.906  59.709 -51.802  1.00  0.00    -0.249 N 
HETATM   22  C   UNL     1     -43.998  59.895 -50.967  1.00  0.00     0.339 C 
HETATM   23  N   UNL     1     -43.845  61.011 -50.173  1.00  0.00    -0.308 N 
HETATM   24  O   UNL     1     -44.930  59.098 -50.950  1.00  0.00    -0.245 OA
HETATM   25  H   UNL     1     -42.931  61.441 -50.205  1.00  0.00     0.170 HD
HETATM   26  H   UNL     1     -42.394  60.516 -52.155  1.00  0.00     0.192 HD
BRANCH  23  27
HETATM   27  C   UNL     1     -44.749  61.507 -49.212  1.00  0.00     0.038 A 
HETATM   28  C   UNL     1     -45.900  62.234 -49.526  1.00  0.00     0.055 A 
HETATM   29  C   UNL     1     -46.758  62.683 -48.513  1.00  0.00     0.058 A 
HETATM   30 CL   UNL     1     -48.164  63.575 -48.984  1.00  0.00    -0.082 Cl
HETATM   31  C   UNL     1     -46.465  62.410 -47.173  1.00  0.00     0.055 A 
HETATM   32 CL   UNL     1     -47.478  62.925 -45.874  1.00  0.00    -0.083 Cl
HETATM   33  C   UNL     1     -45.311  61.693 -46.854  1.00  0.00     0.028 A 
HETATM   34  C   UNL     1     -44.456  61.248 -47.867  1.00  0.00     0.031 A 
ENDBRANCH  23  27
ENDBRANCH   2  21
TORSDOF 4
ENDMDL
MODEL 9
REMARK VINA RESULT:      -8.4      2.193      5.083
REMARK  4 active torsions:
REMARK  status: ('A' for Active; 'I' for Inactive)
REMARK    1  A    between atoms: C_6  and  C_7 
REMARK    2  A    between atoms: C_14  and  C_15 
REMARK       I    between atoms: C_15  and  N_16 
REMARK    3  A    between atoms: N_16  and  N_17 
REMARK       I    between atoms: N_17  and  C_18 
REMARK       I    between atoms: C_18  and  N_19 
REMARK    4  A    between atoms: N_19  and  C_20 
ROOT
HETATM    1  C   UNL     1     -43.171  56.153 -55.071  1.00  0.00     0.271 C 
HETATM    2  N   UNL     1     -42.776  55.768 -56.331  1.00  0.00    -0.262 N 
HETATM    3  O   UNL     1     -44.141  56.872 -54.854  1.00  0.00    -0.266 OA
HETATM    4  H   UNL     1     -41.979  55.163 -56.533  1.00  0.00     0.190 HD
ENDROOT
BRANCH   1   5
HETATM    5  C   UNL     1     -42.328  55.632 -53.971  1.00  0.00     0.048 A 
HETATM    6  C   UNL     1     -42.021  56.427 -52.847  1.00  0.00     0.009 A 
HETATM    7  C   UNL     1     -42.453  57.763 -52.649  1.00  0.00     0.015 A 
HETATM    8  C   UNL     1     -41.244  55.807 -51.853  1.00  0.00     0.068 A 
HETATM    9  C   UNL     1     -42.118  58.463 -51.491  1.00  0.00     0.001 A 
HETATM   10  C   UNL     1     -41.351  57.841 -50.517  1.00  0.00     0.002 A 
HETATM   11  C   UNL     1     -40.925  56.525 -50.709  1.00  0.00     0.032 A 
HETATM   12  N   UNL     1     -40.803  54.540 -51.954  1.00  0.00    -0.248 NA
HETATM   13  C   UNL     1     -41.089  53.802 -53.055  1.00  0.00     0.070 A 
HETATM   14  C   UNL     1     -41.860  54.319 -54.082  1.00  0.00     0.050 A 
BRANCH  13  15
HETATM   15  C   UNL     1     -40.547  52.431 -53.057  1.00  0.00     0.010 A 
HETATM   16  C   UNL     1     -39.951  51.847 -51.938  1.00  0.00     0.130 A 
HETATM   17  N   UNL     1     -39.423  50.597 -51.893  1.00  0.00    -0.272 NA
HETATM   18  C   UNL     1     -39.498  49.868 -53.024  1.00  0.00     0.116 A 
HETATM   19  C   UNL     1     -40.077  50.329 -54.192  1.00  0.00     0.020 A 
HETATM   20  C   UNL     1     -40.605  51.619 -54.202  1.00  0.00     0.017 A 
ENDBRANCH  13  15
ENDBRANCH   1   5
BRANCH   2  21
HETATM   21  N   UNL     1     -43.522  56.201 -57.436  1.00  0.00    -0.249 N 
HETATM   22  C   UNL     1     -43.006  57.274 -58.147  1.00  0.00     0.339 C 
HETATM   23  N   UNL     1     -43.848  57.659 -59.167  1.00  0.00    -0.308 N 
HETATM   24  O   UNL     1     -41.905  57.744 -57.880  1.00  0.00    -0.245 OA
HETATM   25  H   UNL     1     -44.627  57.039 -59.341  1.00  0.00     0.170 HD
HETATM   26  H   UNL     1     -44.529  56.104 -57.325  1.00  0.00     0.192 HD
BRANCH  23  27
HETATM   27  C   UNL     1     -43.652  58.707 -60.088  1.00  0.00     0.038 A 
HETATM   28  C   UNL     1     -44.690  59.447 -60.662  1.00  0.00     0.055 A 
HETATM   29  C   UNL     1     -44.414  60.485 -61.562  1.00  0.00     0.058 A 
HETATM   30 CL   UNL     1     -45.754  61.353 -62.227  1.00  0.00    -0.082 Cl
HETATM   31  C   UNL     1     -43.091  60.787 -61.899  1.00  0.00     0.055 A 
HETATM   32 CL   UNL     1     -42.674  62.054 -62.995  1.00  0.00    -0.083 Cl
HETATM   33  C   UNL     1     -42.051  60.044 -61.338  1.00  0.00     0.028 A 
HETATM   34  C   UNL     1     -42.330  59.009 -60.441  1.00  0.00     0.031 A 
ENDBRANCH  23  27
ENDBRANCH   2  21
TORSDOF 4
ENDMDL
MODEL 10
REMARK VINA RESULT:      -8.2     17.200     20.128
REMARK  4 active torsions:
REMARK  status: ('A' for Active; 'I' for Inactive)
REMARK    1  A    between atoms: C_6  and  C_7 
REMARK    2  A    between atoms: C_14  and  C_15 
REMARK       I    between atoms: C_15  and  N_16 
REMARK    3  A    between atoms: N_16  and  N_17 
REMARK       I    between atoms: N_17  and  C_18 
REMARK       I    between atoms: C_18  and  N_19 
REMARK    4  A    between atoms: N_19  and  C_20 
ROOT
HETATM    1  C   UNL     1     -33.185  40.533 -50.763  1.00  0.00     0.271 C 
HETATM    2  N   UNL     1     -32.537  40.028 -51.867  1.00  0.00    -0.262 N 
HETATM    3  O   UNL     1     -33.811  41.588 -50.767  1.00  0.00    -0.266 OA
HETATM    4  H   UNL     1     -32.020  39.150 -51.888  1.00  0.00     0.190 HD
ENDROOT
BRANCH   1   5
HETATM    5  C   UNL     1     -33.071  39.701 -49.544  1.00  0.00     0.048 A 
HETATM    6  C   UNL     1     -34.079  38.780 -49.191  1.00  0.00     0.009 A 
HETATM    7  C   UNL     1     -35.275  38.559 -49.922  1.00  0.00     0.015 A 
HETATM    8  C   UNL     1     -33.838  38.021 -48.033  1.00  0.00     0.068 A 
HETATM    9  C   UNL     1     -36.206  37.608 -49.506  1.00  0.00     0.001 A 
HETATM   10  C   UNL     1     -35.956  36.865 -48.361  1.00  0.00     0.002 A 
HETATM   11  C   UNL     1     -34.779  37.080 -47.641  1.00  0.00     0.032 A 
HETATM   12  N   UNL     1     -32.726  38.158 -47.289  1.00  0.00    -0.248 NA
HETATM   13  C   UNL     1     -31.780  39.067 -47.632  1.00  0.00     0.070 A 
HETATM   14  C   UNL     1     -31.920  39.852 -48.764  1.00  0.00     0.050 A 
BRANCH  13  15
HETATM   15  C   UNL     1     -30.609  39.133 -46.739  1.00  0.00     0.010 A 
HETATM   16  C   UNL     1     -30.010  40.335 -46.356  1.00  0.00     0.130 A 
HETATM   17  N   UNL     1     -28.924  40.448 -45.551  1.00  0.00    -0.272 NA
HETATM   18  C   UNL     1     -28.398  39.299 -45.080  1.00  0.00     0.116 A 
HETATM   19  C   UNL     1     -28.909  38.049 -45.375  1.00  0.00     0.020 A 
HETATM   20  C   UNL     1     -30.023  37.972 -46.209  1.00  0.00     0.017 A 
ENDBRANCH  13  15
ENDBRANCH   1   5
BRANCH   2  21
HETATM   21  N   UNL     1     -32.601  40.741 -53.073  1.00  0.00    -0.249 N 
HETATM   22  C   UNL     1     -33.657  40.432 -53.918  1.00  0.00     0.339 C 
HETATM   23  N   UNL     1     -33.586  41.139 -55.098  1.00  0.00    -0.308 N 
HETATM   24  O   UNL     1     -34.539  39.652 -53.575  1.00  0.00    -0.245 OA
HETATM   25  H   UNL     1     -32.883  41.865 -55.124  1.00  0.00     0.170 HD
HETATM   26  H   UNL     1     -31.693  40.984 -53.464  1.00  0.00     0.192 HD
BRANCH  23  27
HETATM   27  C   UNL     1     -34.481  41.081 -56.185  1.00  0.00     0.038 A 
HETATM   28  C   UNL     1     -34.629  39.966 -57.015  1.00  0.00     0.055 A 
HETATM   29  C   UNL     1     -35.551  39.979 -58.070  1.00  0.00     0.058 A 
HETATM   30 CL   UNL     1     -35.675  38.559 -59.050  1.00  0.00    -0.082 Cl
HETATM   31  C   UNL     1     -36.331  41.115 -58.304  1.00  0.00     0.055 A 
HETATM   32 CL   UNL     1     -37.492  41.202 -59.580  1.00  0.00    -0.083 Cl
HETATM   33  C   UNL     1     -36.180  42.236 -57.485  1.00  0.00     0.028 A 
HETATM   34  C   UNL     1     -35.258  42.219 -56.434  1.00  0.00     0.031 A 
ENDBRANCH  23  27
ENDBRANCH   2  21
TORSDOF 4
ENDMDL
