MODEL 1
REMARK VINA RESULT:      -7.9      0.000      0.000
REMARK  6 active torsions:
REMARK  status: ('A' for Active; 'I' for Inactive)
REMARK    1  A    between atoms: C_3  and  N_4 
REMARK    2  A    between atoms: N_4  and  C_5 
REMARK    3  A    between atoms: C_5  and  C_6 
REMARK    4  A    between atoms: N_8  and  C_10 
REMARK    5  A    between atoms: C_10  and  C_11 
REMARK    6  A    between atoms: C_12  and  C_13 
ROOT
HETATM    1  C   UNL     1     -41.494  54.526 -51.059  1.00  0.00     0.031 C 
HETATM    2  C   UNL     1     -41.806  55.736 -50.179  1.00  0.00     0.241 C 
HETATM    3  N   UNL     1     -43.137  56.255 -50.689  1.00  0.00    -0.067 N 
HETATM    4  H   UNL     1     -43.794  56.278 -49.896  1.00  0.00     0.280 HD
HETATM    5  C   UNL     1     -43.671  55.259 -51.692  1.00  0.00     0.235 C 
HETATM    6  C   UNL     1     -42.883  53.993 -51.401  1.00  0.00     0.035 C 
ENDROOT
BRANCH   3   7
HETATM    7  C   UNL     1     -43.123  57.672 -51.219  1.00  0.00     0.277 C 
BRANCH   7   8
HETATM    8  C   UNL     1     -41.798  58.137 -51.701  1.00  0.00     0.016 A 
HETATM    9  C   UNL     1     -41.221  57.876 -52.990  1.00  0.00     0.102 A 
HETATM   10  N   UNL     1     -40.005  58.424 -53.078  1.00  0.00    -0.174 NA
HETATM   11  N   UNL     1     -39.819  59.077 -51.931  1.00  0.00    -0.288 N 
HETATM   12  H   UNL     1     -38.956  59.605 -51.815  1.00  0.00     0.188 HD
HETATM   13  C   UNL     1     -40.859  58.926 -51.057  1.00  0.00     0.120 A 
BRANCH   9  14
HETATM   14  C   UNL     1     -41.790  57.161 -54.128  1.00  0.00     0.072 A 
HETATM   15  C   UNL     1     -41.297  55.909 -54.506  1.00  0.00     0.132 A 
HETATM   16  F   UNL     1     -40.237  55.382 -53.873  1.00  0.00    -0.205 F 
HETATM   17  C   UNL     1     -41.865  55.187 -55.556  1.00  0.00     0.043 A 
HETATM   18  C   UNL     1     -42.948  55.718 -56.253  1.00  0.00     0.006 A 
HETATM   19  C   UNL     1     -43.445  56.973 -55.903  1.00  0.00     0.043 A 
HETATM   20  C   UNL     1     -42.866  57.684 -54.850  1.00  0.00     0.132 A 
HETATM   21  F   UNL     1     -43.339  58.910 -54.581  1.00  0.00    -0.205 F 
ENDBRANCH   9  14
ENDBRANCH   7   8
ENDBRANCH   3   7
BRANCH   1  22
HETATM   22  C   UNL     1     -40.593  53.501 -50.356  1.00  0.00     0.127 C 
BRANCH  22  23
HETATM   23  N   UNL     1     -39.501  53.090 -51.248  1.00  0.00    -0.376 N 
HETATM   24  H   UNL     1     -38.588  53.110 -50.799  1.00  0.00     0.161 HD
BRANCH  23  25
HETATM   25  C   UNL     1     -39.699  52.044 -52.142  1.00  0.00     0.100 A 
HETATM   26  C   UNL     1     -40.052  52.212 -53.489  1.00  0.00     0.048 A 
HETATM   27  C   UNL     1     -40.201  51.104 -54.323  1.00  0.00     0.005 A 
HETATM   28  C   UNL     1     -39.986  49.830 -53.819  1.00  0.00     0.017 A 
HETATM   29  C   UNL     1     -39.613  49.699 -52.492  1.00  0.00     0.089 A 
HETATM   30  N   UNL     1     -39.476  50.786 -51.717  1.00  0.00    -0.353 N 
HETATM   31  H   UNL     1     -39.177  50.648 -50.757  1.00  0.00     0.166 HD
ENDBRANCH  23  25
ENDBRANCH  22  23
ENDBRANCH   1  22
TORSDOF 6
ENDMDL
MODEL 2
REMARK VINA RESULT:      -7.7      1.902      2.482
REMARK  6 active torsions:
REMARK  status: ('A' for Active; 'I' for Inactive)
REMARK    1  A    between atoms: C_3  and  N_4 
REMARK    2  A    between atoms: N_4  and  C_5 
REMARK    3  A    between atoms: C_5  and  C_6 
REMARK    4  A    between atoms: N_8  and  C_10 
REMARK    5  A    between atoms: C_10  and  C_11 
REMARK    6  A    between atoms: C_12  and  C_13 
ROOT
HETATM    1  C   UNL     1     -42.024  54.751 -51.015  1.00  0.00     0.031 C 
HETATM    2  C   UNL     1     -41.570  56.142 -50.575  1.00  0.00     0.241 C 
HETATM    3  N   UNL     1     -42.818  57.000 -50.649  1.00  0.00    -0.067 N 
HETATM    4  H   UNL     1     -42.966  57.426 -49.723  1.00  0.00     0.280 HD
HETATM    5  C   UNL     1     -43.992  56.090 -50.924  1.00  0.00     0.235 C 
HETATM    6  C   UNL     1     -43.478  54.711 -50.550  1.00  0.00     0.035 C 
ENDROOT
BRANCH   3   7
HETATM    7  C   UNL     1     -42.747  58.172 -51.603  1.00  0.00     0.277 C 
BRANCH   7   8
HETATM    8  C   UNL     1     -43.725  58.117 -52.720  1.00  0.00     0.016 A 
HETATM    9  C   UNL     1     -43.664  57.252 -53.864  1.00  0.00     0.102 A 
HETATM   10  N   UNL     1     -44.693  57.487 -54.683  1.00  0.00    -0.174 NA
HETATM   11  N   UNL     1     -45.437  58.409 -54.074  1.00  0.00    -0.288 N 
HETATM   12  H   UNL     1     -46.305  58.697 -54.523  1.00  0.00     0.188 HD
HETATM   13  C   UNL     1     -44.895  58.837 -52.895  1.00  0.00     0.120 A 
BRANCH   9  14
HETATM   14  C   UNL     1     -42.692  56.212 -54.183  1.00  0.00     0.072 A 
HETATM   15  C   UNL     1     -43.101  54.894 -54.410  1.00  0.00     0.132 A 
HETATM   16  F   UNL     1     -44.390  54.552 -54.257  1.00  0.00    -0.205 F 
HETATM   17  C   UNL     1     -42.192  53.899 -54.770  1.00  0.00     0.043 A 
HETATM   18  C   UNL     1     -40.842  54.214 -54.909  1.00  0.00     0.006 A 
HETATM   19  C   UNL     1     -40.410  55.519 -54.671  1.00  0.00     0.043 A 
HETATM   20  C   UNL     1     -41.331  56.504 -54.310  1.00  0.00     0.132 A 
HETATM   21  F   UNL     1     -40.867  57.733 -54.039  1.00  0.00    -0.205 F 
ENDBRANCH   9  14
ENDBRANCH   7   8
ENDBRANCH   3   7
BRANCH   1  22
HETATM   22  C   UNL     1     -41.153  53.632 -50.425  1.00  0.00     0.127 C 
BRANCH  22  23
HETATM   23  N   UNL     1     -40.065  53.295 -51.352  1.00  0.00    -0.376 N 
HETATM   24  H   UNL     1     -39.199  53.788 -51.149  1.00  0.00     0.161 HD
BRANCH  23  25
HETATM   25  C   UNL     1     -39.912  51.982 -51.785  1.00  0.00     0.100 A 
HETATM   26  C   UNL     1     -39.786  51.604 -53.130  1.00  0.00     0.048 A 
HETATM   27  C   UNL     1     -39.605  50.264 -53.473  1.00  0.00     0.005 A 
HETATM   28  C   UNL     1     -39.537  49.303 -52.474  1.00  0.00     0.017 A 
HETATM   29  C   UNL     1     -39.638  49.711 -51.156  1.00  0.00     0.089 A 
HETATM   30  N   UNL     1     -39.809  51.009 -50.861  1.00  0.00    -0.353 N 
HETATM   31  H   UNL     1     -39.854  51.270 -49.880  1.00  0.00     0.166 HD
ENDBRANCH  23  25
ENDBRANCH  22  23
ENDBRANCH   1  22
TORSDOF 6
ENDMDL
MODEL 3
REMARK VINA RESULT:      -7.7      3.152      6.667
REMARK  6 active torsions:
REMARK  status: ('A' for Active; 'I' for Inactive)
REMARK    1  A    between atoms: C_3  and  N_4 
REMARK    2  A    between atoms: N_4  and  C_5 
REMARK    3  A    between atoms: C_5  and  C_6 
REMARK    4  A    between atoms: N_8  and  C_10 
REMARK    5  A    between atoms: C_10  and  C_11 
REMARK    6  A    between atoms: C_12  and  C_13 
ROOT
HETATM    1  C   UNL     1     -42.264  57.833 -56.020  1.00  0.00     0.031 C 
HETATM    2  C   UNL     1     -43.011  57.118 -54.896  1.00  0.00     0.241 C 
HETATM    3  N   UNL     1     -42.507  57.763 -53.620  1.00  0.00    -0.067 N 
HETATM    4  H   UNL     1     -43.320  58.125 -53.103  1.00  0.00     0.280 HD
HETATM    5  C   UNL     1     -41.651  58.948 -54.005  1.00  0.00     0.235 C 
HETATM    6  C   UNL     1     -42.050  59.231 -55.443  1.00  0.00     0.035 C 
ENDROOT
BRANCH   3   7
HETATM    7  C   UNL     1     -41.816  56.832 -52.648  1.00  0.00     0.277 C 
BRANCH   7   8
HETATM    8  C   UNL     1     -42.728  55.916 -51.917  1.00  0.00     0.016 A 
HETATM    9  C   UNL     1     -42.630  54.485 -51.860  1.00  0.00     0.102 A 
HETATM   10  N   UNL     1     -43.632  53.976 -51.135  1.00  0.00    -0.174 NA
HETATM   11  N   UNL     1     -44.313  55.025 -50.674  1.00  0.00    -0.288 N 
HETATM   12  H   UNL     1     -45.102  54.849 -50.055  1.00  0.00     0.188 HD
HETATM   13  C   UNL     1     -43.825  56.218 -51.126  1.00  0.00     0.120 A 
BRANCH   9  14
HETATM   14  C   UNL     1     -41.621  53.605 -52.438  1.00  0.00     0.072 A 
HETATM   15  C   UNL     1     -40.630  53.028 -51.638  1.00  0.00     0.132 A 
HETATM   16  F   UNL     1     -40.547  53.341 -50.335  1.00  0.00    -0.205 F 
HETATM   17  C   UNL     1     -39.691  52.141 -52.164  1.00  0.00     0.043 A 
HETATM   18  C   UNL     1     -39.731  51.815 -53.519  1.00  0.00     0.006 A 
HETATM   19  C   UNL     1     -40.701  52.393 -54.338  1.00  0.00     0.043 A 
HETATM   20  C   UNL     1     -41.634  53.279 -53.797  1.00  0.00     0.132 A 
HETATM   21  F   UNL     1     -42.516  53.852 -54.629  1.00  0.00    -0.205 F 
ENDBRANCH   9  14
ENDBRANCH   7   8
ENDBRANCH   3   7
BRANCH   1  22
HETATM   22  C   UNL     1     -43.039  57.822 -57.345  1.00  0.00     0.127 C 
BRANCH  22  23
HETATM   23  N   UNL     1     -43.278  56.439 -57.780  1.00  0.00    -0.376 N 
HETATM   24  H   UNL     1     -43.322  55.778 -57.008  1.00  0.00     0.161 HD
BRANCH  23  25
HETATM   25  C   UNL     1     -44.161  56.190 -58.825  1.00  0.00     0.100 A 
HETATM   26  C   UNL     1     -43.916  55.283 -59.867  1.00  0.00     0.048 A 
HETATM   27  C   UNL     1     -44.874  55.073 -60.859  1.00  0.00     0.005 A 
HETATM   28  C   UNL     1     -46.080  55.755 -60.805  1.00  0.00     0.017 A 
HETATM   29  C   UNL     1     -46.303  56.623 -59.750  1.00  0.00     0.089 A 
HETATM   30  N   UNL     1     -45.361  56.801 -58.811  1.00  0.00    -0.353 N 
HETATM   31  H   UNL     1     -45.573  57.427 -58.040  1.00  0.00     0.166 HD
ENDBRANCH  23  25
ENDBRANCH  22  23
ENDBRANCH   1  22
TORSDOF 6
ENDMDL
MODEL 4
REMARK VINA RESULT:      -7.6      2.826      6.169
REMARK  6 active torsions:
REMARK  status: ('A' for Active; 'I' for Inactive)
REMARK    1  A    between atoms: C_3  and  N_4 
REMARK    2  A    between atoms: N_4  and  C_5 
REMARK    3  A    between atoms: C_5  and  C_6 
REMARK    4  A    between atoms: N_8  and  C_10 
REMARK    5  A    between atoms: C_10  and  C_11 
REMARK    6  A    between atoms: C_12  and  C_13 
ROOT
HETATM    1  C   UNL     1     -42.734  56.134 -54.444  1.00  0.00     0.031 C 
HETATM    2  C   UNL     1     -43.740  55.193 -53.781  1.00  0.00     0.241 C 
HETATM    3  N   UNL     1     -43.479  55.330 -52.293  1.00  0.00    -0.067 N 
HETATM    4  H   UNL     1     -44.361  55.604 -51.839  1.00  0.00     0.280 HD
HETATM    5  C   UNL     1     -42.496  56.462 -52.096  1.00  0.00     0.235 C 
HETATM    6  C   UNL     1     -42.568  57.236 -53.400  1.00  0.00     0.035 C 
ENDROOT
BRANCH   3   7
HETATM    7  C   UNL     1     -43.060  54.060 -51.586  1.00  0.00     0.277 C 
BRANCH   7   8
HETATM    8  C   UNL     1     -41.824  54.186 -50.772  1.00  0.00     0.016 A 
HETATM    9  C   UNL     1     -40.592  53.481 -50.981  1.00  0.00     0.102 A 
HETATM   10  N   UNL     1     -39.696  53.816 -50.048  1.00  0.00    -0.174 NA
HETATM   11  N   UNL     1     -40.284  54.753 -49.303  1.00  0.00    -0.288 N 
HETATM   12  H   UNL     1     -39.743  55.176 -48.552  1.00  0.00     0.188 HD
HETATM   13  C   UNL     1     -41.572  55.004 -49.683  1.00  0.00     0.120 A 
BRANCH   9  14
HETATM   14  C   UNL     1     -40.236  52.537 -52.036  1.00  0.00     0.072 A 
HETATM   15  C   UNL     1     -39.931  51.207 -51.733  1.00  0.00     0.132 A 
HETATM   16  F   UNL     1     -39.883  50.798 -50.456  1.00  0.00    -0.205 F 
HETATM   17  C   UNL     1     -39.643  50.278 -52.734  1.00  0.00     0.043 A 
HETATM   18  C   UNL     1     -39.655  50.675 -54.070  1.00  0.00     0.006 A 
HETATM   19  C   UNL     1     -39.941  52.002 -54.392  1.00  0.00     0.043 A 
HETATM   20  C   UNL     1     -40.227  52.920 -53.380  1.00  0.00     0.132 A 
HETATM   21  F   UNL     1     -40.444  54.197 -53.729  1.00  0.00    -0.205 F 
ENDBRANCH   9  14
ENDBRANCH   7   8
ENDBRANCH   3   7
BRANCH   1  22
HETATM   22  C   UNL     1     -43.213  56.641 -55.811  1.00  0.00     0.127 C 
BRANCH  22  23
HETATM   23  N   UNL     1     -42.563  55.884 -56.889  1.00  0.00    -0.376 N 
HETATM   24  H   UNL     1     -42.123  55.026 -56.566  1.00  0.00     0.161 HD
BRANCH  23  25
HETATM   25  C   UNL     1     -43.171  55.804 -58.137  1.00  0.00     0.100 A 
HETATM   26  C   UNL     1     -42.981  56.736 -59.169  1.00  0.00     0.048 A 
HETATM   27  C   UNL     1     -43.608  56.561 -60.402  1.00  0.00     0.005 A 
HETATM   28  C   UNL     1     -44.413  55.451 -60.612  1.00  0.00     0.017 A 
HETATM   29  C   UNL     1     -44.560  54.536 -59.584  1.00  0.00     0.089 A 
HETATM   30  N   UNL     1     -43.940  54.734 -58.410  1.00  0.00    -0.353 N 
HETATM   31  H   UNL     1     -44.053  54.026 -57.690  1.00  0.00     0.166 HD
ENDBRANCH  23  25
ENDBRANCH  22  23
ENDBRANCH   1  22
TORSDOF 6
ENDMDL
MODEL 5
REMARK VINA RESULT:      -7.6      2.471      6.413
REMARK  6 active torsions:
REMARK  status: ('A' for Active; 'I' for Inactive)
REMARK    1  A    between atoms: C_3  and  N_4 
REMARK    2  A    between atoms: N_4  and  C_5 
REMARK    3  A    between atoms: C_5  and  C_6 
REMARK    4  A    between atoms: N_8  and  C_10 
REMARK    5  A    between atoms: C_10  and  C_11 
REMARK    6  A    between atoms: C_12  and  C_13 
ROOT
HETATM    1  C   UNL     1     -42.280  56.592 -53.517  1.00  0.00     0.031 C 
HETATM    2  C   UNL     1     -42.699  55.126 -53.623  1.00  0.00     0.241 C 
HETATM    3  N   UNL     1     -43.515  54.863 -52.373  1.00  0.00    -0.067 N 
HETATM    4  H   UNL     1     -44.439  54.512 -52.664  1.00  0.00     0.280 HD
HETATM    5  C   UNL     1     -43.731  56.184 -51.672  1.00  0.00     0.235 C 
HETATM    6  C   UNL     1     -43.442  57.217 -52.747  1.00  0.00     0.035 C 
ENDROOT
BRANCH   3   7
HETATM    7  C   UNL     1     -42.971  53.793 -51.453  1.00  0.00     0.277 C 
BRANCH   7   8
HETATM    8  C   UNL     1     -41.689  54.144 -50.789  1.00  0.00     0.016 A 
HETATM    9  C   UNL     1     -40.476  53.377 -50.822  1.00  0.00     0.102 A 
HETATM   10  N   UNL     1     -39.526  53.974 -50.096  1.00  0.00    -0.174 NA
HETATM   11  N   UNL     1     -40.063  55.116 -49.667  1.00  0.00    -0.288 N 
HETATM   12  H   UNL     1     -39.476  55.746 -49.123  1.00  0.00     0.188 HD
HETATM   13  C   UNL     1     -41.368  55.263 -50.040  1.00  0.00     0.120 A 
BRANCH   9  14
HETATM   14  C   UNL     1     -40.188  52.134 -51.530  1.00  0.00     0.072 A 
HETATM   15  C   UNL     1     -39.944  52.133 -52.907  1.00  0.00     0.132 A 
HETATM   16  F   UNL     1     -40.051  53.270 -53.612  1.00  0.00    -0.205 F 
HETATM   17  C   UNL     1     -39.613  50.962 -53.589  1.00  0.00     0.043 A 
HETATM   18  C   UNL     1     -39.522  49.759 -52.892  1.00  0.00     0.006 A 
HETATM   19  C   UNL     1     -39.778  49.735 -51.521  1.00  0.00     0.043 A 
HETATM   20  C   UNL     1     -40.108  50.915 -50.852  1.00  0.00     0.132 A 
HETATM   21  F   UNL     1     -40.398  50.838 -49.545  1.00  0.00    -0.205 F 
ENDBRANCH   9  14
ENDBRANCH   7   8
ENDBRANCH   3   7
BRANCH   1  22
HETATM   22  C   UNL     1     -42.028  57.235 -54.888  1.00  0.00     0.127 C 
BRANCH  22  23
HETATM   23  N   UNL     1     -43.067  56.822 -55.841  1.00  0.00    -0.376 N 
HETATM   24  H   UNL     1     -43.997  57.143 -55.583  1.00  0.00     0.161 HD
BRANCH  23  25
HETATM   25  C   UNL     1     -42.793  56.830 -57.204  1.00  0.00     0.100 A 
HETATM   26  C   UNL     1     -43.129  55.790 -58.083  1.00  0.00     0.048 A 
HETATM   27  C   UNL     1     -42.843  55.896 -59.444  1.00  0.00     0.005 A 
HETATM   28  C   UNL     1     -42.235  57.044 -59.931  1.00  0.00     0.017 A 
HETATM   29  C   UNL     1     -41.939  58.064 -59.043  1.00  0.00     0.089 A 
HETATM   30  N   UNL     1     -42.230  57.930 -57.739  1.00  0.00    -0.353 N 
HETATM   31  H   UNL     1     -42.021  58.711 -57.125  1.00  0.00     0.166 HD
ENDBRANCH  23  25
ENDBRANCH  22  23
ENDBRANCH   1  22
TORSDOF 6
ENDMDL
MODEL 6
REMARK VINA RESULT:      -7.5      2.136      3.693
REMARK  6 active torsions:
REMARK  status: ('A' for Active; 'I' for Inactive)
REMARK    1  A    between atoms: C_3  and  N_4 
REMARK    2  A    between atoms: N_4  and  C_5 
REMARK    3  A    between atoms: C_5  and  C_6 
REMARK    4  A    between atoms: N_8  and  C_10 
REMARK    5  A    between atoms: C_10  and  C_11 
REMARK    6  A    between atoms: C_12  and  C_13 
ROOT
HETATM    1  C   UNL     1     -41.575  54.962 -54.842  1.00  0.00     0.031 C 
HETATM    2  C   UNL     1     -41.914  55.775 -53.593  1.00  0.00     0.241 C 
HETATM    3  N   UNL     1     -43.424  55.912 -53.616  1.00  0.00    -0.067 N 
HETATM    4  H   UNL     1     -43.790  55.541 -52.728  1.00  0.00     0.280 HD
HETATM    5  C   UNL     1     -43.953  55.036 -54.728  1.00  0.00     0.235 C 
HETATM    6  C   UNL     1     -42.809  54.079 -55.011  1.00  0.00     0.035 C 
ENDROOT
BRANCH   3   7
HETATM    7  C   UNL     1     -43.948  57.330 -53.686  1.00  0.00     0.277 C 
BRANCH   7   8
HETATM    8  C   UNL     1     -43.142  58.244 -54.535  1.00  0.00     0.016 A 
HETATM    9  C   UNL     1     -42.120  59.145 -54.083  1.00  0.00     0.102 A 
HETATM   10  N   UNL     1     -41.618  59.836 -55.111  1.00  0.00    -0.174 NA
HETATM   11  N   UNL     1     -42.225  59.360 -56.198  1.00  0.00    -0.288 N 
HETATM   12  H   UNL     1     -41.946  59.732 -57.104  1.00  0.00     0.188 HD
HETATM   13  C   UNL     1     -43.165  58.411 -55.910  1.00  0.00     0.120 A 
BRANCH   9  14
HETATM   14  C   UNL     1     -41.598  59.348 -52.736  1.00  0.00     0.072 A 
HETATM   15  C   UNL     1     -40.313  58.917 -52.393  1.00  0.00     0.132 A 
HETATM   16  F   UNL     1     -39.570  58.237 -53.280  1.00  0.00    -0.205 F 
HETATM   17  C   UNL     1     -39.777  59.151 -51.127  1.00  0.00     0.043 A 
HETATM   18  C   UNL     1     -40.532  59.830 -50.172  1.00  0.00     0.006 A 
HETATM   19  C   UNL     1     -41.823  60.254 -50.488  1.00  0.00     0.043 A 
HETATM   20  C   UNL     1     -42.345  60.011 -51.759  1.00  0.00     0.132 A 
HETATM   21  F   UNL     1     -43.609  60.388 -52.004  1.00  0.00    -0.205 F 
ENDBRANCH   9  14
ENDBRANCH   7   8
ENDBRANCH   3   7
BRANCH   1  22
HETATM   22  C   UNL     1     -40.264  54.175 -54.696  1.00  0.00     0.127 C 
BRANCH  22  23
HETATM   23  N   UNL     1     -40.178  53.579 -53.357  1.00  0.00    -0.376 N 
HETATM   24  H   UNL     1     -40.801  54.016 -52.682  1.00  0.00     0.161 HD
BRANCH  23  25
HETATM   25  C   UNL     1     -40.033  52.202 -53.224  1.00  0.00     0.100 A 
HETATM   26  C   UNL     1     -40.190  51.287 -54.276  1.00  0.00     0.048 A 
HETATM   27  C   UNL     1     -39.995  49.923 -54.059  1.00  0.00     0.005 A 
HETATM   28  C   UNL     1     -39.631  49.472 -52.798  1.00  0.00     0.017 A 
HETATM   29  C   UNL     1     -39.459  50.402 -51.788  1.00  0.00     0.089 A 
HETATM   30  N   UNL     1     -39.652  51.708 -52.031  1.00  0.00    -0.353 N 
HETATM   31  H   UNL     1     -39.490  52.360 -51.270  1.00  0.00     0.166 HD
ENDBRANCH  23  25
ENDBRANCH  22  23
ENDBRANCH   1  22
TORSDOF 6
ENDMDL
MODEL 7
REMARK VINA RESULT:      -7.4      3.285      4.450
REMARK  6 active torsions:
REMARK  status: ('A' for Active; 'I' for Inactive)
REMARK    1  A    between atoms: C_3  and  N_4 
REMARK    2  A    between atoms: N_4  and  C_5 
REMARK    3  A    between atoms: C_5  and  C_6 
REMARK    4  A    between atoms: N_8  and  C_10 
REMARK    5  A    between atoms: C_10  and  C_11 
REMARK    6  A    between atoms: C_12  and  C_13 
ROOT
HETATM    1  C   UNL     1     -42.001  55.017 -53.947  1.00  0.00     0.031 C 
HETATM    2  C   UNL     1     -43.475  55.382 -54.111  1.00  0.00     0.241 C 
HETATM    3  N   UNL     1     -43.615  55.796 -55.563  1.00  0.00    -0.067 N 
HETATM    4  H   UNL     1     -44.344  55.209 -55.993  1.00  0.00     0.280 HD
HETATM    5  C   UNL     1     -42.311  55.485 -56.262  1.00  0.00     0.235 C 
HETATM    6  C   UNL     1     -41.628  54.497 -55.333  1.00  0.00     0.035 C 
ENDROOT
BRANCH   3   7
HETATM    7  C   UNL     1     -44.080  57.217 -55.794  1.00  0.00     0.277 C 
BRANCH   7   8
HETATM    8  C   UNL     1     -43.264  57.982 -56.772  1.00  0.00     0.016 A 
HETATM    9  C   UNL     1     -43.337  57.883 -58.202  1.00  0.00     0.102 A 
HETATM   10  N   UNL     1     -42.442  58.696 -58.772  1.00  0.00    -0.174 NA
HETATM   11  N   UNL     1     -41.859  59.353 -57.770  1.00  0.00    -0.288 N 
HETATM   12  H   UNL     1     -41.166  60.063 -58.001  1.00  0.00     0.188 HD
HETATM   13  C   UNL     1     -42.303  58.953 -56.542  1.00  0.00     0.120 A 
BRANCH   9  14
HETATM   14  C   UNL     1     -44.230  57.078 -59.028  1.00  0.00     0.072 A 
HETATM   15  C   UNL     1     -43.758  55.948 -59.702  1.00  0.00     0.132 A 
HETATM   16  F   UNL     1     -42.454  55.634 -59.662  1.00  0.00    -0.205 F 
HETATM   17  C   UNL     1     -44.610  55.136 -60.450  1.00  0.00     0.043 A 
HETATM   18  C   UNL     1     -45.965  55.449 -60.537  1.00  0.00     0.006 A 
HETATM   19  C   UNL     1     -46.453  56.581 -59.885  1.00  0.00     0.043 A 
HETATM   20  C   UNL     1     -45.589  57.385 -59.140  1.00  0.00     0.132 A 
HETATM   21  F   UNL     1     -46.088  58.494 -58.574  1.00  0.00    -0.205 F 
ENDBRANCH   9  14
ENDBRANCH   7   8
ENDBRANCH   3   7
BRANCH   1  22
HETATM   22  C   UNL     1     -41.766  54.001 -52.820  1.00  0.00     0.127 C 
BRANCH  22  23
HETATM   23  N   UNL     1     -40.379  53.518 -52.854  1.00  0.00    -0.376 N 
HETATM   24  H   UNL     1     -39.751  54.063 -52.269  1.00  0.00     0.161 HD
BRANCH  23  25
HETATM   25  C   UNL     1     -40.128  52.151 -52.881  1.00  0.00     0.100 A 
HETATM   26  C   UNL     1     -40.153  51.366 -54.044  1.00  0.00     0.048 A 
HETATM   27  C   UNL     1     -39.858  50.004 -53.982  1.00  0.00     0.005 A 
HETATM   28  C   UNL     1     -39.525  49.427 -52.765  1.00  0.00     0.017 A 
HETATM   29  C   UNL     1     -39.483  50.233 -51.641  1.00  0.00     0.089 A 
HETATM   30  N   UNL     1     -39.770  51.541 -51.735  1.00  0.00    -0.353 N 
HETATM   31  H   UNL     1     -39.703  52.102 -50.892  1.00  0.00     0.166 HD
ENDBRANCH  23  25
ENDBRANCH  22  23
ENDBRANCH   1  22
TORSDOF 6
ENDMDL
MODEL 8
REMARK VINA RESULT:      -7.2      2.496      6.889
REMARK  6 active torsions:
REMARK  status: ('A' for Active; 'I' for Inactive)
REMARK    1  A    between atoms: C_3  and  N_4 
REMARK    2  A    between atoms: N_4  and  C_5 
REMARK    3  A    between atoms: C_5  and  C_6 
REMARK    4  A    between atoms: N_8  and  C_10 
REMARK    5  A    between atoms: C_10  and  C_11 
REMARK    6  A    between atoms: C_12  and  C_13 
ROOT
HETATM    1  C   UNL     1     -41.018  56.510 -51.071  1.00  0.00     0.031 C 
HETATM    2  C   UNL     1     -42.102  56.342 -52.135  1.00  0.00     0.241 C 
HETATM    3  N   UNL     1     -42.852  55.087 -51.732  1.00  0.00    -0.067 N 
HETATM    4  H   UNL     1     -43.848  55.330 -51.631  1.00  0.00     0.280 HD
HETATM    5  C   UNL     1     -42.349  54.662 -50.372  1.00  0.00     0.235 C 
HETATM    6  C   UNL     1     -41.672  55.908 -49.830  1.00  0.00     0.035 C 
ENDROOT
BRANCH   3   7
HETATM    7  C   UNL     1     -42.831  53.962 -52.744  1.00  0.00     0.277 C 
BRANCH   7   8
HETATM    8  C   UNL     1     -41.796  54.101 -53.799  1.00  0.00     0.016 A 
HETATM    9  C   UNL     1     -40.618  53.294 -53.948  1.00  0.00     0.102 A 
HETATM   10  N   UNL     1     -39.894  53.711 -54.990  1.00  0.00    -0.174 NA
HETATM   11  N   UNL     1     -40.596  54.698 -55.547  1.00  0.00    -0.288 N 
HETATM   12  H   UNL     1     -40.230  55.127 -56.395  1.00  0.00     0.188 HD
HETATM   13  C   UNL     1     -41.743  54.987 -54.863  1.00  0.00     0.120 A 
BRANCH   9  14
HETATM   14  C   UNL     1     -40.182  52.144 -53.162  1.00  0.00     0.072 A 
HETATM   15  C   UNL     1     -39.771  52.298 -51.835  1.00  0.00     0.132 A 
HETATM   16  F   UNL     1     -39.697  53.521 -51.288  1.00  0.00    -0.205 F 
HETATM   17  C   UNL     1     -39.404  51.202 -51.053  1.00  0.00     0.043 A 
HETATM   18  C   UNL     1     -39.442  49.920 -51.598  1.00  0.00     0.006 A 
HETATM   19  C   UNL     1     -39.833  49.747 -52.925  1.00  0.00     0.043 A 
HETATM   20  C   UNL     1     -40.198  50.853 -53.696  1.00  0.00     0.132 A 
HETATM   21  F   UNL     1     -40.516  50.648 -54.983  1.00  0.00    -0.205 F 
ENDBRANCH   9  14
ENDBRANCH   7   8
ENDBRANCH   3   7
BRANCH   1  22
HETATM   22  C   UNL     1     -40.584  57.972 -50.897  1.00  0.00     0.127 C 
BRANCH  22  23
HETATM   23  N   UNL     1     -41.597  58.714 -50.135  1.00  0.00    -0.376 N 
HETATM   24  H   UNL     1     -41.317  58.904 -49.175  1.00  0.00     0.161 HD
BRANCH  23  25
HETATM   25  C   UNL     1     -42.317  59.730 -50.754  1.00  0.00     0.100 A 
HETATM   26  C   UNL     1     -42.147  60.115 -52.092  1.00  0.00     0.048 A 
HETATM   27  C   UNL     1     -42.936  61.126 -52.641  1.00  0.00     0.005 A 
HETATM   28  C   UNL     1     -43.903  61.743 -51.860  1.00  0.00     0.017 A 
HETATM   29  C   UNL     1     -44.064  61.323 -50.552  1.00  0.00     0.089 A 
HETATM   30  N   UNL     1     -43.290  60.345 -50.056  1.00  0.00    -0.353 N 
HETATM   31  H   UNL     1     -43.457  60.048 -49.099  1.00  0.00     0.166 HD
ENDBRANCH  23  25
ENDBRANCH  22  23
ENDBRANCH   1  22
TORSDOF 6
ENDMDL
MODEL 9
REMARK VINA RESULT:      -7.1      3.659      7.957
REMARK  6 active torsions:
REMARK  status: ('A' for Active; 'I' for Inactive)
REMARK    1  A    between atoms: C_3  and  N_4 
REMARK    2  A    between atoms: N_4  and  C_5 
REMARK    3  A    between atoms: C_5  and  C_6 
REMARK    4  A    between atoms: N_8  and  C_10 
REMARK    5  A    between atoms: C_10  and  C_11 
REMARK    6  A    between atoms: C_12  and  C_13 
ROOT
HETATM    1  C   UNL     1     -42.454  60.277 -51.204  1.00  0.00     0.031 C 
HETATM    2  C   UNL     1     -43.108  58.982 -51.686  1.00  0.00     0.241 C 
HETATM    3  N   UNL     1     -42.009  57.940 -51.611  1.00  0.00    -0.067 N 
HETATM    4  H   UNL     1     -42.343  57.168 -51.017  1.00  0.00     0.280 HD
HETATM    5  C   UNL     1     -40.821  58.566 -50.918  1.00  0.00     0.235 C 
HETATM    6  C   UNL     1     -41.409  59.774 -50.210  1.00  0.00     0.035 C 
ENDROOT
BRANCH   3   7
HETATM    7  C   UNL     1     -41.643  57.284 -52.924  1.00  0.00     0.277 C 
BRANCH   7   8
HETATM    8  C   UNL     1     -42.691  56.390 -53.480  1.00  0.00     0.016 A 
HETATM    9  C   UNL     1     -42.687  54.955 -53.455  1.00  0.00     0.102 A 
HETATM   10  N   UNL     1     -43.773  54.473 -54.068  1.00  0.00    -0.174 NA
HETATM   11  N   UNL     1     -44.495  55.539 -54.415  1.00  0.00    -0.288 N 
HETATM   12  H   UNL     1     -45.396  55.382 -54.863  1.00  0.00     0.188 HD
HETATM   13  C   UNL     1     -43.885  56.720 -54.100  1.00  0.00     0.120 A 
BRANCH   9  14
HETATM   14  C   UNL     1     -41.717  54.045 -52.856  1.00  0.00     0.072 A 
HETATM   15  C   UNL     1     -41.648  53.883 -51.469  1.00  0.00     0.132 A 
HETATM   16  F   UNL     1     -42.423  54.626 -50.663  1.00  0.00    -0.205 F 
HETATM   17  C   UNL     1     -40.765  52.977 -50.882  1.00  0.00     0.043 A 
HETATM   18  C   UNL     1     -39.925  52.210 -51.688  1.00  0.00     0.006 A 
HETATM   19  C   UNL     1     -39.966  52.368 -53.073  1.00  0.00     0.043 A 
HETATM   20  C   UNL     1     -40.855  53.279 -53.646  1.00  0.00     0.132 A 
HETATM   21  F   UNL     1     -40.825  53.439 -54.977  1.00  0.00    -0.205 F 
ENDBRANCH   9  14
ENDBRANCH   7   8
ENDBRANCH   3   7
BRANCH   1  22
HETATM   22  C   UNL     1     -43.466  61.258 -50.596  1.00  0.00     0.127 C 
BRANCH  22  23
HETATM   23  N   UNL     1     -44.230  60.602 -49.527  1.00  0.00    -0.376 N 
HETATM   24  H   UNL     1     -43.919  59.652 -49.339  1.00  0.00     0.161 HD
BRANCH  23  25
HETATM   25  C   UNL     1     -44.615  61.332 -48.408  1.00  0.00     0.100 A 
HETATM   26  C   UNL     1     -44.592  62.733 -48.333  1.00  0.00     0.048 A 
HETATM   27  C   UNL     1     -45.026  63.385 -47.179  1.00  0.00     0.005 A 
HETATM   28  C   UNL     1     -45.496  62.642 -46.105  1.00  0.00     0.017 A 
HETATM   29  C   UNL     1     -45.531  61.263 -46.220  1.00  0.00     0.089 A 
HETATM   30  N   UNL     1     -45.108  60.667 -47.346  1.00  0.00    -0.353 N 
HETATM   31  H   UNL     1     -45.173  59.656 -47.399  1.00  0.00     0.166 HD
ENDBRANCH  23  25
ENDBRANCH  22  23
ENDBRANCH   1  22
TORSDOF 6
ENDMDL
MODEL 10
REMARK VINA RESULT:      -7.0      1.583      2.636
REMARK  6 active torsions:
REMARK  status: ('A' for Active; 'I' for Inactive)
REMARK    1  A    between atoms: C_3  and  N_4 
REMARK    2  A    between atoms: N_4  and  C_5 
REMARK    3  A    between atoms: C_5  and  C_6 
REMARK    4  A    between atoms: N_8  and  C_10 
REMARK    5  A    between atoms: C_10  and  C_11 
REMARK    6  A    between atoms: C_12  and  C_13 
ROOT
HETATM    1  C   UNL     1     -41.685  55.145 -50.956  1.00  0.00     0.031 C 
HETATM    2  C   UNL     1     -40.965  55.780 -52.144  1.00  0.00     0.241 C 
HETATM    3  N   UNL     1     -40.804  57.240 -51.768  1.00  0.00    -0.067 N 
HETATM    4  H   UNL     1     -39.803  57.474 -51.819  1.00  0.00     0.280 HD
HETATM    5  C   UNL     1     -41.234  57.398 -50.328  1.00  0.00     0.235 C 
HETATM    6  C   UNL     1     -41.192  55.983 -49.779  1.00  0.00     0.035 C 
ENDROOT
BRANCH   3   7
HETATM    7  C   UNL     1     -41.478  58.229 -52.693  1.00  0.00     0.277 C 
BRANCH   7   8
HETATM    8  C   UNL     1     -42.962  58.221 -52.631  1.00  0.00     0.016 A 
HETATM    9  C   UNL     1     -43.848  57.547 -53.537  1.00  0.00     0.102 A 
HETATM   10  N   UNL     1     -45.121  57.772 -53.200  1.00  0.00    -0.174 NA
HETATM   11  N   UNL     1     -45.077  58.497 -52.083  1.00  0.00    -0.288 N 
HETATM   12  H   UNL     1     -45.958  58.741 -51.634  1.00  0.00     0.188 HD
HETATM   13  C   UNL     1     -43.803  58.811 -51.702  1.00  0.00     0.120 A 
BRANCH   9  14
HETATM   14  C   UNL     1     -43.529  56.691 -54.675  1.00  0.00     0.072 A 
HETATM   15  C   UNL     1     -43.225  57.242 -55.923  1.00  0.00     0.132 A 
HETATM   16  F   UNL     1     -43.303  58.568 -56.113  1.00  0.00    -0.205 F 
HETATM   17  C   UNL     1     -42.864  56.441 -57.007  1.00  0.00     0.043 A 
HETATM   18  C   UNL     1     -42.802  55.057 -56.853  1.00  0.00     0.006 A 
HETATM   19  C   UNL     1     -43.117  54.486 -55.620  1.00  0.00     0.043 A 
HETATM   20  C   UNL     1     -43.477  55.300 -54.545  1.00  0.00     0.132 A 
HETATM   21  F   UNL     1     -43.823  54.708 -53.393  1.00  0.00    -0.205 F 
ENDBRANCH   9  14
ENDBRANCH   7   8
ENDBRANCH   3   7
BRANCH   1  22
HETATM   22  C   UNL     1     -41.387  53.645 -50.818  1.00  0.00     0.127 C 
BRANCH  22  23
HETATM   23  N   UNL     1     -40.121  53.316 -51.485  1.00  0.00    -0.376 N 
HETATM   24  H   UNL     1     -39.305  53.494 -50.904  1.00  0.00     0.161 HD
BRANCH  23  25
HETATM   25  C   UNL     1     -40.041  52.186 -52.290  1.00  0.00     0.100 A 
HETATM   26  C   UNL     1     -40.274  52.184 -53.674  1.00  0.00     0.048 A 
HETATM   27  C   UNL     1     -40.141  51.006 -54.410  1.00  0.00     0.005 A 
HETATM   28  C   UNL     1     -39.764  49.835 -53.770  1.00  0.00     0.017 A 
HETATM   29  C   UNL     1     -39.516  49.875 -52.409  1.00  0.00     0.089 A 
HETATM   30  N   UNL     1     -39.650  51.025 -51.731  1.00  0.00    -0.353 N 
HETATM   31  H   UNL     1     -39.435  51.018 -50.739  1.00  0.00     0.166 HD
ENDBRANCH  23  25
ENDBRANCH  22  23
ENDBRANCH   1  22
TORSDOF 6
ENDMDL
