MODEL 1
REMARK VINA RESULT:      -8.0      0.000      0.000
REMARK  8 active torsions:
REMARK  status: ('A' for Active; 'I' for Inactive)
REMARK    1  A    between atoms: C_7  and  C_8 
REMARK       I    between atoms: C_8  and  N_9 
REMARK    2  A    between atoms: N_9  and  C_10 
REMARK    3  A    between atoms: C_11  and  C_12 
REMARK       I    between atoms: C_12  and  N_13 
REMARK    4  A    between atoms: N_13  and  C_14 
REMARK    5  A    between atoms: C_14  and  C_15 
REMARK    6  A    between atoms: C_15  and  C_16 
REMARK    7  A    between atoms: C_17  and  O_18 
REMARK    8  A    between atoms: C_21  and  O_22 
ROOT
HETATM    1  C   UNL     1     -45.195  58.592 -55.487  1.00  0.00     0.050 A 
HETATM    2  C   UNL     1     -44.849  58.135 -54.207  1.00  0.00     0.058 A 
HETATM    3  C   UNL     1     -44.859  59.030 -53.118  1.00  0.00     0.019 A 
HETATM    4  C   UNL     1     -45.190  60.372 -53.304  1.00  0.00     0.001 A 
HETATM    5  C   UNL     1     -45.481  60.838 -54.581  1.00  0.00     0.002 A 
HETATM    6  C   UNL     1     -45.471  59.958 -55.667  1.00  0.00     0.030 A 
ENDROOT
BRANCH   2   7
HETATM    7  C   UNL     1     -44.219  56.810 -53.959  1.00  0.00     0.253 C 
HETATM    8  N   UNL     1     -44.078  56.474 -52.629  1.00  0.00    -0.356 N 
HETATM    9  H   UNL     1     -44.656  56.957 -51.954  1.00  0.00     0.162 HD
HETATM   10  O   UNL     1     -43.788  56.146 -54.894  1.00  0.00    -0.268 OA
BRANCH   8  11
HETATM   11  C   UNL     1     -43.331  55.309 -52.199  1.00  0.00     0.127 C 
BRANCH  11  12
HETATM   12  C   UNL     1     -41.822  55.539 -52.123  1.00  0.00     0.061 C 
BRANCH  12  13
HETATM   13  C   UNL     1     -41.065  54.287 -52.526  1.00  0.00    -0.023 A 
HETATM   14  C   UNL     1     -40.548  53.387 -51.574  1.00  0.00     0.077 A 
HETATM   15  C   UNL     1     -39.890  52.223 -52.000  1.00  0.00     0.074 A 
HETATM   16  C   UNL     1     -39.748  51.946 -53.362  1.00  0.00     0.070 A 
HETATM   17  C   UNL     1     -40.278  52.828 -54.302  1.00  0.00     0.037 A 
HETATM   18  C   UNL     1     -40.927  53.991 -53.890  1.00  0.00     0.013 A 
BRANCH  14  19
HETATM   19  O   UNL     1     -40.752  53.728 -50.262  1.00  0.00    -0.355 OA
HETATM   20  C   UNL     1     -39.649  54.246 -49.531  1.00  0.00     0.210 C 
ENDBRANCH  14  19
BRANCH  16  21
HETATM   21  O   UNL     1     -39.135  50.845 -53.899  1.00  0.00    -0.356 OA
HETATM   22  C   UNL     1     -39.981  49.810 -54.385  1.00  0.00     0.210 C 
ENDBRANCH  16  21
ENDBRANCH  12  13
ENDBRANCH  11  12
ENDBRANCH   8  11
ENDBRANCH   2   7
BRANCH   1  23
HETATM   23  N   UNL     1     -45.308  57.791 -56.642  1.00  0.00    -0.321 N 
HETATM   24  C   UNL     1     -44.542  57.918 -57.787  1.00  0.00     0.265 C 
HETATM   25  O   UNL     1     -43.619  58.717 -57.920  1.00  0.00    -0.267 OA
HETATM   26  H   UNL     1     -45.788  56.902 -56.552  1.00  0.00     0.169 HD
BRANCH  24  27
HETATM   27  C   UNL     1     -44.835  56.851 -58.834  1.00  0.00     0.097 C 
HETATM   28  C   UNL     1     -45.898  56.957 -59.667  1.00  0.00     0.064 C 
HETATM   29  C   UNL     1     -46.945  58.035 -59.552  1.00  0.00     0.078 C 
HETATM   30  O   UNL     1     -46.204  56.083 -60.701  1.00  0.00    -0.353 OA
HETATM   31  C   UNL     1     -45.157  55.226 -61.154  1.00  0.00     0.185 C 
HETATM   32  C   UNL     1     -44.585  54.408 -60.016  1.00  0.00     0.106 C 
HETATM   33  S   UNL     1     -43.687  55.525 -58.915  1.00  0.00    -0.120 SA
ENDBRANCH  24  27
ENDBRANCH   1  23
TORSDOF 8
ENDMDL
MODEL 2
REMARK VINA RESULT:      -7.9      2.439      3.389
REMARK  8 active torsions:
REMARK  status: ('A' for Active; 'I' for Inactive)
REMARK    1  A    between atoms: C_7  and  C_8 
REMARK       I    between atoms: C_8  and  N_9 
REMARK    2  A    between atoms: N_9  and  C_10 
REMARK    3  A    between atoms: C_11  and  C_12 
REMARK       I    between atoms: C_12  and  N_13 
REMARK    4  A    between atoms: N_13  and  C_14 
REMARK    5  A    between atoms: C_14  and  C_15 
REMARK    6  A    between atoms: C_15  and  C_16 
REMARK    7  A    between atoms: C_17  and  O_18 
REMARK    8  A    between atoms: C_21  and  O_22 
ROOT
HETATM    1  C   UNL     1     -42.949  59.679 -52.598  1.00  0.00     0.050 A 
HETATM    2  C   UNL     1     -42.312  59.238 -51.427  1.00  0.00     0.058 A 
HETATM    3  C   UNL     1     -42.239  60.090 -50.307  1.00  0.00     0.019 A 
HETATM    4  C   UNL     1     -42.776  61.376 -50.356  1.00  0.00     0.001 A 
HETATM    5  C   UNL     1     -43.359  61.834 -51.532  1.00  0.00     0.002 A 
HETATM    6  C   UNL     1     -43.433  60.997 -52.649  1.00  0.00     0.030 A 
ENDROOT
BRANCH   2   7
HETATM    7  C   UNL     1     -41.475  58.009 -51.371  1.00  0.00     0.253 C 
HETATM    8  N   UNL     1     -41.765  57.157 -50.326  1.00  0.00    -0.356 N 
HETATM    9  H   UNL     1     -42.669  57.243 -49.881  1.00  0.00     0.162 HD
HETATM   10  O   UNL     1     -40.549  57.856 -52.158  1.00  0.00    -0.268 OA
BRANCH   8  11
HETATM   11  C   UNL     1     -40.941  56.007 -50.013  1.00  0.00     0.127 C 
BRANCH  11  12
HETATM   12  C   UNL     1     -41.702  54.681 -50.035  1.00  0.00     0.061 C 
BRANCH  12  13
HETATM   13  C   UNL     1     -41.122  53.743 -51.077  1.00  0.00    -0.023 A 
HETATM   14  C   UNL     1     -41.401  53.888 -52.450  1.00  0.00     0.077 A 
HETATM   15  C   UNL     1     -40.808  53.018 -53.377  1.00  0.00     0.074 A 
HETATM   16  C   UNL     1     -39.935  52.013 -52.951  1.00  0.00     0.070 A 
HETATM   17  C   UNL     1     -39.646  51.885 -51.594  1.00  0.00     0.037 A 
HETATM   18  C   UNL     1     -40.236  52.738 -50.663  1.00  0.00     0.013 A 
BRANCH  14  19
HETATM   19  O   UNL     1     -42.249  54.913 -52.779  1.00  0.00    -0.355 OA
HETATM   20  C   UNL     1     -43.559  54.578 -53.216  1.00  0.00     0.210 C 
ENDBRANCH  14  19
BRANCH  16  21
HETATM   21  O   UNL     1     -39.292  51.111 -53.756  1.00  0.00    -0.356 OA
HETATM   22  C   UNL     1     -40.072  50.044 -54.281  1.00  0.00     0.210 C 
ENDBRANCH  16  21
ENDBRANCH  12  13
ENDBRANCH  11  12
ENDBRANCH   8  11
ENDBRANCH   2   7
BRANCH   1  23
HETATM   23  N   UNL     1     -43.167  58.905 -53.755  1.00  0.00    -0.321 N 
HETATM   24  C   UNL     1     -42.464  59.019 -54.943  1.00  0.00     0.265 C 
HETATM   25  O   UNL     1     -41.516  59.778 -55.119  1.00  0.00    -0.267 OA
HETATM   26  H   UNL     1     -43.679  58.036 -53.650  1.00  0.00     0.169 HD
BRANCH  24  27
HETATM   27  C   UNL     1     -42.867  57.985 -55.986  1.00  0.00     0.097 C 
HETATM   28  C   UNL     1     -43.808  58.259 -56.922  1.00  0.00     0.064 C 
HETATM   29  C   UNL     1     -44.626  59.525 -56.938  1.00  0.00     0.078 C 
HETATM   30  O   UNL     1     -44.186  57.417 -57.958  1.00  0.00    -0.353 OA
HETATM   31  C   UNL     1     -43.293  56.352 -58.284  1.00  0.00     0.185 C 
HETATM   32  C   UNL     1     -43.001  55.489 -57.076  1.00  0.00     0.106 C 
HETATM   33  S   UNL     1     -42.003  56.457 -55.921  1.00  0.00    -0.120 SA
ENDBRANCH  24  27
ENDBRANCH   1  23
TORSDOF 8
ENDMDL
MODEL 3
REMARK VINA RESULT:      -7.9      2.856      5.882
REMARK  8 active torsions:
REMARK  status: ('A' for Active; 'I' for Inactive)
REMARK    1  A    between atoms: C_7  and  C_8 
REMARK       I    between atoms: C_8  and  N_9 
REMARK    2  A    between atoms: N_9  and  C_10 
REMARK    3  A    between atoms: C_11  and  C_12 
REMARK       I    between atoms: C_12  and  N_13 
REMARK    4  A    between atoms: N_13  and  C_14 
REMARK    5  A    between atoms: C_14  and  C_15 
REMARK    6  A    between atoms: C_15  and  C_16 
REMARK    7  A    between atoms: C_17  and  O_18 
REMARK    8  A    between atoms: C_21  and  O_22 
ROOT
HETATM    1  C   UNL     1     -43.588  58.369 -56.342  1.00  0.00     0.050 A 
HETATM    2  C   UNL     1     -43.145  57.083 -56.685  1.00  0.00     0.058 A 
HETATM    3  C   UNL     1     -43.153  56.676 -58.035  1.00  0.00     0.019 A 
HETATM    4  C   UNL     1     -43.616  57.534 -59.033  1.00  0.00     0.001 A 
HETATM    5  C   UNL     1     -44.106  58.789 -58.688  1.00  0.00     0.002 A 
HETATM    6  C   UNL     1     -44.104  59.199 -57.352  1.00  0.00     0.030 A 
ENDROOT
BRANCH   2   7
HETATM    7  C   UNL     1     -42.902  56.012 -55.682  1.00  0.00     0.253 C 
HETATM    8  N   UNL     1     -42.006  55.041 -56.074  1.00  0.00    -0.356 N 
HETATM    9  H   UNL     1     -41.368  55.261 -56.827  1.00  0.00     0.162 HD
HETATM   10  O   UNL     1     -43.543  55.986 -54.638  1.00  0.00    -0.268 OA
BRANCH   8  11
HETATM   11  C   UNL     1     -41.781  53.835 -55.302  1.00  0.00     0.127 C 
BRANCH  11  12
HETATM   12  C   UNL     1     -40.360  53.714 -54.750  1.00  0.00     0.061 C 
BRANCH  12  13
HETATM   13  C   UNL     1     -40.383  53.379 -53.271  1.00  0.00    -0.023 A 
HETATM   14  C   UNL     1     -39.840  52.181 -52.767  1.00  0.00     0.077 A 
HETATM   15  C   UNL     1     -39.852  51.937 -51.385  1.00  0.00     0.074 A 
HETATM   16  C   UNL     1     -40.392  52.877 -50.503  1.00  0.00     0.070 A 
HETATM   17  C   UNL     1     -40.911  54.070 -51.002  1.00  0.00     0.037 A 
HETATM   18  C   UNL     1     -40.912  54.319 -52.374  1.00  0.00     0.013 A 
BRANCH  14  19
HETATM   19  O   UNL     1     -39.314  51.329 -53.702  1.00  0.00    -0.355 OA
HETATM   20  C   UNL     1     -40.018  50.126 -53.977  1.00  0.00     0.210 C 
ENDBRANCH  14  19
BRANCH  16  21
HETATM   21  O   UNL     1     -40.455  52.757 -49.139  1.00  0.00    -0.356 OA
HETATM   22  C   UNL     1     -40.478  53.964 -48.388  1.00  0.00     0.210 C 
ENDBRANCH  16  21
ENDBRANCH  12  13
ENDBRANCH  11  12
ENDBRANCH   8  11
ENDBRANCH   2   7
BRANCH   1  23
HETATM   23  N   UNL     1     -43.555  58.932 -55.050  1.00  0.00    -0.321 N 
HETATM   24  C   UNL     1     -42.459  59.543 -54.467  1.00  0.00     0.265 C 
HETATM   25  O   UNL     1     -41.383  59.724 -55.030  1.00  0.00    -0.267 OA
HETATM   26  H   UNL     1     -44.443  59.147 -54.609  1.00  0.00     0.169 HD
BRANCH  24  27
HETATM   27  C   UNL     1     -42.755  60.134 -53.095  1.00  0.00     0.097 C 
HETATM   28  C   UNL     1     -42.486  59.445 -51.960  1.00  0.00     0.064 C 
HETATM   29  C   UNL     1     -42.015  58.013 -51.944  1.00  0.00     0.078 C 
HETATM   30  O   UNL     1     -42.645  59.924 -50.667  1.00  0.00    -0.353 OA
HETATM   31  C   UNL     1     -42.751  61.339 -50.511  1.00  0.00     0.185 C 
HETATM   32  C   UNL     1     -43.878  61.902 -51.349  1.00  0.00     0.106 C 
HETATM   33  S   UNL     1     -43.408  61.765 -53.089  1.00  0.00    -0.120 SA
ENDBRANCH  24  27
ENDBRANCH   1  23
TORSDOF 8
ENDMDL
MODEL 4
REMARK VINA RESULT:      -7.8      3.243      8.320
REMARK  8 active torsions:
REMARK  status: ('A' for Active; 'I' for Inactive)
REMARK    1  A    between atoms: C_7  and  C_8 
REMARK       I    between atoms: C_8  and  N_9 
REMARK    2  A    between atoms: N_9  and  C_10 
REMARK    3  A    between atoms: C_11  and  C_12 
REMARK       I    between atoms: C_12  and  N_13 
REMARK    4  A    between atoms: N_13  and  C_14 
REMARK    5  A    between atoms: C_14  and  C_15 
REMARK    6  A    between atoms: C_15  and  C_16 
REMARK    7  A    between atoms: C_17  and  O_18 
REMARK    8  A    between atoms: C_21  and  O_22 
ROOT
HETATM    1  C   UNL     1     -41.357  54.181 -52.834  1.00  0.00     0.050 A 
HETATM    2  C   UNL     1     -41.655  53.507 -54.027  1.00  0.00     0.058 A 
HETATM    3  C   UNL     1     -41.017  52.284 -54.318  1.00  0.00     0.019 A 
HETATM    4  C   UNL     1     -40.076  51.747 -53.439  1.00  0.00     0.001 A 
HETATM    5  C   UNL     1     -39.740  52.441 -52.282  1.00  0.00     0.002 A 
HETATM    6  C   UNL     1     -40.366  53.656 -51.988  1.00  0.00     0.030 A 
ENDROOT
BRANCH   2   7
HETATM    7  C   UNL     1     -42.420  54.126 -55.142  1.00  0.00     0.253 C 
HETATM    8  N   UNL     1     -41.705  55.018 -55.912  1.00  0.00    -0.356 N 
HETATM    9  H   UNL     1     -40.695  54.966 -55.884  1.00  0.00     0.162 HD
HETATM   10  O   UNL     1     -43.617  53.901 -55.270  1.00  0.00    -0.268 OA
BRANCH   8  11
HETATM   11  C   UNL     1     -42.331  55.843 -56.926  1.00  0.00     0.127 C 
BRANCH  11  12
HETATM   12  C   UNL     1     -42.868  57.172 -56.393  1.00  0.00     0.061 C 
BRANCH  12  13
HETATM   13  C   UNL     1     -42.527  58.309 -57.337  1.00  0.00    -0.023 A 
HETATM   14  C   UNL     1     -41.967  59.517 -56.879  1.00  0.00     0.077 A 
HETATM   15  C   UNL     1     -41.633  60.523 -57.799  1.00  0.00     0.074 A 
HETATM   16  C   UNL     1     -41.845  60.334 -59.167  1.00  0.00     0.070 A 
HETATM   17  C   UNL     1     -42.381  59.129 -59.619  1.00  0.00     0.037 A 
HETATM   18  C   UNL     1     -42.723  58.126 -58.714  1.00  0.00     0.013 A 
BRANCH  14  19
HETATM   19  O   UNL     1     -41.774  59.608 -55.526  1.00  0.00    -0.355 OA
HETATM   20  C   UNL     1     -42.513  60.590 -54.813  1.00  0.00     0.210 C 
ENDBRANCH  14  19
BRANCH  16  21
HETATM   21  O   UNL     1     -41.555  61.233 -60.159  1.00  0.00    -0.356 OA
HETATM   22  C   UNL     1     -41.890  60.857 -61.488  1.00  0.00     0.210 C 
ENDBRANCH  16  21
ENDBRANCH  12  13
ENDBRANCH  11  12
ENDBRANCH   8  11
ENDBRANCH   2   7
BRANCH   1  23
HETATM   23  N   UNL     1     -41.979  55.362 -52.381  1.00  0.00    -0.321 N 
HETATM   24  C   UNL     1     -41.632  56.649 -52.755  1.00  0.00     0.265 C 
HETATM   25  O   UNL     1     -40.766  56.922 -53.580  1.00  0.00    -0.267 OA
HETATM   26  H   UNL     1     -42.901  55.278 -51.966  1.00  0.00     0.169 HD
BRANCH  24  27
HETATM   27  C   UNL     1     -42.546  57.717 -52.168  1.00  0.00     0.097 C 
HETATM   28  C   UNL     1     -42.081  58.629 -51.280  1.00  0.00     0.064 C 
HETATM   29  C   UNL     1     -40.693  58.592 -50.694  1.00  0.00     0.078 C 
HETATM   30  O   UNL     1     -42.810  59.685 -50.751  1.00  0.00    -0.353 OA
HETATM   31  C   UNL     1     -44.002  60.058 -51.442  1.00  0.00     0.185 C 
HETATM   32  C   UNL     1     -44.942  58.883 -51.591  1.00  0.00     0.106 C 
HETATM   33  S   UNL     1     -44.201  57.713 -52.754  1.00  0.00    -0.120 SA
ENDBRANCH  24  27
ENDBRANCH   1  23
TORSDOF 8
ENDMDL
MODEL 5
REMARK VINA RESULT:      -7.8      2.397      5.131
REMARK  8 active torsions:
REMARK  status: ('A' for Active; 'I' for Inactive)
REMARK    1  A    between atoms: C_7  and  C_8 
REMARK       I    between atoms: C_8  and  N_9 
REMARK    2  A    between atoms: N_9  and  C_10 
REMARK    3  A    between atoms: C_11  and  C_12 
REMARK       I    between atoms: C_12  and  N_13 
REMARK    4  A    between atoms: N_13  and  C_14 
REMARK    5  A    between atoms: C_14  and  C_15 
REMARK    6  A    between atoms: C_15  and  C_16 
REMARK    7  A    between atoms: C_17  and  O_18 
REMARK    8  A    between atoms: C_21  and  O_22 
ROOT
HETATM    1  C   UNL     1     -45.231  58.158 -57.188  1.00  0.00     0.050 A 
HETATM    2  C   UNL     1     -44.391  57.271 -57.880  1.00  0.00     0.058 A 
HETATM    3  C   UNL     1     -44.815  56.718 -59.105  1.00  0.00     0.019 A 
HETATM    4  C   UNL     1     -46.071  57.028 -59.628  1.00  0.00     0.001 A 
HETATM    5  C   UNL     1     -46.925  57.864 -58.918  1.00  0.00     0.002 A 
HETATM    6  C   UNL     1     -46.514  58.415 -57.701  1.00  0.00     0.030 A 
ENDROOT
BRANCH   2   7
HETATM    7  C   UNL     1     -43.173  56.668 -57.277  1.00  0.00     0.253 C 
HETATM    8  N   UNL     1     -43.381  55.475 -56.617  1.00  0.00    -0.356 N 
HETATM    9  H   UNL     1     -44.218  54.951 -56.837  1.00  0.00     0.162 HD
HETATM   10  O   UNL     1     -42.106  57.269 -57.308  1.00  0.00    -0.268 OA
BRANCH   8  11
HETATM   11  C   UNL     1     -42.348  54.837 -55.824  1.00  0.00     0.127 C 
BRANCH  11  12
HETATM   12  C   UNL     1     -42.698  54.717 -54.341  1.00  0.00     0.061 C 
BRANCH  12  13
HETATM   13  C   UNL     1     -41.705  53.821 -53.624  1.00  0.00    -0.023 A 
HETATM   14  C   UNL     1     -41.472  53.921 -52.239  1.00  0.00     0.077 A 
HETATM   15  C   UNL     1     -40.572  53.042 -51.618  1.00  0.00     0.074 A 
HETATM   16  C   UNL     1     -39.910  52.061 -52.362  1.00  0.00     0.070 A 
HETATM   17  C   UNL     1     -40.158  51.952 -53.729  1.00  0.00     0.037 A 
HETATM   18  C   UNL     1     -41.044  52.825 -54.358  1.00  0.00     0.013 A 
BRANCH  14  19
HETATM   19  O   UNL     1     -42.180  54.896 -51.587  1.00  0.00    -0.355 OA
HETATM   20  C   UNL     1     -41.465  56.019 -51.091  1.00  0.00     0.210 C 
ENDBRANCH  14  19
BRANCH  16  21
HETATM   21  O   UNL     1     -39.018  51.144 -51.871  1.00  0.00    -0.356 OA
HETATM   22  C   UNL     1     -39.548  50.099 -51.067  1.00  0.00     0.210 C 
ENDBRANCH  16  21
ENDBRANCH  12  13
ENDBRANCH  11  12
ENDBRANCH   8  11
ENDBRANCH   2   7
BRANCH   1  23
HETATM   23  N   UNL     1     -44.900  58.846 -56.003  1.00  0.00    -0.321 N 
HETATM   24  C   UNL     1     -44.925  58.308 -54.728  1.00  0.00     0.265 C 
HETATM   25  O   UNL     1     -45.187  57.137 -54.473  1.00  0.00    -0.267 OA
HETATM   26  H   UNL     1     -44.359  59.700 -56.090  1.00  0.00     0.169 HD
BRANCH  24  27
HETATM   27  C   UNL     1     -44.430  59.270 -53.656  1.00  0.00     0.097 C 
HETATM   28  C   UNL     1     -43.112  59.367 -53.352  1.00  0.00     0.064 C 
HETATM   29  C   UNL     1     -42.054  58.461 -53.926  1.00  0.00     0.078 C 
HETATM   30  O   UNL     1     -42.555  60.265 -52.452  1.00  0.00    -0.353 OA
HETATM   31  C   UNL     1     -43.350  61.393 -52.088  1.00  0.00     0.185 C 
HETATM   32  C   UNL     1     -44.693  60.966 -51.537  1.00  0.00     0.106 C 
HETATM   33  S   UNL     1     -45.661  60.264 -52.893  1.00  0.00    -0.120 SA
ENDBRANCH  24  27
ENDBRANCH   1  23
TORSDOF 8
ENDMDL
MODEL 6
REMARK VINA RESULT:      -7.8      2.342      5.560
REMARK  8 active torsions:
REMARK  status: ('A' for Active; 'I' for Inactive)
REMARK    1  A    between atoms: C_7  and  C_8 
REMARK       I    between atoms: C_8  and  N_9 
REMARK    2  A    between atoms: N_9  and  C_10 
REMARK    3  A    between atoms: C_11  and  C_12 
REMARK       I    between atoms: C_12  and  N_13 
REMARK    4  A    between atoms: N_13  and  C_14 
REMARK    5  A    between atoms: C_14  and  C_15 
REMARK    6  A    between atoms: C_15  and  C_16 
REMARK    7  A    between atoms: C_17  and  O_18 
REMARK    8  A    between atoms: C_21  and  O_22 
ROOT
HETATM    1  C   UNL     1     -45.239  58.216 -56.889  1.00  0.00     0.050 A 
HETATM    2  C   UNL     1     -44.415  57.434 -57.713  1.00  0.00     0.058 A 
HETATM    3  C   UNL     1     -44.902  56.968 -58.950  1.00  0.00     0.019 A 
HETATM    4  C   UNL     1     -46.204  57.260 -59.357  1.00  0.00     0.001 A 
HETATM    5  C   UNL     1     -47.040  57.988 -58.518  1.00  0.00     0.002 A 
HETATM    6  C   UNL     1     -46.566  58.452 -57.288  1.00  0.00     0.030 A 
ENDROOT
BRANCH   2   7
HETATM    7  C   UNL     1     -43.131  56.842 -57.251  1.00  0.00     0.253 C 
HETATM    8  N   UNL     1     -43.259  55.700 -56.489  1.00  0.00    -0.356 N 
HETATM    9  H   UNL     1     -44.126  55.183 -56.552  1.00  0.00     0.162 HD
HETATM   10  O   UNL     1     -42.071  57.414 -57.474  1.00  0.00    -0.268 OA
BRANCH   8  11
HETATM   11  C   UNL     1     -42.132  55.090 -55.811  1.00  0.00     0.127 C 
BRANCH  11  12
HETATM   12  C   UNL     1     -42.493  53.819 -55.041  1.00  0.00     0.061 C 
BRANCH  12  13
HETATM   13  C   UNL     1     -41.787  53.784 -53.698  1.00  0.00    -0.023 A 
HETATM   14  C   UNL     1     -40.830  52.801 -53.383  1.00  0.00     0.077 A 
HETATM   15  C   UNL     1     -40.178  52.837 -52.140  1.00  0.00     0.074 A 
HETATM   16  C   UNL     1     -40.466  53.845 -51.216  1.00  0.00     0.070 A 
HETATM   17  C   UNL     1     -41.399  54.827 -51.539  1.00  0.00     0.037 A 
HETATM   18  C   UNL     1     -42.059  54.797 -52.767  1.00  0.00     0.013 A 
BRANCH  14  19
HETATM   19  O   UNL     1     -40.595  51.866 -54.356  1.00  0.00    -0.355 OA
HETATM   20  C   UNL     1     -39.812  50.731 -54.013  1.00  0.00     0.210 C 
ENDBRANCH  14  19
BRANCH  16  21
HETATM   21  O   UNL     1     -39.893  53.990 -49.980  1.00  0.00    -0.356 OA
HETATM   22  C   UNL     1     -40.713  54.529 -48.950  1.00  0.00     0.210 C 
ENDBRANCH  16  21
ENDBRANCH  12  13
ENDBRANCH  11  12
ENDBRANCH   8  11
ENDBRANCH   2   7
BRANCH   1  23
HETATM   23  N   UNL     1     -44.854  58.815 -55.673  1.00  0.00    -0.321 N 
HETATM   24  C   UNL     1     -44.798  58.178 -54.445  1.00  0.00     0.265 C 
HETATM   25  O   UNL     1     -45.026  56.984 -54.271  1.00  0.00    -0.267 OA
HETATM   26  H   UNL     1     -44.333  59.684 -55.721  1.00  0.00     0.169 HD
BRANCH  24  27
HETATM   27  C   UNL     1     -44.259  59.062 -53.329  1.00  0.00     0.097 C 
HETATM   28  C   UNL     1     -42.927  59.192 -53.114  1.00  0.00     0.064 C 
HETATM   29  C   UNL     1     -41.882  58.389 -53.846  1.00  0.00     0.078 C 
HETATM   30  O   UNL     1     -42.337  60.030 -52.179  1.00  0.00    -0.353 OA
HETATM   31  C   UNL     1     -43.144  61.084 -51.656  1.00  0.00     0.185 C 
HETATM   32  C   UNL     1     -44.423  60.549 -51.049  1.00  0.00     0.106 C 
HETATM   33  S   UNL     1     -45.465  59.927 -52.389  1.00  0.00    -0.120 SA
ENDBRANCH  24  27
ENDBRANCH   1  23
TORSDOF 8
ENDMDL
MODEL 7
REMARK VINA RESULT:      -7.7      2.122      2.519
REMARK  8 active torsions:
REMARK  status: ('A' for Active; 'I' for Inactive)
REMARK    1  A    between atoms: C_7  and  C_8 
REMARK       I    between atoms: C_8  and  N_9 
REMARK    2  A    between atoms: N_9  and  C_10 
REMARK    3  A    between atoms: C_11  and  C_12 
REMARK       I    between atoms: C_12  and  N_13 
REMARK    4  A    between atoms: N_13  and  C_14 
REMARK    5  A    between atoms: C_14  and  C_15 
REMARK    6  A    between atoms: C_15  and  C_16 
REMARK    7  A    between atoms: C_17  and  O_18 
REMARK    8  A    between atoms: C_21  and  O_22 
ROOT
HETATM    1  C   UNL     1     -43.034  60.274 -55.091  1.00  0.00     0.050 A 
HETATM    2  C   UNL     1     -42.464  60.054 -53.827  1.00  0.00     0.058 A 
HETATM    3  C   UNL     1     -42.598  61.032 -52.820  1.00  0.00     0.019 A 
HETATM    4  C   UNL     1     -43.275  62.225 -53.073  1.00  0.00     0.001 A 
HETATM    5  C   UNL     1     -43.792  62.467 -54.341  1.00  0.00     0.002 A 
HETATM    6  C   UNL     1     -43.662  61.505 -55.346  1.00  0.00     0.030 A 
ENDROOT
BRANCH   2   7
HETATM    7  C   UNL     1     -41.499  58.957 -53.549  1.00  0.00     0.253 C 
HETATM    8  N   UNL     1     -42.073  57.740 -53.251  1.00  0.00    -0.356 N 
HETATM    9  H   UNL     1     -43.033  57.587 -53.531  1.00  0.00     0.162 HD
HETATM   10  O   UNL     1     -40.297  59.188 -53.508  1.00  0.00    -0.268 OA
BRANCH   8  11
HETATM   11  C   UNL     1     -41.296  56.609 -52.785  1.00  0.00     0.127 C 
BRANCH  11  12
HETATM   12  C   UNL     1     -42.140  55.382 -52.439  1.00  0.00     0.061 C 
BRANCH  12  13
HETATM   13  C   UNL     1     -41.336  54.108 -52.615  1.00  0.00    -0.023 A 
HETATM   14  C   UNL     1     -40.673  53.488 -51.538  1.00  0.00     0.077 A 
HETATM   15  C   UNL     1     -39.975  52.289 -51.747  1.00  0.00     0.074 A 
HETATM   16  C   UNL     1     -39.937  51.700 -53.014  1.00  0.00     0.070 A 
HETATM   17  C   UNL     1     -40.610  52.305 -54.073  1.00  0.00     0.037 A 
HETATM   18  C   UNL     1     -41.300  53.501 -53.879  1.00  0.00     0.013 A 
BRANCH  14  19
HETATM   19  O   UNL     1     -40.781  54.124 -50.329  1.00  0.00    -0.355 OA
HETATM   20  C   UNL     1     -39.595  54.320 -49.572  1.00  0.00     0.210 C 
ENDBRANCH  14  19
BRANCH  16  21
HETATM   21  O   UNL     1     -39.298  50.533 -53.340  1.00  0.00    -0.356 OA
HETATM   22  C   UNL     1     -39.690  49.901 -54.552  1.00  0.00     0.210 C 
ENDBRANCH  16  21
ENDBRANCH  12  13
ENDBRANCH  11  12
ENDBRANCH   8  11
ENDBRANCH   2   7
BRANCH   1  23
HETATM   23  N   UNL     1     -43.048  59.351 -56.156  1.00  0.00    -0.321 N 
HETATM   24  C   UNL     1     -43.972  58.334 -56.327  1.00  0.00     0.265 C 
HETATM   25  O   UNL     1     -44.938  58.143 -55.594  1.00  0.00    -0.267 OA
HETATM   26  H   UNL     1     -42.524  59.588 -56.991  1.00  0.00     0.169 HD
BRANCH  24  27
HETATM   27  C   UNL     1     -43.782  57.555 -57.621  1.00  0.00     0.097 C 
HETATM   28  C   UNL     1     -43.218  56.322 -57.624  1.00  0.00     0.064 C 
HETATM   29  C   UNL     1     -42.613  55.678 -56.403  1.00  0.00     0.078 C 
HETATM   30  O   UNL     1     -43.074  55.503 -58.735  1.00  0.00    -0.353 OA
HETATM   31  C   UNL     1     -43.880  55.807 -59.872  1.00  0.00     0.185 C 
HETATM   32  C   UNL     1     -43.674  57.235 -60.327  1.00  0.00     0.106 C 
HETATM   33  S   UNL     1     -44.382  58.332 -59.077  1.00  0.00    -0.120 SA
ENDBRANCH  24  27
ENDBRANCH   1  23
TORSDOF 8
ENDMDL
MODEL 8
REMARK VINA RESULT:      -7.7      3.052      7.224
REMARK  8 active torsions:
REMARK  status: ('A' for Active; 'I' for Inactive)
REMARK    1  A    between atoms: C_7  and  C_8 
REMARK       I    between atoms: C_8  and  N_9 
REMARK    2  A    between atoms: N_9  and  C_10 
REMARK    3  A    between atoms: C_11  and  C_12 
REMARK       I    between atoms: C_12  and  N_13 
REMARK    4  A    between atoms: N_13  and  C_14 
REMARK    5  A    between atoms: C_14  and  C_15 
REMARK    6  A    between atoms: C_15  and  C_16 
REMARK    7  A    between atoms: C_17  and  O_18 
REMARK    8  A    between atoms: C_21  and  O_22 
ROOT
HETATM    1  C   UNL     1     -40.820  54.280 -53.984  1.00  0.00     0.050 A 
HETATM    2  C   UNL     1     -40.821  54.269 -52.581  1.00  0.00     0.058 A 
HETATM    3  C   UNL     1     -40.350  53.135 -51.889  1.00  0.00     0.019 A 
HETATM    4  C   UNL     1     -39.900  52.014 -52.587  1.00  0.00     0.001 A 
HETATM    5  C   UNL     1     -39.948  52.003 -53.976  1.00  0.00     0.002 A 
HETATM    6  C   UNL     1     -40.417  53.122 -54.669  1.00  0.00     0.030 A 
ENDROOT
BRANCH   2   7
HETATM    7  C   UNL     1     -41.531  55.286 -51.760  1.00  0.00     0.253 C 
HETATM    8  N   UNL     1     -42.906  55.173 -51.757  1.00  0.00    -0.356 N 
HETATM    9  H   UNL     1     -43.309  54.285 -52.025  1.00  0.00     0.162 HD
HETATM   10  O   UNL     1     -40.907  56.193 -51.223  1.00  0.00    -0.268 OA
BRANCH   8  11
HETATM   11  C   UNL     1     -43.765  56.176 -51.159  1.00  0.00     0.127 C 
BRANCH  11  12
HETATM   12  C   UNL     1     -44.130  57.318 -52.108  1.00  0.00     0.061 C 
BRANCH  12  13
HETATM   13  C   UNL     1     -44.365  58.604 -51.338  1.00  0.00    -0.023 A 
HETATM   14  C   UNL     1     -43.319  59.500 -51.044  1.00  0.00     0.077 A 
HETATM   15  C   UNL     1     -43.597  60.696 -50.362  1.00  0.00     0.074 A 
HETATM   16  C   UNL     1     -44.904  61.007 -49.978  1.00  0.00     0.070 A 
HETATM   17  C   UNL     1     -45.939  60.127 -50.288  1.00  0.00     0.037 A 
HETATM   18  C   UNL     1     -45.674  58.934 -50.957  1.00  0.00     0.013 A 
BRANCH  14  19
HETATM   19  O   UNL     1     -42.075  59.124 -51.477  1.00  0.00    -0.355 OA
HETATM   20  C   UNL     1     -40.946  59.749 -50.882  1.00  0.00     0.210 C 
ENDBRANCH  14  19
BRANCH  16  21
HETATM   21  O   UNL     1     -45.300  62.140 -49.318  1.00  0.00    -0.356 OA
HETATM   22  C   UNL     1     -44.775  62.340 -48.012  1.00  0.00     0.210 C 
ENDBRANCH  16  21
ENDBRANCH  12  13
ENDBRANCH  11  12
ENDBRANCH   8  11
ENDBRANCH   2   7
BRANCH   1  23
HETATM   23  N   UNL     1     -41.182  55.374 -54.796  1.00  0.00    -0.321 N 
HETATM   24  C   UNL     1     -42.471  55.695 -55.184  1.00  0.00     0.265 C 
HETATM   25  O   UNL     1     -43.477  55.094 -54.818  1.00  0.00    -0.267 OA
HETATM   26  H   UNL     1     -40.511  56.128 -54.895  1.00  0.00     0.169 HD
BRANCH  24  27
HETATM   27  C   UNL     1     -42.557  56.985 -55.989  1.00  0.00     0.097 C 
HETATM   28  C   UNL     1     -42.902  56.975 -57.300  1.00  0.00     0.064 C 
HETATM   29  C   UNL     1     -43.092  55.715 -58.103  1.00  0.00     0.078 C 
HETATM   30  O   UNL     1     -43.084  58.098 -58.095  1.00  0.00    -0.353 OA
HETATM   31  C   UNL     1     -43.275  59.342 -57.424  1.00  0.00     0.185 C 
HETATM   32  C   UNL     1     -42.135  59.635 -56.473  1.00  0.00     0.106 C 
HETATM   33  S   UNL     1     -42.232  58.464 -55.099  1.00  0.00    -0.120 SA
ENDBRANCH  24  27
ENDBRANCH   1  23
TORSDOF 8
ENDMDL
MODEL 9
REMARK VINA RESULT:      -7.6      1.721      2.121
REMARK  8 active torsions:
REMARK  status: ('A' for Active; 'I' for Inactive)
REMARK    1  A    between atoms: C_7  and  C_8 
REMARK       I    between atoms: C_8  and  N_9 
REMARK    2  A    between atoms: N_9  and  C_10 
REMARK    3  A    between atoms: C_11  and  C_12 
REMARK       I    between atoms: C_12  and  N_13 
REMARK    4  A    between atoms: N_13  and  C_14 
REMARK    5  A    between atoms: C_14  and  C_15 
REMARK    6  A    between atoms: C_15  and  C_16 
REMARK    7  A    between atoms: C_17  and  O_18 
REMARK    8  A    between atoms: C_21  and  O_22 
ROOT
HETATM    1  C   UNL     1     -44.879  58.967 -54.313  1.00  0.00     0.050 A 
HETATM    2  C   UNL     1     -44.629  58.244 -53.137  1.00  0.00     0.058 A 
HETATM    3  C   UNL     1     -45.070  58.750 -51.897  1.00  0.00     0.019 A 
HETATM    4  C   UNL     1     -45.735  59.973 -51.825  1.00  0.00     0.001 A 
HETATM    5  C   UNL     1     -45.936  60.717 -52.983  1.00  0.00     0.002 A 
HETATM    6  C   UNL     1     -45.500  60.224 -54.216  1.00  0.00     0.030 A 
ENDROOT
BRANCH   2   7
HETATM    7  C   UNL     1     -43.696  57.087 -53.076  1.00  0.00     0.253 C 
HETATM    8  N   UNL     1     -42.392  57.408 -52.763  1.00  0.00    -0.356 N 
HETATM    9  H   UNL     1     -42.218  58.296 -52.309  1.00  0.00     0.162 HD
HETATM   10  O   UNL     1     -44.082  55.965 -53.381  1.00  0.00    -0.268 OA
BRANCH   8  11
HETATM   11  C   UNL     1     -41.317  56.439 -52.831  1.00  0.00     0.127 C 
BRANCH  11  12
HETATM   12  C   UNL     1     -41.283  55.473 -51.647  1.00  0.00     0.061 C 
BRANCH  12  13
HETATM   13  C   UNL     1     -40.711  54.131 -52.062  1.00  0.00    -0.023 A 
HETATM   14  C   UNL     1     -39.963  53.331 -51.177  1.00  0.00     0.077 A 
HETATM   15  C   UNL     1     -39.489  52.080 -51.599  1.00  0.00     0.074 A 
HETATM   16  C   UNL     1     -39.760  51.616 -52.889  1.00  0.00     0.070 A 
HETATM   17  C   UNL     1     -40.517  52.401 -53.756  1.00  0.00     0.037 A 
HETATM   18  C   UNL     1     -40.986  53.649 -53.351  1.00  0.00     0.013 A 
BRANCH  14  19
HETATM   19  O   UNL     1     -39.764  53.855 -49.926  1.00  0.00    -0.355 OA
HETATM   20  C   UNL     1     -40.520  53.315 -48.851  1.00  0.00     0.210 C 
ENDBRANCH  14  19
BRANCH  16  21
HETATM   21  O   UNL     1     -39.360  50.415 -53.413  1.00  0.00    -0.356 OA
HETATM   22  C   UNL     1     -40.114  49.907 -54.507  1.00  0.00     0.210 C 
ENDBRANCH  16  21
ENDBRANCH  12  13
ENDBRANCH  11  12
ENDBRANCH   8  11
ENDBRANCH   2   7
BRANCH   1  23
HETATM   23  N   UNL     1     -44.571  58.540 -55.620  1.00  0.00    -0.321 N 
HETATM   24  C   UNL     1     -43.319  58.588 -56.208  1.00  0.00     0.265 C 
HETATM   25  O   UNL     1     -42.298  58.962 -55.638  1.00  0.00    -0.267 OA
HETATM   26  H   UNL     1     -45.228  57.917 -56.079  1.00  0.00     0.169 HD
BRANCH  24  27
HETATM   27  C   UNL     1     -43.279  57.972 -57.600  1.00  0.00     0.097 C 
HETATM   28  C   UNL     1     -43.071  56.645 -57.776  1.00  0.00     0.064 C 
HETATM   29  C   UNL     1     -42.729  55.697 -56.656  1.00  0.00     0.078 C 
HETATM   30  O   UNL     1     -43.097  55.978 -58.994  1.00  0.00    -0.353 OA
HETATM   31  C   UNL     1     -43.730  56.647 -60.084  1.00  0.00     0.185 C 
HETATM   32  C   UNL     1     -43.120  58.011 -60.322  1.00  0.00     0.106 C 
HETATM   33  S   UNL     1     -43.569  59.078 -58.934  1.00  0.00    -0.120 SA
ENDBRANCH  24  27
ENDBRANCH   1  23
TORSDOF 8
ENDMDL
MODEL 10
REMARK VINA RESULT:      -7.6      3.098      4.944
REMARK  8 active torsions:
REMARK  status: ('A' for Active; 'I' for Inactive)
REMARK    1  A    between atoms: C_7  and  C_8 
REMARK       I    between atoms: C_8  and  N_9 
REMARK    2  A    between atoms: N_9  and  C_10 
REMARK    3  A    between atoms: C_11  and  C_12 
REMARK       I    between atoms: C_12  and  N_13 
REMARK    4  A    between atoms: N_13  and  C_14 
REMARK    5  A    between atoms: C_14  and  C_15 
REMARK    6  A    between atoms: C_15  and  C_16 
REMARK    7  A    between atoms: C_17  and  O_18 
REMARK    8  A    between atoms: C_21  and  O_22 
ROOT
HETATM    1  C   UNL     1     -44.038  56.999 -59.632  1.00  0.00     0.050 A 
HETATM    2  C   UNL     1     -43.571  56.082 -58.679  1.00  0.00     0.058 A 
HETATM    3  C   UNL     1     -43.913  54.719 -58.793  1.00  0.00     0.019 A 
HETATM    4  C   UNL     1     -44.727  54.275 -59.836  1.00  0.00     0.001 A 
HETATM    5  C   UNL     1     -45.234  55.191 -60.750  1.00  0.00     0.002 A 
HETATM    6  C   UNL     1     -44.903  56.545 -60.642  1.00  0.00     0.030 A 
ENDROOT
BRANCH   2   7
HETATM    7  C   UNL     1     -42.942  56.492 -57.395  1.00  0.00     0.253 C 
HETATM    8  N   UNL     1     -42.246  55.496 -56.745  1.00  0.00    -0.356 N 
HETATM    9  H   UNL     1     -41.949  54.694 -57.286  1.00  0.00     0.162 HD
HETATM   10  O   UNL     1     -43.134  57.615 -56.944  1.00  0.00    -0.268 OA
BRANCH   8  11
HETATM   11  C   UNL     1     -41.719  55.665 -55.405  1.00  0.00     0.127 C 
BRANCH  11  12
HETATM   12  C   UNL     1     -42.468  54.860 -54.343  1.00  0.00     0.061 C 
BRANCH  12  13
HETATM   13  C   UNL     1     -41.554  53.833 -53.702  1.00  0.00    -0.023 A 
HETATM   14  C   UNL     1     -41.246  53.862 -52.328  1.00  0.00     0.077 A 
HETATM   15  C   UNL     1     -40.426  52.865 -51.776  1.00  0.00     0.074 A 
HETATM   16  C   UNL     1     -39.917  51.840 -52.578  1.00  0.00     0.070 A 
HETATM   17  C   UNL     1     -40.240  51.803 -53.933  1.00  0.00     0.037 A 
HETATM   18  C   UNL     1     -41.047  52.792 -54.493  1.00  0.00     0.013 A 
BRANCH  14  19
HETATM   19  O   UNL     1     -41.805  54.890 -51.615  1.00  0.00    -0.355 OA
HETATM   20  C   UNL     1     -41.022  55.497 -50.597  1.00  0.00     0.210 C 
ENDBRANCH  14  19
BRANCH  16  21
HETATM   21  O   UNL     1     -39.116  50.811 -52.157  1.00  0.00    -0.356 OA
HETATM   22  C   UNL     1     -39.503  50.141 -50.964  1.00  0.00     0.210 C 
ENDBRANCH  16  21
ENDBRANCH  12  13
ENDBRANCH  11  12
ENDBRANCH   8  11
ENDBRANCH   2   7
BRANCH   1  23
HETATM   23  N   UNL     1     -43.706  58.368 -59.686  1.00  0.00    -0.321 N 
HETATM   24  C   UNL     1     -42.529  58.891 -60.193  1.00  0.00     0.265 C 
HETATM   25  O   UNL     1     -41.642  58.224 -60.716  1.00  0.00    -0.267 OA
HETATM   26  H   UNL     1     -44.462  59.039 -59.598  1.00  0.00     0.169 HD
BRANCH  24  27
HETATM   27  C   UNL     1     -42.496  60.414 -60.197  1.00  0.00     0.097 C 
HETATM   28  C   UNL     1     -41.908  61.107 -59.191  1.00  0.00     0.064 C 
HETATM   29  C   UNL     1     -41.370  60.465 -57.938  1.00  0.00     0.078 C 
HETATM   30  O   UNL     1     -41.757  62.486 -59.142  1.00  0.00    -0.353 OA
HETATM   31  C   UNL     1     -41.898  63.196 -60.372  1.00  0.00     0.185 C 
HETATM   32  C   UNL     1     -43.231  62.905 -61.025  1.00  0.00     0.106 C 
HETATM   33  S   UNL     1     -43.215  61.190 -61.598  1.00  0.00    -0.120 SA
ENDBRANCH  24  27
ENDBRANCH   1  23
TORSDOF 8
ENDMDL
