MODEL 1
REMARK VINA RESULT:      -7.5      0.000      0.000
REMARK  11 active torsions:
REMARK  status: ('A' for Active; 'I' for Inactive)
REMARK    1  A    between atoms: C_2  and  O_3 
REMARK    2  A    between atoms: O_3  and  C_4 
REMARK    3  A    between atoms: C_7  and  N_8 
REMARK    4  A    between atoms: C_9  and  S_10 
REMARK    5  A    between atoms: S_10  and  C_11 
REMARK    6  A    between atoms: C_11  and  C_12 
REMARK       I    between atoms: C_12  and  N_13 
REMARK    7  A    between atoms: N_13  and  C_14 
REMARK    8  A    between atoms: C_15  and  C_16 
REMARK    9  A    between atoms: C_16  and  O_17 
REMARK   10  A    between atoms: O_17  and  C_18 
REMARK   11  A    between atoms: C_29  and  N_30 
ROOT
HETATM    1  N   UNL     1     -40.812  53.800 -52.674  1.00  0.00    -0.276 N 
HETATM    2  C   UNL     1     -40.963  54.027 -51.280  1.00  0.00     0.177 C 
HETATM    3  N   UNL     1     -40.808  53.132 -50.342  1.00  0.00    -0.204 NA
HETATM    4  C   UNL     1     -40.409  51.922 -50.785  1.00  0.00     0.162 A 
HETATM    5  C   UNL     1     -40.083  51.538 -52.055  1.00  0.00     0.081 A 
HETATM    6  C   UNL     1     -40.271  52.507 -53.090  1.00  0.00     0.124 C 
HETATM    7  N   UNL     1     -40.163  50.835 -49.999  1.00  0.00    -0.260 N 
HETATM    8  H   UNL     1     -40.277  50.755 -48.993  1.00  0.00     0.191 HD
HETATM    9  N   UNL     1     -39.663  49.790 -50.698  1.00  0.00    -0.177 NA
HETATM   10  C   UNL     1     -39.614  50.220 -51.969  1.00  0.00     0.068 A 
HETATM   11  C   UNL     1     -39.092  49.321 -53.024  1.00  0.00     0.073 C 
ENDROOT
BRANCH   2  12
HETATM   12  S   UNL     1     -41.195  55.679 -50.673  1.00  0.00    -0.082 SA
BRANCH  12  13
HETATM   13  C   UNL     1     -42.986  55.791 -50.391  1.00  0.00     0.185 C 
BRANCH  13  14
HETATM   14  C   UNL     1     -43.773  56.850 -51.164  1.00  0.00     0.231 C 
HETATM   15  N   UNL     1     -43.155  57.411 -52.273  1.00  0.00    -0.326 N 
HETATM   16  H   UNL     1     -42.150  57.313 -52.260  1.00  0.00     0.169 HD
HETATM   17  O   UNL     1     -44.886  57.188 -50.757  1.00  0.00    -0.272 OA
BRANCH  15  18
HETATM   18  C   UNL     1     -43.667  58.577 -52.897  1.00  0.00     0.051 A 
HETATM   19  C   UNL     1     -43.200  59.882 -52.664  1.00  0.00     0.066 A 
HETATM   20  C   UNL     1     -43.659  60.935 -53.477  1.00  0.00     0.020 A 
HETATM   21  C   UNL     1     -44.591  60.701 -54.489  1.00  0.00     0.001 A 
HETATM   22  C   UNL     1     -45.113  59.424 -54.664  1.00  0.00     0.002 A 
HETATM   23  C   UNL     1     -44.669  58.373 -53.860  1.00  0.00     0.030 A 
BRANCH  19  24
HETATM   24  C   UNL     1     -42.402  60.212 -51.452  1.00  0.00     0.295 C 
HETATM   25  O   UNL     1     -42.659  61.142 -50.703  1.00  0.00    -0.259 OA
BRANCH  24  26
HETATM   26  O   UNL     1     -41.310  59.406 -51.383  1.00  0.00    -0.318 OA
BRANCH  26  27
HETATM   27  C   UNL     1     -40.553  59.496 -50.169  1.00  0.00     0.174 C 
HETATM   28  C   UNL     1     -39.073  59.658 -50.456  1.00  0.00     0.034 C 
ENDBRANCH  26  27
ENDBRANCH  24  26
ENDBRANCH  19  24
ENDBRANCH  15  18
ENDBRANCH  13  14
ENDBRANCH  12  13
ENDBRANCH   2  12
BRANCH   1  29
HETATM   29  C   UNL     1     -41.515  54.589 -53.640  1.00  0.00     0.043 A 
HETATM   30  C   UNL     1     -40.893  55.597 -54.382  1.00  0.00     0.033 A 
HETATM   31  C   UNL     1     -41.590  56.251 -55.405  1.00  0.00     0.039 A 
HETATM   32  C   UNL     1     -42.898  55.882 -55.728  1.00  0.00     0.068 A 
HETATM   33  C   UNL     1     -43.538  54.902 -54.975  1.00  0.00     0.039 A 
HETATM   34  C   UNL     1     -42.852  54.264 -53.940  1.00  0.00     0.033 A 
BRANCH  32  35
HETATM   35  O   UNL     1     -43.469  56.556 -56.770  1.00  0.00    -0.352 OA
BRANCH  35  36
HETATM   36  C   UNL     1     -42.633  57.538 -57.391  1.00  0.00     0.171 C 
HETATM   37  C   UNL     1     -42.592  57.254 -58.881  1.00  0.00     0.034 C 
ENDBRANCH  35  36
ENDBRANCH  32  35
ENDBRANCH   1  29
BRANCH   6  38
HETATM   38  N   UNL     1     -39.964  52.244 -54.346  1.00  0.00    -0.384 N 
HETATM   39  H   UNL     1     -40.610  51.789 -54.972  1.00  0.00     0.157 HD
HETATM   40  H   UNL     1     -39.043  52.480 -54.693  1.00  0.00     0.157 HD
ENDBRANCH   6  38
TORSDOF 11
ENDMDL
MODEL 2
REMARK VINA RESULT:      -7.3      3.205      6.166
REMARK  11 active torsions:
REMARK  status: ('A' for Active; 'I' for Inactive)
REMARK    1  A    between atoms: C_2  and  O_3 
REMARK    2  A    between atoms: O_3  and  C_4 
REMARK    3  A    between atoms: C_7  and  N_8 
REMARK    4  A    between atoms: C_9  and  S_10 
REMARK    5  A    between atoms: S_10  and  C_11 
REMARK    6  A    between atoms: C_11  and  C_12 
REMARK       I    between atoms: C_12  and  N_13 
REMARK    7  A    between atoms: N_13  and  C_14 
REMARK    8  A    between atoms: C_15  and  C_16 
REMARK    9  A    between atoms: C_16  and  O_17 
REMARK   10  A    between atoms: O_17  and  C_18 
REMARK   11  A    between atoms: C_29  and  N_30 
ROOT
HETATM    1  N   UNL     1     -42.001  57.144 -54.218  1.00  0.00    -0.276 N 
HETATM    2  C   UNL     1     -41.281  58.356 -54.044  1.00  0.00     0.177 C 
HETATM    3  N   UNL     1     -41.414  59.432 -54.773  1.00  0.00    -0.204 NA
HETATM    4  C   UNL     1     -42.376  59.352 -55.715  1.00  0.00     0.162 A 
HETATM    5  C   UNL     1     -43.261  58.340 -55.956  1.00  0.00     0.081 A 
HETATM    6  C   UNL     1     -43.106  57.150 -55.176  1.00  0.00     0.124 C 
HETATM    7  N   UNL     1     -42.716  60.349 -56.583  1.00  0.00    -0.260 N 
HETATM    8  H   UNL     1     -42.284  61.263 -56.681  1.00  0.00     0.191 HD
HETATM    9  N   UNL     1     -43.793  60.036 -57.338  1.00  0.00    -0.177 NA
HETATM   10  C   UNL     1     -44.131  58.794 -56.955  1.00  0.00     0.068 A 
HETATM   11  C   UNL     1     -45.301  58.131 -57.576  1.00  0.00     0.073 C 
ENDROOT
BRANCH   2  12
HETATM   12  S   UNL     1     -40.233  58.567 -52.628  1.00  0.00    -0.082 SA
BRANCH  12  13
HETATM   13  C   UNL     1     -41.395  58.652 -51.234  1.00  0.00     0.185 C 
BRANCH  13  14
HETATM   14  C   UNL     1     -42.567  59.628 -51.332  1.00  0.00     0.231 C 
HETATM   15  N   UNL     1     -43.791  59.108 -51.731  1.00  0.00    -0.326 N 
HETATM   16  H   UNL     1     -43.708  58.231 -52.227  1.00  0.00     0.169 HD
HETATM   17  O   UNL     1     -42.376  60.823 -51.099  1.00  0.00    -0.272 OA
BRANCH  15  18
HETATM   18  C   UNL     1     -44.866  59.949 -52.115  1.00  0.00     0.051 A 
HETATM   19  C   UNL     1     -45.751  60.577 -51.222  1.00  0.00     0.066 A 
HETATM   20  C   UNL     1     -46.662  61.533 -51.710  1.00  0.00     0.020 A 
HETATM   21  C   UNL     1     -46.715  61.838 -53.070  1.00  0.00     0.001 A 
HETATM   22  C   UNL     1     -45.896  61.155 -53.963  1.00  0.00     0.002 A 
HETATM   23  C   UNL     1     -44.992  60.202 -53.491  1.00  0.00     0.030 A 
BRANCH  19  24
HETATM   24  C   UNL     1     -45.893  60.107 -49.817  1.00  0.00     0.295 C 
HETATM   25  O   UNL     1     -46.012  58.933 -49.504  1.00  0.00    -0.259 OA
BRANCH  24  26
HETATM   26  O   UNL     1     -45.983  61.173 -48.978  1.00  0.00    -0.318 OA
BRANCH  26  27
HETATM   27  C   UNL     1     -44.833  61.411 -48.157  1.00  0.00     0.174 C 
HETATM   28  C   UNL     1     -45.091  61.003 -46.720  1.00  0.00     0.034 C 
ENDBRANCH  26  27
ENDBRANCH  24  26
ENDBRANCH  19  24
ENDBRANCH  15  18
ENDBRANCH  13  14
ENDBRANCH  12  13
ENDBRANCH   2  12
BRANCH   1  29
HETATM   29  C   UNL     1     -41.453  55.885 -53.816  1.00  0.00     0.043 A 
HETATM   30  C   UNL     1     -41.799  55.266 -52.611  1.00  0.00     0.033 A 
HETATM   31  C   UNL     1     -41.337  53.976 -52.324  1.00  0.00     0.039 A 
HETATM   32  C   UNL     1     -40.559  53.273 -53.247  1.00  0.00     0.068 A 
HETATM   33  C   UNL     1     -40.181  53.891 -54.435  1.00  0.00     0.039 A 
HETATM   34  C   UNL     1     -40.624  55.186 -54.714  1.00  0.00     0.033 A 
BRANCH  32  35
HETATM   35  O   UNL     1     -40.198  52.007 -52.883  1.00  0.00    -0.352 OA
BRANCH  35  36
HETATM   36  C   UNL     1     -39.382  51.310 -53.830  1.00  0.00     0.171 C 
HETATM   37  C   UNL     1     -40.122  50.058 -54.265  1.00  0.00     0.034 C 
ENDBRANCH  35  36
ENDBRANCH  32  35
ENDBRANCH   1  29
BRANCH   6  38
HETATM   38  N   UNL     1     -43.923  56.123 -55.314  1.00  0.00    -0.384 N 
HETATM   39  H   UNL     1     -44.849  56.222 -55.700  1.00  0.00     0.157 HD
HETATM   40  H   UNL     1     -43.627  55.206 -55.001  1.00  0.00     0.157 HD
ENDBRANCH   6  38
TORSDOF 11
ENDMDL
MODEL 3
REMARK VINA RESULT:      -7.3      2.624      6.055
REMARK  11 active torsions:
REMARK  status: ('A' for Active; 'I' for Inactive)
REMARK    1  A    between atoms: C_2  and  O_3 
REMARK    2  A    between atoms: O_3  and  C_4 
REMARK    3  A    between atoms: C_7  and  N_8 
REMARK    4  A    between atoms: C_9  and  S_10 
REMARK    5  A    between atoms: S_10  and  C_11 
REMARK    6  A    between atoms: C_11  and  C_12 
REMARK       I    between atoms: C_12  and  N_13 
REMARK    7  A    between atoms: N_13  and  C_14 
REMARK    8  A    between atoms: C_15  and  C_16 
REMARK    9  A    between atoms: C_16  and  O_17 
REMARK   10  A    between atoms: O_17  and  C_18 
REMARK   11  A    between atoms: C_29  and  N_30 
ROOT
HETATM    1  N   UNL     1     -42.567  55.797 -52.503  1.00  0.00    -0.276 N 
HETATM    2  C   UNL     1     -42.505  54.701 -53.404  1.00  0.00     0.177 C 
HETATM    3  N   UNL     1     -41.829  53.599 -53.217  1.00  0.00    -0.204 NA
HETATM    4  C   UNL     1     -41.206  53.522 -52.024  1.00  0.00     0.162 A 
HETATM    5  C   UNL     1     -41.248  54.397 -50.976  1.00  0.00     0.081 A 
HETATM    6  C   UNL     1     -41.969  55.615 -51.182  1.00  0.00     0.124 C 
HETATM    7  N   UNL     1     -40.457  52.467 -51.590  1.00  0.00    -0.260 N 
HETATM    8  H   UNL     1     -40.224  51.619 -52.098  1.00  0.00     0.191 HD
HETATM    9  N   UNL     1     -40.051  52.610 -50.308  1.00  0.00    -0.177 NA
HETATM   10  C   UNL     1     -40.535  53.802 -49.926  1.00  0.00     0.068 A 
HETATM   11  C   UNL     1     -40.289  54.281 -48.546  1.00  0.00     0.073 C 
ENDROOT
BRANCH   2  12
HETATM   12  S   UNL     1     -43.555  54.672 -54.835  1.00  0.00    -0.082 SA
BRANCH  12  13
HETATM   13  C   UNL     1     -42.490  55.293 -56.169  1.00  0.00     0.185 C 
BRANCH  13  14
HETATM   14  C   UNL     1     -43.020  56.427 -57.046  1.00  0.00     0.231 C 
HETATM   15  N   UNL     1     -42.433  56.591 -58.293  1.00  0.00    -0.326 N 
HETATM   16  H   UNL     1     -41.515  56.172 -58.357  1.00  0.00     0.169 HD
HETATM   17  O   UNL     1     -43.903  57.166 -56.605  1.00  0.00    -0.272 OA
BRANCH  15  18
HETATM   18  C   UNL     1     -42.649  57.756 -59.070  1.00  0.00     0.051 A 
HETATM   19  C   UNL     1     -43.728  57.944 -59.952  1.00  0.00     0.066 A 
HETATM   20  C   UNL     1     -43.937  59.211 -60.527  1.00  0.00     0.020 A 
HETATM   21  C   UNL     1     -43.071  60.270 -60.255  1.00  0.00     0.001 A 
HETATM   22  C   UNL     1     -41.957  60.060 -59.447  1.00  0.00     0.002 A 
HETATM   23  C   UNL     1     -41.737  58.807 -58.876  1.00  0.00     0.030 A 
BRANCH  19  24
HETATM   24  C   UNL     1     -44.523  56.791 -60.454  1.00  0.00     0.295 C 
HETATM   25  O   UNL     1     -44.025  55.763 -60.890  1.00  0.00    -0.259 OA
BRANCH  24  26
HETATM   26  O   UNL     1     -45.844  57.105 -60.459  1.00  0.00    -0.318 OA
BRANCH  26  27
HETATM   27  C   UNL     1     -46.524  56.932 -59.208  1.00  0.00     0.174 C 
HETATM   28  C   UNL     1     -47.060  58.251 -58.688  1.00  0.00     0.034 C 
ENDBRANCH  26  27
ENDBRANCH  24  26
ENDBRANCH  19  24
ENDBRANCH  15  18
ENDBRANCH  13  14
ENDBRANCH  12  13
ENDBRANCH   2  12
BRANCH   1  29
HETATM   29  C   UNL     1     -42.814  57.129 -52.963  1.00  0.00     0.043 A 
HETATM   30  C   UNL     1     -41.831  57.902 -53.589  1.00  0.00     0.033 A 
HETATM   31  C   UNL     1     -42.158  59.148 -54.138  1.00  0.00     0.039 A 
HETATM   32  C   UNL     1     -43.472  59.621 -54.105  1.00  0.00     0.068 A 
HETATM   33  C   UNL     1     -44.452  58.876 -53.457  1.00  0.00     0.039 A 
HETATM   34  C   UNL     1     -44.123  57.642 -52.891  1.00  0.00     0.033 A 
BRANCH  32  35
HETATM   35  O   UNL     1     -43.687  60.828 -54.707  1.00  0.00    -0.352 OA
BRANCH  35  36
HETATM   36  C   UNL     1     -43.378  60.876 -56.103  1.00  0.00     0.171 C 
HETATM   37  C   UNL     1     -44.652  60.601 -56.881  1.00  0.00     0.034 C 
ENDBRANCH  35  36
ENDBRANCH  32  35
ENDBRANCH   1  29
BRANCH   6  38
HETATM   38  N   UNL     1     -42.089  56.516 -50.225  1.00  0.00    -0.384 N 
HETATM   39  H   UNL     1     -41.416  57.255 -50.096  1.00  0.00     0.157 HD
HETATM   40  H   UNL     1     -42.867  56.455 -49.579  1.00  0.00     0.157 HD
ENDBRANCH   6  38
TORSDOF 11
ENDMDL
MODEL 4
REMARK VINA RESULT:      -7.2      2.669      7.679
REMARK  11 active torsions:
REMARK  status: ('A' for Active; 'I' for Inactive)
REMARK    1  A    between atoms: C_2  and  O_3 
REMARK    2  A    between atoms: O_3  and  C_4 
REMARK    3  A    between atoms: C_7  and  N_8 
REMARK    4  A    between atoms: C_9  and  S_10 
REMARK    5  A    between atoms: S_10  and  C_11 
REMARK    6  A    between atoms: C_11  and  C_12 
REMARK       I    between atoms: C_12  and  N_13 
REMARK    7  A    between atoms: N_13  and  C_14 
REMARK    8  A    between atoms: C_15  and  C_16 
REMARK    9  A    between atoms: C_16  and  O_17 
REMARK   10  A    between atoms: O_17  and  C_18 
REMARK   11  A    between atoms: C_29  and  N_30 
ROOT
HETATM    1  N   UNL     1     -43.581  58.690 -53.795  1.00  0.00    -0.276 N 
HETATM    2  C   UNL     1     -42.819  58.292 -52.663  1.00  0.00     0.177 C 
HETATM    3  N   UNL     1     -43.055  58.642 -51.427  1.00  0.00    -0.204 NA
HETATM    4  C   UNL     1     -44.163  59.392 -51.260  1.00  0.00     0.162 A 
HETATM    5  C   UNL     1     -45.094  59.766 -52.187  1.00  0.00     0.081 A 
HETATM    6  C   UNL     1     -44.831  59.406 -53.546  1.00  0.00     0.124 C 
HETATM    7  N   UNL     1     -44.626  59.861 -50.065  1.00  0.00    -0.260 N 
HETATM    8  H   UNL     1     -44.201  59.758 -49.149  1.00  0.00     0.191 HD
HETATM    9  N   UNL     1     -45.822  60.484 -50.179  1.00  0.00    -0.177 NA
HETATM   10  C   UNL     1     -46.112  60.430 -51.489  1.00  0.00     0.068 A 
HETATM   11  C   UNL     1     -47.382  61.013 -51.980  1.00  0.00     0.073 C 
ENDROOT
BRANCH   2  12
HETATM   12  S   UNL     1     -41.543  57.072 -52.840  1.00  0.00    -0.082 SA
BRANCH  12  13
HETATM   13  C   UNL     1     -41.669  56.086 -51.319  1.00  0.00     0.185 C 
BRANCH  13  14
HETATM   14  C   UNL     1     -41.568  54.565 -51.436  1.00  0.00     0.231 C 
HETATM   15  N   UNL     1     -40.324  54.037 -51.751  1.00  0.00    -0.326 N 
HETATM   16  H   UNL     1     -39.707  54.706 -52.190  1.00  0.00     0.169 HD
HETATM   17  O   UNL     1     -42.584  53.883 -51.290  1.00  0.00    -0.272 OA
BRANCH  15  18
HETATM   18  C   UNL     1     -40.170  52.684 -52.147  1.00  0.00     0.051 A 
HETATM   19  C   UNL     1     -40.149  52.235 -53.478  1.00  0.00     0.066 A 
HETATM   20  C   UNL     1     -39.806  50.898 -53.751  1.00  0.00     0.020 A 
HETATM   21  C   UNL     1     -39.517  50.010 -52.715  1.00  0.00     0.001 A 
HETATM   22  C   UNL     1     -39.619  50.435 -51.394  1.00  0.00     0.002 A 
HETATM   23  C   UNL     1     -39.963  51.757 -51.111  1.00  0.00     0.030 A 
BRANCH  19  24
HETATM   24  C   UNL     1     -40.683  53.076 -54.584  1.00  0.00     0.295 C 
HETATM   25  O   UNL     1     -39.979  53.720 -55.347  1.00  0.00    -0.259 OA
BRANCH  24  26
HETATM   26  O   UNL     1     -42.041  53.101 -54.533  1.00  0.00    -0.318 OA
BRANCH  26  27
HETATM   27  C   UNL     1     -42.662  54.224 -55.174  1.00  0.00     0.174 C 
HETATM   28  C   UNL     1     -43.914  54.653 -54.435  1.00  0.00     0.034 C 
ENDBRANCH  26  27
ENDBRANCH  24  26
ENDBRANCH  19  24
ENDBRANCH  15  18
ENDBRANCH  13  14
ENDBRANCH  12  13
ENDBRANCH   2  12
BRANCH   1  29
HETATM   29  C   UNL     1     -42.995  58.770 -55.098  1.00  0.00     0.043 A 
HETATM   30  C   UNL     1     -43.163  57.770 -56.060  1.00  0.00     0.033 A 
HETATM   31  C   UNL     1     -42.680  57.956 -57.361  1.00  0.00     0.039 A 
HETATM   32  C   UNL     1     -42.062  59.153 -57.730  1.00  0.00     0.068 A 
HETATM   33  C   UNL     1     -41.860  60.142 -56.773  1.00  0.00     0.039 A 
HETATM   34  C   UNL     1     -42.322  59.950 -55.469  1.00  0.00     0.033 A 
BRANCH  32  35
HETATM   35  O   UNL     1     -41.667  59.243 -59.035  1.00  0.00    -0.352 OA
BRANCH  35  36
HETATM   36  C   UNL     1     -42.453  58.488 -59.962  1.00  0.00     0.171 C 
HETATM   37  C   UNL     1     -43.453  59.427 -60.613  1.00  0.00     0.034 C 
ENDBRANCH  35  36
ENDBRANCH  32  35
ENDBRANCH   1  29
BRANCH   6  38
HETATM   38  N   UNL     1     -45.678  59.699 -54.514  1.00  0.00    -0.384 N 
HETATM   39  H   UNL     1     -45.807  59.100 -55.314  1.00  0.00     0.157 HD
HETATM   40  H   UNL     1     -46.201  60.566 -54.472  1.00  0.00     0.157 HD
ENDBRANCH   6  38
TORSDOF 11
ENDMDL
MODEL 5
REMARK VINA RESULT:      -7.2      4.012      8.638
REMARK  11 active torsions:
REMARK  status: ('A' for Active; 'I' for Inactive)
REMARK    1  A    between atoms: C_2  and  O_3 
REMARK    2  A    between atoms: O_3  and  C_4 
REMARK    3  A    between atoms: C_7  and  N_8 
REMARK    4  A    between atoms: C_9  and  S_10 
REMARK    5  A    between atoms: S_10  and  C_11 
REMARK    6  A    between atoms: C_11  and  C_12 
REMARK       I    between atoms: C_12  and  N_13 
REMARK    7  A    between atoms: N_13  and  C_14 
REMARK    8  A    between atoms: C_15  and  C_16 
REMARK    9  A    between atoms: C_16  and  O_17 
REMARK   10  A    between atoms: O_17  and  C_18 
REMARK   11  A    between atoms: C_29  and  N_30 
ROOT
HETATM    1  N   UNL     1     -44.612  58.344 -57.169  1.00  0.00    -0.276 N 
HETATM    2  C   UNL     1     -44.085  57.326 -58.008  1.00  0.00     0.177 C 
HETATM    3  N   UNL     1     -44.604  56.925 -59.137  1.00  0.00    -0.204 NA
HETATM    4  C   UNL     1     -45.698  57.614 -59.524  1.00  0.00     0.162 A 
HETATM    5  C   UNL     1     -46.280  58.701 -58.936  1.00  0.00     0.081 A 
HETATM    6  C   UNL     1     -45.729  59.131 -57.688  1.00  0.00     0.124 C 
HETATM    7  N   UNL     1     -46.404  57.396 -60.671  1.00  0.00    -0.260 N 
HETATM    8  H   UNL     1     -46.247  56.677 -61.371  1.00  0.00     0.191 HD
HETATM    9  N   UNL     1     -47.382  58.310 -60.861  1.00  0.00    -0.177 NA
HETATM   10  C   UNL     1     -47.311  59.117 -59.790  1.00  0.00     0.068 A 
HETATM   11  C   UNL     1     -48.243  60.262 -59.675  1.00  0.00     0.073 C 
ENDROOT
BRANCH   2  12
HETATM   12  S   UNL     1     -42.493  56.625 -57.655  1.00  0.00    -0.082 SA
BRANCH  12  13
HETATM   13  C   UNL     1     -42.874  55.166 -56.641  1.00  0.00     0.185 C 
BRANCH  13  14
HETATM   14  C   UNL     1     -42.240  55.067 -55.254  1.00  0.00     0.231 C 
HETATM   15  N   UNL     1     -42.571  53.960 -54.485  1.00  0.00    -0.326 N 
HETATM   16  H   UNL     1     -43.432  53.517 -54.776  1.00  0.00     0.169 HD
HETATM   17  O   UNL     1     -41.508  55.977 -54.861  1.00  0.00    -0.272 OA
BRANCH  15  18
HETATM   18  C   UNL     1     -42.266  53.896 -53.102  1.00  0.00     0.051 A 
HETATM   19  C   UNL     1     -41.081  53.364 -52.566  1.00  0.00     0.066 A 
HETATM   20  C   UNL     1     -40.812  53.523 -51.193  1.00  0.00     0.020 A 
HETATM   21  C   UNL     1     -41.720  54.176 -50.359  1.00  0.00     0.001 A 
HETATM   22  C   UNL     1     -42.929  54.629 -50.877  1.00  0.00     0.002 A 
HETATM   23  C   UNL     1     -43.209  54.472 -52.235  1.00  0.00     0.030 A 
BRANCH  19  24
HETATM   24  C   UNL     1     -40.212  52.457 -53.364  1.00  0.00     0.295 C 
HETATM   25  O   UNL     1     -40.337  52.283 -54.566  1.00  0.00    -0.259 OA
BRANCH  24  26
HETATM   26  O   UNL     1     -39.360  51.789 -52.542  1.00  0.00    -0.318 OA
BRANCH  26  27
HETATM   27  C   UNL     1     -39.561  50.372 -52.466  1.00  0.00     0.174 C 
HETATM   28  C   UNL     1     -39.604  49.900 -51.026  1.00  0.00     0.034 C 
ENDBRANCH  26  27
ENDBRANCH  24  26
ENDBRANCH  19  24
ENDBRANCH  15  18
ENDBRANCH  13  14
ENDBRANCH  12  13
ENDBRANCH   2  12
BRANCH   1  29
HETATM   29  C   UNL     1     -44.370  58.349 -55.758  1.00  0.00     0.043 A 
HETATM   30  C   UNL     1     -45.085  57.540 -54.871  1.00  0.00     0.033 A 
HETATM   31  C   UNL     1     -44.723  57.485 -53.519  1.00  0.00     0.039 A 
HETATM   32  C   UNL     1     -43.623  58.202 -53.045  1.00  0.00     0.068 A 
HETATM   33  C   UNL     1     -42.924  59.037 -53.911  1.00  0.00     0.039 A 
HETATM   34  C   UNL     1     -43.296  59.109 -55.256  1.00  0.00     0.033 A 
BRANCH  32  35
HETATM   35  O   UNL     1     -43.333  58.043 -51.719  1.00  0.00    -0.352 OA
BRANCH  35  36
HETATM   36  C   UNL     1     -42.276  58.870 -51.223  1.00  0.00     0.171 C 
HETATM   37  C   UNL     1     -41.171  57.969 -50.702  1.00  0.00     0.034 C 
ENDBRANCH  35  36
ENDBRANCH  32  35
ENDBRANCH   1  29
BRANCH   6  38
HETATM   38  N   UNL     1     -46.203  60.184 -57.051  1.00  0.00    -0.384 N 
HETATM   39  H   UNL     1     -46.019  60.349 -56.073  1.00  0.00     0.157 HD
HETATM   40  H   UNL     1     -46.793  60.842 -57.547  1.00  0.00     0.157 HD
ENDBRANCH   6  38
TORSDOF 11
ENDMDL
MODEL 6
REMARK VINA RESULT:      -7.0      2.820      8.295
REMARK  11 active torsions:
REMARK  status: ('A' for Active; 'I' for Inactive)
REMARK    1  A    between atoms: C_2  and  O_3 
REMARK    2  A    between atoms: O_3  and  C_4 
REMARK    3  A    between atoms: C_7  and  N_8 
REMARK    4  A    between atoms: C_9  and  S_10 
REMARK    5  A    between atoms: S_10  and  C_11 
REMARK    6  A    between atoms: C_11  and  C_12 
REMARK       I    between atoms: C_12  and  N_13 
REMARK    7  A    between atoms: N_13  and  C_14 
REMARK    8  A    between atoms: C_15  and  C_16 
REMARK    9  A    between atoms: C_16  and  O_17 
REMARK   10  A    between atoms: O_17  and  C_18 
REMARK   11  A    between atoms: C_29  and  N_30 
ROOT
HETATM    1  N   UNL     1     -44.221  59.335 -52.663  1.00  0.00    -0.276 N 
HETATM    2  C   UNL     1     -44.587  57.963 -52.634  1.00  0.00     0.177 C 
HETATM    3  N   UNL     1     -44.918  57.241 -53.672  1.00  0.00    -0.204 NA
HETATM    4  C   UNL     1     -44.827  57.887 -54.853  1.00  0.00     0.162 A 
HETATM    5  C   UNL     1     -44.373  59.150 -55.108  1.00  0.00     0.081 A 
HETATM    6  C   UNL     1     -44.030  59.952 -53.975  1.00  0.00     0.124 C 
HETATM    7  N   UNL     1     -45.100  57.342 -56.074  1.00  0.00    -0.260 N 
HETATM    8  H   UNL     1     -45.444  56.408 -56.276  1.00  0.00     0.191 HD
HETATM    9  N   UNL     1     -44.810  58.181 -57.094  1.00  0.00    -0.177 NA
HETATM   10  C   UNL     1     -44.363  59.300 -56.501  1.00  0.00     0.068 A 
HETATM   11  C   UNL     1     -43.931  60.445 -57.335  1.00  0.00     0.073 C 
ENDROOT
BRANCH   2  12
HETATM   12  S   UNL     1     -44.423  57.035 -51.131  1.00  0.00    -0.082 SA
BRANCH  12  13
HETATM   13  C   UNL     1     -42.679  56.526 -51.121  1.00  0.00     0.185 C 
BRANCH  13  14
HETATM   14  C   UNL     1     -42.347  55.084 -51.507  1.00  0.00     0.231 C 
HETATM   15  N   UNL     1     -41.018  54.794 -51.784  1.00  0.00    -0.326 N 
HETATM   16  H   UNL     1     -40.474  55.611 -52.024  1.00  0.00     0.169 HD
HETATM   17  O   UNL     1     -43.260  54.261 -51.598  1.00  0.00    -0.272 OA
BRANCH  15  18
HETATM   18  C   UNL     1     -40.637  53.578 -52.406  1.00  0.00     0.051 A 
HETATM   19  C   UNL     1     -40.658  53.345 -53.792  1.00  0.00     0.066 A 
HETATM   20  C   UNL     1     -40.084  52.166 -54.303  1.00  0.00     0.020 A 
HETATM   21  C   UNL     1     -39.522  51.218 -53.447  1.00  0.00     0.001 A 
HETATM   22  C   UNL     1     -39.576  51.412 -52.071  1.00  0.00     0.002 A 
HETATM   23  C   UNL     1     -40.148  52.575 -51.553  1.00  0.00     0.030 A 
BRANCH  19  24
HETATM   24  C   UNL     1     -41.456  54.206 -54.707  1.00  0.00     0.295 C 
HETATM   25  O   UNL     1     -42.492  53.846 -55.245  1.00  0.00    -0.259 OA
BRANCH  24  26
HETATM   26  O   UNL     1     -40.803  55.376 -54.930  1.00  0.00    -0.318 OA
BRANCH  26  27
HETATM   27  C   UNL     1     -41.628  56.549 -54.957  1.00  0.00     0.174 C 
HETATM   28  C   UNL     1     -41.082  57.625 -54.040  1.00  0.00     0.034 C 
ENDBRANCH  26  27
ENDBRANCH  24  26
ENDBRANCH  19  24
ENDBRANCH  15  18
ENDBRANCH  13  14
ENDBRANCH  12  13
ENDBRANCH   2  12
BRANCH   1  29
HETATM   29  C   UNL     1     -44.425  60.186 -51.531  1.00  0.00     0.043 A 
HETATM   30  C   UNL     1     -45.694  60.625 -51.141  1.00  0.00     0.033 A 
HETATM   31  C   UNL     1     -45.855  61.348 -49.953  1.00  0.00     0.039 A 
HETATM   32  C   UNL     1     -44.763  61.607 -49.121  1.00  0.00     0.068 A 
HETATM   33  C   UNL     1     -43.491  61.204 -49.515  1.00  0.00     0.039 A 
HETATM   34  C   UNL     1     -43.326  60.501 -50.710  1.00  0.00     0.033 A 
BRANCH  32  35
HETATM   35  O   UNL     1     -45.039  62.283 -47.966  1.00  0.00    -0.352 OA
BRANCH  35  36
HETATM   36  C   UNL     1     -45.734  61.527 -46.970  1.00  0.00     0.171 C 
HETATM   37  C   UNL     1     -44.710  60.949 -46.011  1.00  0.00     0.034 C 
ENDBRANCH  35  36
ENDBRANCH  32  35
ENDBRANCH   1  29
BRANCH   6  38
HETATM   38  N   UNL     1     -43.560  61.177 -54.114  1.00  0.00    -0.384 N 
HETATM   39  H   UNL     1     -43.438  61.798 -53.328  1.00  0.00     0.157 HD
HETATM   40  H   UNL     1     -43.335  61.522 -55.040  1.00  0.00     0.157 HD
ENDBRANCH   6  38
TORSDOF 11
ENDMDL
MODEL 7
REMARK VINA RESULT:      -7.0      2.668      7.367
REMARK  11 active torsions:
REMARK  status: ('A' for Active; 'I' for Inactive)
REMARK    1  A    between atoms: C_2  and  O_3 
REMARK    2  A    between atoms: O_3  and  C_4 
REMARK    3  A    between atoms: C_7  and  N_8 
REMARK    4  A    between atoms: C_9  and  S_10 
REMARK    5  A    between atoms: S_10  and  C_11 
REMARK    6  A    between atoms: C_11  and  C_12 
REMARK       I    between atoms: C_12  and  N_13 
REMARK    7  A    between atoms: N_13  and  C_14 
REMARK    8  A    between atoms: C_15  and  C_16 
REMARK    9  A    between atoms: C_16  and  O_17 
REMARK   10  A    between atoms: O_17  and  C_18 
REMARK   11  A    between atoms: C_29  and  N_30 
ROOT
HETATM    1  N   UNL     1     -44.981  58.938 -54.117  1.00  0.00    -0.276 N 
HETATM    2  C   UNL     1     -44.528  57.852 -53.321  1.00  0.00     0.177 C 
HETATM    3  N   UNL     1     -44.504  57.824 -52.015  1.00  0.00    -0.204 NA
HETATM    4  C   UNL     1     -45.023  58.919 -51.423  1.00  0.00     0.162 A 
HETATM    5  C   UNL     1     -45.625  60.002 -51.998  1.00  0.00     0.081 A 
HETATM    6  C   UNL     1     -45.635  60.049 -53.428  1.00  0.00     0.124 C 
HETATM    7  N   UNL     1     -45.126  59.114 -50.076  1.00  0.00    -0.260 N 
HETATM    8  H   UNL     1     -44.801  58.505 -49.332  1.00  0.00     0.191 HD
HETATM    9  N   UNL     1     -45.794  60.249 -49.766  1.00  0.00    -0.177 NA
HETATM   10  C   UNL     1     -46.102  60.801 -50.950  1.00  0.00     0.068 A 
HETATM   11  C   UNL     1     -46.864  62.070 -50.988  1.00  0.00     0.073 C 
ENDROOT
BRANCH   2  12
HETATM   12  S   UNL     1     -44.123  56.303 -54.086  1.00  0.00    -0.082 SA
BRANCH  12  13
HETATM   13  C   UNL     1     -42.373  56.485 -54.539  1.00  0.00     0.185 C 
BRANCH  13  14
HETATM   14  C   UNL     1     -41.401  55.383 -54.117  1.00  0.00     0.231 C 
HETATM   15  N   UNL     1     -41.919  54.338 -53.364  1.00  0.00    -0.326 N 
HETATM   16  H   UNL     1     -42.785  54.573 -52.900  1.00  0.00     0.169 HD
HETATM   17  O   UNL     1     -40.210  55.484 -54.418  1.00  0.00    -0.272 OA
BRANCH  15  18
HETATM   18  C   UNL     1     -41.076  53.415 -52.695  1.00  0.00     0.051 A 
HETATM   19  C   UNL     1     -40.931  53.326 -51.300  1.00  0.00     0.066 A 
HETATM   20  C   UNL     1     -40.209  52.252 -50.747  1.00  0.00     0.020 A 
HETATM   21  C   UNL     1     -39.612  51.296 -51.570  1.00  0.00     0.001 A 
HETATM   22  C   UNL     1     -39.686  51.432 -52.952  1.00  0.00     0.002 A 
HETATM   23  C   UNL     1     -40.395  52.496 -53.511  1.00  0.00     0.030 A 
BRANCH  19  24
HETATM   24  C   UNL     1     -41.339  54.446 -50.409  1.00  0.00     0.295 C 
HETATM   25  O   UNL     1     -42.207  54.350 -49.554  1.00  0.00    -0.259 OA
BRANCH  24  26
HETATM   26  O   UNL     1     -40.692  55.585 -50.769  1.00  0.00    -0.318 OA
BRANCH  26  27
HETATM   27  C   UNL     1     -41.396  56.806 -50.502  1.00  0.00     0.174 C 
HETATM   28  C   UNL     1     -40.891  57.933 -51.381  1.00  0.00     0.034 C 
ENDBRANCH  26  27
ENDBRANCH  24  26
ENDBRANCH  19  24
ENDBRANCH  15  18
ENDBRANCH  13  14
ENDBRANCH  12  13
ENDBRANCH   2  12
BRANCH   1  29
HETATM   29  C   UNL     1     -44.479  59.155 -55.439  1.00  0.00     0.043 A 
HETATM   30  C   UNL     1     -43.247  59.769 -55.684  1.00  0.00     0.033 A 
HETATM   31  C   UNL     1     -42.742  59.840 -56.988  1.00  0.00     0.039 A 
HETATM   32  C   UNL     1     -43.437  59.267 -58.055  1.00  0.00     0.068 A 
HETATM   33  C   UNL     1     -44.679  58.683 -57.829  1.00  0.00     0.039 A 
HETATM   34  C   UNL     1     -45.194  58.629 -56.532  1.00  0.00     0.033 A 
BRANCH  32  35
HETATM   35  O   UNL     1     -42.833  59.358 -59.278  1.00  0.00    -0.352 OA
BRANCH  35  36
HETATM   36  C   UNL     1     -43.154  58.307 -60.194  1.00  0.00     0.171 C 
HETATM   37  C   UNL     1     -42.084  57.236 -60.082  1.00  0.00     0.034 C 
ENDBRANCH  35  36
ENDBRANCH  32  35
ENDBRANCH   1  29
BRANCH   6  38
HETATM   38  N   UNL     1     -46.212  61.040 -54.081  1.00  0.00    -0.384 N 
HETATM   39  H   UNL     1     -46.887  60.880 -54.812  1.00  0.00     0.157 HD
HETATM   40  H   UNL     1     -45.955  61.996 -53.864  1.00  0.00     0.157 HD
ENDBRANCH   6  38
TORSDOF 11
ENDMDL
MODEL 8
REMARK VINA RESULT:      -6.8      2.409      5.798
REMARK  11 active torsions:
REMARK  status: ('A' for Active; 'I' for Inactive)
REMARK    1  A    between atoms: C_2  and  O_3 
REMARK    2  A    between atoms: O_3  and  C_4 
REMARK    3  A    between atoms: C_7  and  N_8 
REMARK    4  A    between atoms: C_9  and  S_10 
REMARK    5  A    between atoms: S_10  and  C_11 
REMARK    6  A    between atoms: C_11  and  C_12 
REMARK       I    between atoms: C_12  and  N_13 
REMARK    7  A    between atoms: N_13  and  C_14 
REMARK    8  A    between atoms: C_15  and  C_16 
REMARK    9  A    between atoms: C_16  and  O_17 
REMARK   10  A    between atoms: O_17  and  C_18 
REMARK   11  A    between atoms: C_29  and  N_30 
ROOT
HETATM    1  N   UNL     1     -42.427  56.260 -52.219  1.00  0.00    -0.276 N 
HETATM    2  C   UNL     1     -42.480  55.351 -53.310  1.00  0.00     0.177 C 
HETATM    3  N   UNL     1     -41.822  54.226 -53.395  1.00  0.00    -0.204 NA
HETATM    4  C   UNL     1     -41.096  53.919 -52.300  1.00  0.00     0.162 A 
HETATM    5  C   UNL     1     -41.017  54.583 -51.109  1.00  0.00     0.081 A 
HETATM    6  C   UNL     1     -41.718  55.827 -51.017  1.00  0.00     0.124 C 
HETATM    7  N   UNL     1     -40.343  52.793 -52.142  1.00  0.00    -0.260 N 
HETATM    8  H   UNL     1     -40.181  52.052 -52.818  1.00  0.00     0.191 HD
HETATM    9  N   UNL     1     -39.818  52.688 -50.900  1.00  0.00    -0.177 NA
HETATM   10  C   UNL     1     -40.231  53.794 -50.259  1.00  0.00     0.068 A 
HETATM   11  C   UNL     1     -39.847  54.004 -48.844  1.00  0.00     0.073 C 
ENDROOT
BRANCH   2  12
HETATM   12  S   UNL     1     -43.655  55.603 -54.616  1.00  0.00    -0.082 SA
BRANCH  12  13
HETATM   13  C   UNL     1     -42.789  55.015 -56.101  1.00  0.00     0.185 C 
BRANCH  13  14
HETATM   14  C   UNL     1     -42.924  55.832 -57.385  1.00  0.00     0.231 C 
HETATM   15  N   UNL     1     -42.194  57.010 -57.466  1.00  0.00    -0.326 N 
HETATM   16  H   UNL     1     -41.919  57.369 -56.562  1.00  0.00     0.169 HD
HETATM   17  O   UNL     1     -43.694  55.444 -58.266  1.00  0.00    -0.272 OA
BRANCH  15  18
HETATM   18  C   UNL     1     -42.445  57.972 -58.476  1.00  0.00     0.051 A 
HETATM   19  C   UNL     1     -43.184  59.153 -58.294  1.00  0.00     0.066 A 
HETATM   20  C   UNL     1     -43.209  60.118 -59.319  1.00  0.00     0.020 A 
HETATM   21  C   UNL     1     -42.534  59.899 -60.520  1.00  0.00     0.001 A 
HETATM   22  C   UNL     1     -41.872  58.694 -60.730  1.00  0.00     0.002 A 
HETATM   23  C   UNL     1     -41.845  57.728 -59.723  1.00  0.00     0.030 A 
BRANCH  19  24
HETATM   24  C   UNL     1     -44.107  59.315 -57.138  1.00  0.00     0.295 C 
HETATM   25  O   UNL     1     -43.749  59.262 -55.972  1.00  0.00    -0.259 OA
BRANCH  24  26
HETATM   26  O   UNL     1     -45.389  59.411 -57.579  1.00  0.00    -0.318 OA
BRANCH  26  27
HETATM   27  C   UNL     1     -46.159  58.203 -57.508  1.00  0.00     0.174 C 
HETATM   28  C   UNL     1     -46.462  57.664 -58.892  1.00  0.00     0.034 C 
ENDBRANCH  26  27
ENDBRANCH  24  26
ENDBRANCH  19  24
ENDBRANCH  15  18
ENDBRANCH  13  14
ENDBRANCH  12  13
ENDBRANCH   2  12
BRANCH   1  29
HETATM   29  C   UNL     1     -42.676  57.658 -52.400  1.00  0.00     0.043 A 
HETATM   30  C   UNL     1     -43.828  58.284 -51.916  1.00  0.00     0.033 A 
HETATM   31  C   UNL     1     -43.963  59.675 -52.003  1.00  0.00     0.039 A 
HETATM   32  C   UNL     1     -42.938  60.461 -52.535  1.00  0.00     0.068 A 
HETATM   33  C   UNL     1     -41.801  59.846 -53.049  1.00  0.00     0.039 A 
HETATM   34  C   UNL     1     -41.673  58.457 -52.982  1.00  0.00     0.033 A 
BRANCH  32  35
HETATM   35  O   UNL     1     -43.157  61.810 -52.533  1.00  0.00    -0.352 OA
BRANCH  35  36
HETATM   36  C   UNL     1     -43.120  62.434 -53.819  1.00  0.00     0.171 C 
HETATM   37  C   UNL     1     -44.473  62.240 -54.481  1.00  0.00     0.034 C 
ENDBRANCH  35  36
ENDBRANCH  32  35
ENDBRANCH   1  29
BRANCH   6  38
HETATM   38  N   UNL     1     -41.725  56.534 -49.903  1.00  0.00    -0.384 N 
HETATM   39  H   UNL     1     -40.995  57.194 -49.681  1.00  0.00     0.157 HD
HETATM   40  H   UNL     1     -42.471  56.398 -49.231  1.00  0.00     0.157 HD
ENDBRANCH   6  38
TORSDOF 11
ENDMDL
MODEL 9
REMARK VINA RESULT:      -6.7      3.169      6.390
REMARK  11 active torsions:
REMARK  status: ('A' for Active; 'I' for Inactive)
REMARK    1  A    between atoms: C_2  and  O_3 
REMARK    2  A    between atoms: O_3  and  C_4 
REMARK    3  A    between atoms: C_7  and  N_8 
REMARK    4  A    between atoms: C_9  and  S_10 
REMARK    5  A    between atoms: S_10  and  C_11 
REMARK    6  A    between atoms: C_11  and  C_12 
REMARK       I    between atoms: C_12  and  N_13 
REMARK    7  A    between atoms: N_13  and  C_14 
REMARK    8  A    between atoms: C_15  and  C_16 
REMARK    9  A    between atoms: C_16  and  O_17 
REMARK   10  A    between atoms: O_17  and  C_18 
REMARK   11  A    between atoms: C_29  and  N_30 
ROOT
HETATM    1  N   UNL     1     -43.004  56.249 -54.160  1.00  0.00    -0.276 N 
HETATM    2  C   UNL     1     -43.106  57.274 -53.182  1.00  0.00     0.177 C 
HETATM    3  N   UNL     1     -43.549  58.485 -53.392  1.00  0.00    -0.204 NA
HETATM    4  C   UNL     1     -43.992  58.708 -54.646  1.00  0.00     0.162 A 
HETATM    5  C   UNL     1     -44.103  57.829 -55.686  1.00  0.00     0.081 A 
HETATM    6  C   UNL     1     -43.601  56.508 -55.469  1.00  0.00     0.124 C 
HETATM    7  N   UNL     1     -44.516  59.882 -55.101  1.00  0.00    -0.260 N 
HETATM    8  H   UNL     1     -44.614  60.758 -54.597  1.00  0.00     0.191 HD
HETATM    9  N   UNL     1     -44.988  59.786 -56.366  1.00  0.00    -0.177 NA
HETATM   10  C   UNL     1     -44.732  58.519 -56.731  1.00  0.00     0.068 A 
HETATM   11  C   UNL     1     -45.138  58.052 -58.077  1.00  0.00     0.073 C 
ENDROOT
BRANCH   2  12
HETATM   12  S   UNL     1     -42.806  56.900 -51.473  1.00  0.00    -0.082 SA
BRANCH  12  13
HETATM   13  C   UNL     1     -41.436  58.004 -51.020  1.00  0.00     0.185 C 
BRANCH  13  14
HETATM   14  C   UNL     1     -41.779  59.391 -50.474  1.00  0.00     0.231 C 
HETATM   15  N   UNL     1     -43.120  59.749 -50.455  1.00  0.00    -0.326 N 
HETATM   16  H   UNL     1     -43.684  59.209 -51.096  1.00  0.00     0.169 HD
HETATM   17  O   UNL     1     -40.866  60.139 -50.118  1.00  0.00    -0.272 OA
BRANCH  15  18
HETATM   18  C   UNL     1     -43.528  61.088 -50.230  1.00  0.00     0.051 A 
HETATM   19  C   UNL     1     -44.547  61.477 -49.344  1.00  0.00     0.066 A 
HETATM   20  C   UNL     1     -44.737  62.845 -49.068  1.00  0.00     0.020 A 
HETATM   21  C   UNL     1     -43.947  63.813 -49.687  1.00  0.00     0.001 A 
HETATM   22  C   UNL     1     -42.995  63.431 -50.626  1.00  0.00     0.002 A 
HETATM   23  C   UNL     1     -42.801  62.079 -50.912  1.00  0.00     0.030 A 
BRANCH  19  24
HETATM   24  C   UNL     1     -45.560  60.503 -48.856  1.00  0.00     0.295 C 
HETATM   25  O   UNL     1     -45.850  59.474 -49.447  1.00  0.00    -0.259 OA
BRANCH  24  26
HETATM   26  O   UNL     1     -46.172  60.987 -47.744  1.00  0.00    -0.318 OA
BRANCH  26  27
HETATM   27  C   UNL     1     -45.646  60.518 -46.495  1.00  0.00     0.174 C 
HETATM   28  C   UNL     1     -45.249  61.674 -45.598  1.00  0.00     0.034 C 
ENDBRANCH  26  27
ENDBRANCH  24  26
ENDBRANCH  19  24
ENDBRANCH  15  18
ENDBRANCH  13  14
ENDBRANCH  12  13
ENDBRANCH   2  12
BRANCH   1  29
HETATM   29  C   UNL     1     -42.035  55.202 -54.045  1.00  0.00     0.043 A 
HETATM   30  C   UNL     1     -42.195  54.124 -53.169  1.00  0.00     0.033 A 
HETATM   31  C   UNL     1     -41.285  53.060 -53.188  1.00  0.00     0.039 A 
HETATM   32  C   UNL     1     -40.232  53.037 -54.104  1.00  0.00     0.068 A 
HETATM   33  C   UNL     1     -40.043  54.119 -54.959  1.00  0.00     0.039 A 
HETATM   34  C   UNL     1     -40.938  55.191 -54.927  1.00  0.00     0.033 A 
BRANCH  32  35
HETATM   35  O   UNL     1     -39.429  51.932 -54.064  1.00  0.00    -0.352 OA
BRANCH  35  36
HETATM   36  C   UNL     1     -40.079  50.697 -54.382  1.00  0.00     0.171 C 
HETATM   37  C   UNL     1     -39.731  49.686 -53.304  1.00  0.00     0.034 C 
ENDBRANCH  35  36
ENDBRANCH  32  35
ENDBRANCH   1  29
BRANCH   6  38
HETATM   38  N   UNL     1     -43.681  55.577 -56.401  1.00  0.00    -0.384 N 
HETATM   39  H   UNL     1     -44.518  55.033 -56.546  1.00  0.00     0.157 HD
HETATM   40  H   UNL     1     -42.873  55.379 -56.979  1.00  0.00     0.157 HD
ENDBRANCH   6  38
TORSDOF 11
ENDMDL
MODEL 10
REMARK VINA RESULT:      -6.7     16.284     18.613
REMARK  11 active torsions:
REMARK  status: ('A' for Active; 'I' for Inactive)
REMARK    1  A    between atoms: C_2  and  O_3 
REMARK    2  A    between atoms: O_3  and  C_4 
REMARK    3  A    between atoms: C_7  and  N_8 
REMARK    4  A    between atoms: C_9  and  S_10 
REMARK    5  A    between atoms: S_10  and  C_11 
REMARK    6  A    between atoms: C_11  and  C_12 
REMARK       I    between atoms: C_12  and  N_13 
REMARK    7  A    between atoms: N_13  and  C_14 
REMARK    8  A    between atoms: C_15  and  C_16 
REMARK    9  A    between atoms: C_16  and  O_17 
REMARK   10  A    between atoms: O_17  and  C_18 
REMARK   11  A    between atoms: C_29  and  N_30 
ROOT
HETATM    1  N   UNL     1     -34.917  39.988 -52.956  1.00  0.00    -0.276 N 
HETATM    2  C   UNL     1     -36.246  39.680 -52.557  1.00  0.00     0.177 C 
HETATM    3  N   UNL     1     -37.334  40.125 -53.127  1.00  0.00    -0.204 NA
HETATM    4  C   UNL     1     -37.121  40.887 -54.219  1.00  0.00     0.162 A 
HETATM    5  C   UNL     1     -35.941  41.188 -54.839  1.00  0.00     0.081 A 
HETATM    6  C   UNL     1     -34.745  40.722 -54.208  1.00  0.00     0.124 C 
HETATM    7  N   UNL     1     -38.095  41.448 -54.993  1.00  0.00    -0.260 N 
HETATM    8  H   UNL     1     -39.099  41.418 -54.848  1.00  0.00     0.191 HD
HETATM    9  N   UNL     1     -37.597  42.061 -56.091  1.00  0.00    -0.177 NA
HETATM   10  C   UNL     1     -36.267  41.905 -55.999  1.00  0.00     0.068 A 
HETATM   11  C   UNL     1     -35.392  42.448 -57.063  1.00  0.00     0.073 C 
ENDROOT
BRANCH   2  12
HETATM   12  S   UNL     1     -36.532  38.449 -51.312  1.00  0.00    -0.082 SA
BRANCH  12  13
HETATM   13  C   UNL     1     -38.045  39.015 -50.480  1.00  0.00     0.185 C 
BRANCH  13  14
HETATM   14  C   UNL     1     -39.324  38.201 -50.677  1.00  0.00     0.231 C 
HETATM   15  N   UNL     1     -40.528  38.887 -50.598  1.00  0.00    -0.326 N 
HETATM   16  H   UNL     1     -40.455  39.762 -50.098  1.00  0.00     0.169 HD
HETATM   17  O   UNL     1     -39.241  36.984 -50.854  1.00  0.00    -0.272 OA
BRANCH  15  18
HETATM   18  C   UNL     1     -41.766  38.205 -50.495  1.00  0.00     0.051 A 
HETATM   19  C   UNL     1     -42.498  38.045 -49.305  1.00  0.00     0.066 A 
HETATM   20  C   UNL     1     -43.799  37.511 -49.361  1.00  0.00     0.020 A 
HETATM   21  C   UNL     1     -44.355  37.112 -50.576  1.00  0.00     0.001 A 
HETATM   22  C   UNL     1     -43.598  37.194 -51.741  1.00  0.00     0.002 A 
HETATM   23  C   UNL     1     -42.305  37.717 -51.697  1.00  0.00     0.030 A 
BRANCH  19  24
HETATM   24  C   UNL     1     -41.857  38.228 -47.974  1.00  0.00     0.295 C 
HETATM   25  O   UNL     1     -40.769  37.759 -47.676  1.00  0.00    -0.259 OA
BRANCH  24  26
HETATM   26  O   UNL     1     -42.705  38.881 -47.137  1.00  0.00    -0.318 OA
BRANCH  26  27
HETATM   27  C   UNL     1     -42.218  39.087 -45.804  1.00  0.00     0.174 C 
HETATM   28  C   UNL     1     -41.651  40.484 -45.638  1.00  0.00     0.034 C 
ENDBRANCH  26  27
ENDBRANCH  24  26
ENDBRANCH  19  24
ENDBRANCH  15  18
ENDBRANCH  13  14
ENDBRANCH  12  13
ENDBRANCH   2  12
BRANCH   1  29
HETATM   29  C   UNL     1     -33.833  39.966 -52.022  1.00  0.00     0.043 A 
HETATM   30  C   UNL     1     -33.728  40.884 -50.972  1.00  0.00     0.033 A 
HETATM   31  C   UNL     1     -32.721  40.741 -50.010  1.00  0.00     0.039 A 
HETATM   32  C   UNL     1     -31.835  39.663 -50.058  1.00  0.00     0.068 A 
HETATM   33  C   UNL     1     -31.908  38.762 -51.116  1.00  0.00     0.039 A 
HETATM   34  C   UNL     1     -32.899  38.915 -52.089  1.00  0.00     0.033 A 
BRANCH  32  35
HETATM   35  O   UNL     1     -30.919  39.597 -49.046  1.00  0.00    -0.352 OA
BRANCH  35  36
HETATM   36  C   UNL     1     -31.464  39.339 -47.749  1.00  0.00     0.171 C 
HETATM   37  C   UNL     1     -30.533  39.943 -46.714  1.00  0.00     0.034 C 
ENDBRANCH  35  36
ENDBRANCH  32  35
ENDBRANCH   1  29
BRANCH   6  38
HETATM   38  N   UNL     1     -33.556  40.940 -54.738  1.00  0.00    -0.384 N 
HETATM   39  H   UNL     1     -33.155  41.863 -54.796  1.00  0.00     0.157 HD
HETATM   40  H   UNL     1     -33.033  40.163 -55.125  1.00  0.00     0.157 HD
ENDBRANCH   6  38
TORSDOF 11
ENDMDL
