MODEL 1
REMARK VINA RESULT:      -8.4      0.000      0.000
REMARK  5 active torsions:
REMARK  status: ('A' for Active; 'I' for Inactive)
REMARK    1  A    between atoms: C_8  and  N_9 
REMARK    2  A    between atoms: N_9  and  C_10 
REMARK    3  A    between atoms: C_10  and  C_11 
REMARK       I    between atoms: C_11  and  N_12 
REMARK    4  A    between atoms: N_12  and  N_13 
REMARK    5  A    between atoms: C_14  and  C_15 
ROOT
HETATM    1  C   UNL     1     -42.483  56.683 -55.858  1.00  0.00     0.250 C 
HETATM    2  N   UNL     1     -42.523  55.290 -55.783  1.00  0.00    -0.246 N 
HETATM    3  O   UNL     1     -42.219  57.435 -54.921  1.00  0.00    -0.270 OA
HETATM    4  H   UNL     1     -42.472  54.758 -56.646  1.00  0.00     0.192 HD
ENDROOT
BRANCH   2   5
HETATM    5  N   UNL     1     -42.171  54.543 -54.683  1.00  0.00    -0.184 NA
HETATM    6  C   UNL     1     -40.913  54.332 -54.450  1.00  0.00     0.152 C 
BRANCH   6   7
HETATM    7  C   UNL     1     -40.531  53.509 -53.319  1.00  0.00     0.011 A 
HETATM    8  C   UNL     1     -40.213  52.112 -53.338  1.00  0.00     0.004 A 
HETATM    9  C   UNL     1     -39.901  51.737 -52.029  1.00  0.00     0.043 A 
HETATM   10  C   UNL     1     -40.161  51.126 -54.346  1.00  0.00     0.014 A 
HETATM   11  C   UNL     1     -39.539  50.430 -51.679  1.00  0.00     0.030 A 
HETATM   12  N   UNL     1     -40.029  52.859 -51.244  1.00  0.00    -0.364 N 
HETATM   13  C   UNL     1     -39.494  49.474 -52.698  1.00  0.00     0.002 A 
HETATM   14  C   UNL     1     -39.801  49.815 -54.013  1.00  0.00     0.001 A 
HETATM   15  H   UNL     1     -39.869  52.882 -50.247  1.00  0.00     0.165 HD
HETATM   16  C   UNL     1     -40.406  53.930 -52.008  1.00  0.00     0.102 A 
ENDBRANCH   6   7
ENDBRANCH   2   5
BRANCH   1  17
HETATM   17  C   UNL     1     -42.805  57.211 -57.266  1.00  0.00     0.197 C 
BRANCH  17  18
HETATM   18  N   UNL     1     -44.262  57.217 -57.499  1.00  0.00    -0.284 NA
HETATM   19  H   UNL     1     -44.639  58.161 -57.433  1.00  0.00     0.128 HD
BRANCH  18  20
HETATM   20  C   UNL     1     -44.629  56.594 -58.710  1.00  0.00     0.016 A 
HETATM   21  C   UNL     1     -45.832  56.921 -59.375  1.00  0.00    -0.019 A 
HETATM   22  C   UNL     1     -46.709  58.046 -58.888  1.00  0.00     0.052 C 
HETATM   23  C   UNL     1     -46.195  56.176 -60.515  1.00  0.00     0.041 A 
HETATM   24 CL   UNL     1     -47.672  56.475 -61.366  1.00  0.00    -0.084 Cl
HETATM   25  C   UNL     1     -45.374  55.154 -61.000  1.00  0.00     0.024 A 
HETATM   26  C   UNL     1     -44.184  54.850 -60.351  1.00  0.00     0.003 A 
HETATM   27  C   UNL     1     -43.819  55.560 -59.208  1.00  0.00     0.024 A 
ENDBRANCH  18  20
ENDBRANCH  17  18
ENDBRANCH   1  17
TORSDOF 5
ENDMDL
MODEL 2
REMARK VINA RESULT:      -8.1      1.251      1.939
REMARK  5 active torsions:
REMARK  status: ('A' for Active; 'I' for Inactive)
REMARK    1  A    between atoms: C_8  and  N_9 
REMARK    2  A    between atoms: N_9  and  C_10 
REMARK    3  A    between atoms: C_10  and  C_11 
REMARK       I    between atoms: C_11  and  N_12 
REMARK    4  A    between atoms: N_12  and  N_13 
REMARK    5  A    between atoms: C_14  and  C_15 
ROOT
HETATM    1  C   UNL     1     -42.545  56.387 -55.450  1.00  0.00     0.250 C 
HETATM    2  N   UNL     1     -42.719  56.180 -54.081  1.00  0.00    -0.246 N 
HETATM    3  O   UNL     1     -41.897  55.657 -56.198  1.00  0.00    -0.270 OA
HETATM    4  H   UNL     1     -43.481  56.663 -53.613  1.00  0.00     0.192 HD
ENDROOT
BRANCH   2   5
HETATM    5  N   UNL     1     -42.286  55.079 -53.381  1.00  0.00    -0.184 NA
HETATM    6  C   UNL     1     -41.053  55.041 -52.982  1.00  0.00     0.152 C 
BRANCH   6   7
HETATM    7  C   UNL     1     -40.572  53.866 -52.280  1.00  0.00     0.011 A 
HETATM    8  C   UNL     1     -40.322  52.570 -52.838  1.00  0.00     0.004 A 
HETATM    9  C   UNL     1     -39.869  51.750 -51.803  1.00  0.00     0.043 A 
HETATM   10  C   UNL     1     -40.440  52.014 -54.130  1.00  0.00     0.014 A 
HETATM   11  C   UNL     1     -39.526  50.406 -51.994  1.00  0.00     0.030 A 
HETATM   12  N   UNL     1     -39.848  52.514 -50.660  1.00  0.00    -0.364 N 
HETATM   13  C   UNL     1     -39.651  49.881 -53.284  1.00  0.00     0.002 A 
HETATM   14  C   UNL     1     -40.101  50.671 -54.338  1.00  0.00     0.001 A 
HETATM   15  H   UNL     1     -39.566  52.177 -49.751  1.00  0.00     0.165 HD
HETATM   16  C   UNL     1     -40.267  53.787 -50.934  1.00  0.00     0.102 A 
ENDBRANCH   6   7
ENDBRANCH   2   5
BRANCH   1  17
HETATM   17  C   UNL     1     -43.264  57.648 -55.957  1.00  0.00     0.197 C 
BRANCH  17  18
HETATM   18  N   UNL     1     -43.082  57.800 -57.413  1.00  0.00    -0.284 NA
HETATM   19  H   UNL     1     -42.235  57.331 -57.728  1.00  0.00     0.128 HD
BRANCH  18  20
HETATM   20  C   UNL     1     -44.209  57.388 -58.155  1.00  0.00     0.016 A 
HETATM   21  C   UNL     1     -44.096  56.472 -59.226  1.00  0.00    -0.019 A 
HETATM   22  C   UNL     1     -42.785  55.795 -59.535  1.00  0.00     0.052 C 
HETATM   23  C   UNL     1     -45.240  56.197 -60.000  1.00  0.00     0.041 A 
HETATM   24 CL   UNL     1     -45.184  55.124 -61.358  1.00  0.00    -0.084 Cl
HETATM   25  C   UNL     1     -46.471  56.788 -59.704  1.00  0.00     0.024 A 
HETATM   26  C   UNL     1     -46.579  57.674 -58.639  1.00  0.00     0.003 A 
HETATM   27  C   UNL     1     -45.453  57.978 -57.876  1.00  0.00     0.024 A 
ENDBRANCH  18  20
ENDBRANCH  17  18
ENDBRANCH   1  17
TORSDOF 5
ENDMDL
MODEL 3
REMARK VINA RESULT:      -8.0      3.057      3.766
REMARK  5 active torsions:
REMARK  status: ('A' for Active; 'I' for Inactive)
REMARK    1  A    between atoms: C_8  and  N_9 
REMARK    2  A    between atoms: N_9  and  C_10 
REMARK    3  A    between atoms: C_10  and  C_11 
REMARK       I    between atoms: C_11  and  N_12 
REMARK    4  A    between atoms: N_12  and  N_13 
REMARK    5  A    between atoms: C_14  and  C_15 
ROOT
HETATM    1  C   UNL     1     -41.124  59.101 -53.058  1.00  0.00     0.250 C 
HETATM    2  N   UNL     1     -41.800  58.089 -52.376  1.00  0.00    -0.246 N 
HETATM    3  O   UNL     1     -39.906  59.157 -53.213  1.00  0.00    -0.270 OA
HETATM    4  H   UNL     1     -42.797  57.980 -52.538  1.00  0.00     0.192 HD
ENDROOT
BRANCH   2   5
HETATM    5  N   UNL     1     -41.223  56.950 -51.866  1.00  0.00    -0.184 NA
HETATM    6  C   UNL     1     -41.457  55.818 -52.452  1.00  0.00     0.152 C 
BRANCH   6   7
HETATM    7  C   UNL     1     -40.889  54.603 -51.898  1.00  0.00     0.011 A 
HETATM    8  C   UNL     1     -40.543  53.409 -52.612  1.00  0.00     0.004 A 
HETATM    9  C   UNL     1     -40.031  52.501 -51.683  1.00  0.00     0.043 A 
HETATM   10  C   UNL     1     -40.619  53.013 -53.965  1.00  0.00     0.014 A 
HETATM   11  C   UNL     1     -39.588  51.221 -52.038  1.00  0.00     0.030 A 
HETATM   12  N   UNL     1     -40.067  53.115 -50.453  1.00  0.00    -0.364 N 
HETATM   13  C   UNL     1     -39.673  50.855 -53.385  1.00  0.00     0.002 A 
HETATM   14  C   UNL     1     -40.181  51.736 -54.335  1.00  0.00     0.001 A 
HETATM   15  H   UNL     1     -39.761  52.688 -49.591  1.00  0.00     0.165 HD
HETATM   16  C   UNL     1     -40.580  54.378 -50.570  1.00  0.00     0.102 A 
ENDBRANCH   6   7
ENDBRANCH   2   5
BRANCH   1  17
HETATM   17  C   UNL     1     -42.071  60.172 -53.623  1.00  0.00     0.197 C 
BRANCH  17  18
HETATM   18  N   UNL     1     -43.221  59.545 -54.302  1.00  0.00    -0.284 NA
HETATM   19  H   UNL     1     -44.030  60.162 -54.299  1.00  0.00     0.128 HD
BRANCH  18  20
HETATM   20  C   UNL     1     -42.915  59.097 -55.604  1.00  0.00     0.016 A 
HETATM   21  C   UNL     1     -43.172  57.768 -56.009  1.00  0.00    -0.019 A 
HETATM   22  C   UNL     1     -43.909  56.809 -55.109  1.00  0.00     0.052 C 
HETATM   23  C   UNL     1     -42.733  57.355 -57.283  1.00  0.00     0.041 A 
HETATM   24 CL   UNL     1     -42.964  55.735 -57.845  1.00  0.00    -0.084 Cl
HETATM   25  C   UNL     1     -42.081  58.242 -58.143  1.00  0.00     0.024 A 
HETATM   26  C   UNL     1     -41.846  59.553 -57.745  1.00  0.00     0.003 A 
HETATM   27  C   UNL     1     -42.253  59.973 -56.480  1.00  0.00     0.024 A 
ENDBRANCH  18  20
ENDBRANCH  17  18
ENDBRANCH   1  17
TORSDOF 5
ENDMDL
MODEL 4
REMARK VINA RESULT:      -7.6      2.205      2.441
REMARK  5 active torsions:
REMARK  status: ('A' for Active; 'I' for Inactive)
REMARK    1  A    between atoms: C_8  and  N_9 
REMARK    2  A    between atoms: N_9  and  C_10 
REMARK    3  A    between atoms: C_10  and  C_11 
REMARK       I    between atoms: C_11  and  N_12 
REMARK    4  A    between atoms: N_12  and  N_13 
REMARK    5  A    between atoms: C_14  and  C_15 
ROOT
HETATM    1  C   UNL     1     -42.886  57.344 -54.382  1.00  0.00     0.250 C 
HETATM    2  N   UNL     1     -41.573  56.876 -54.324  1.00  0.00    -0.246 N 
HETATM    3  O   UNL     1     -43.818  56.920 -53.701  1.00  0.00    -0.270 OA
HETATM    4  H   UNL     1     -40.835  57.460 -54.706  1.00  0.00     0.192 HD
ENDROOT
BRANCH   2   5
HETATM    5  N   UNL     1     -41.098  55.948 -53.427  1.00  0.00    -0.184 NA
HETATM    6  C   UNL     1     -41.071  54.700 -53.779  1.00  0.00     0.152 C 
BRANCH   6   7
HETATM    7  C   UNL     1     -40.613  53.706 -52.827  1.00  0.00     0.011 A 
HETATM    8  C   UNL     1     -40.300  52.334 -53.097  1.00  0.00     0.004 A 
HETATM    9  C   UNL     1     -39.899  51.752 -51.892  1.00  0.00     0.043 A 
HETATM   10  C   UNL     1     -40.320  51.527 -54.255  1.00  0.00     0.014 A 
HETATM   11  C   UNL     1     -39.516  50.409 -51.788  1.00  0.00     0.030 A 
HETATM   12  N   UNL     1     -39.970  52.729 -50.927  1.00  0.00    -0.364 N 
HETATM   13  C   UNL     1     -39.544  49.634 -52.951  1.00  0.00     0.002 A 
HETATM   14  C   UNL     1     -39.941  50.183 -54.167  1.00  0.00     0.001 A 
HETATM   15  H   UNL     1     -39.742  52.590 -49.953  1.00  0.00     0.165 HD
HETATM   16  C   UNL     1     -40.397  53.907 -51.476  1.00  0.00     0.102 A 
ENDBRANCH   6   7
ENDBRANCH   2   5
BRANCH   1  17
HETATM   17  C   UNL     1     -43.068  58.479 -55.403  1.00  0.00     0.197 C 
BRANCH  17  18
HETATM   18  N   UNL     1     -44.024  58.084 -56.455  1.00  0.00    -0.284 NA
HETATM   19  H   UNL     1     -44.720  58.811 -56.609  1.00  0.00     0.128 HD
BRANCH  18  20
HETATM   20  C   UNL     1     -43.395  57.704 -57.658  1.00  0.00     0.016 A 
HETATM   21  C   UNL     1     -42.900  58.664 -58.570  1.00  0.00    -0.019 A 
HETATM   22  C   UNL     1     -42.904  60.133 -58.230  1.00  0.00     0.052 C 
HETATM   23  C   UNL     1     -42.391  58.220 -59.806  1.00  0.00     0.041 A 
HETATM   24 CL   UNL     1     -41.806  59.327 -61.001  1.00  0.00    -0.084 Cl
HETATM   25  C   UNL     1     -42.347  56.859 -60.121  1.00  0.00     0.024 A 
HETATM   26  C   UNL     1     -42.820  55.919 -59.213  1.00  0.00     0.003 A 
HETATM   27  C   UNL     1     -43.348  56.341 -57.994  1.00  0.00     0.024 A 
ENDBRANCH  18  20
ENDBRANCH  17  18
ENDBRANCH   1  17
TORSDOF 5
ENDMDL
MODEL 5
REMARK VINA RESULT:      -7.6      3.350      9.234
REMARK  5 active torsions:
REMARK  status: ('A' for Active; 'I' for Inactive)
REMARK    1  A    between atoms: C_8  and  N_9 
REMARK    2  A    between atoms: N_9  and  C_10 
REMARK    3  A    between atoms: C_10  and  C_11 
REMARK       I    between atoms: C_11  and  N_12 
REMARK    4  A    between atoms: N_12  and  N_13 
REMARK    5  A    between atoms: C_14  and  C_15 
ROOT
HETATM    1  C   UNL     1     -41.775  55.857 -54.737  1.00  0.00     0.250 C 
HETATM    2  N   UNL     1     -42.047  55.778 -56.103  1.00  0.00    -0.246 N 
HETATM    3  O   UNL     1     -42.435  56.497 -53.921  1.00  0.00    -0.270 OA
HETATM    4  H   UNL     1     -41.629  55.021 -56.636  1.00  0.00     0.192 HD
ENDROOT
BRANCH   2   5
HETATM    5  N   UNL     1     -43.150  56.313 -56.728  1.00  0.00    -0.184 NA
HETATM    6  C   UNL     1     -42.985  57.320 -57.526  1.00  0.00     0.152 C 
BRANCH   6   7
HETATM    7  C   UNL     1     -44.144  57.922 -58.157  1.00  0.00     0.011 A 
HETATM    8  C   UNL     1     -45.041  57.298 -59.085  1.00  0.00     0.004 A 
HETATM    9  C   UNL     1     -46.009  58.244 -59.430  1.00  0.00     0.043 A 
HETATM   10  C   UNL     1     -45.121  56.016 -59.669  1.00  0.00     0.014 A 
HETATM   11  C   UNL     1     -47.052  57.972 -60.324  1.00  0.00     0.030 A 
HETATM   12  N   UNL     1     -45.711  59.398 -58.743  1.00  0.00    -0.364 N 
HETATM   13  C   UNL     1     -47.108  56.693 -60.886  1.00  0.00     0.002 A 
HETATM   14  C   UNL     1     -46.157  55.728 -60.565  1.00  0.00     0.001 A 
HETATM   15  H   UNL     1     -46.244  60.254 -58.804  1.00  0.00     0.165 HD
HETATM   16  C   UNL     1     -44.594  59.216 -57.974  1.00  0.00     0.102 A 
ENDBRANCH   6   7
ENDBRANCH   2   5
BRANCH   1  17
HETATM   17  C   UNL     1     -40.537  55.041 -54.330  1.00  0.00     0.197 C 
BRANCH  17  18
HETATM   18  N   UNL     1     -40.766  54.357 -53.042  1.00  0.00    -0.284 NA
HETATM   19  H   UNL     1     -41.714  54.517 -52.706  1.00  0.00     0.128 HD
BRANCH  18  20
HETATM   20  C   UNL     1     -40.456  52.982 -53.086  1.00  0.00     0.016 A 
HETATM   21  C   UNL     1     -40.189  52.246 -51.909  1.00  0.00    -0.019 A 
HETATM   22  C   UNL     1     -40.357  52.870 -50.547  1.00  0.00     0.052 C 
HETATM   23  C   UNL     1     -39.768  50.907 -52.033  1.00  0.00     0.041 A 
HETATM   24 CL   UNL     1     -39.375  49.945 -50.649  1.00  0.00    -0.084 Cl
HETATM   25  C   UNL     1     -39.642  50.304 -53.287  1.00  0.00     0.024 A 
HETATM   26  C   UNL     1     -39.923  51.028 -54.440  1.00  0.00     0.003 A 
HETATM   27  C   UNL     1     -40.318  52.361 -54.338  1.00  0.00     0.024 A 
ENDBRANCH  18  20
ENDBRANCH  17  18
ENDBRANCH   1  17
TORSDOF 5
ENDMDL
MODEL 6
REMARK VINA RESULT:      -7.5      4.704      5.854
REMARK  5 active torsions:
REMARK  status: ('A' for Active; 'I' for Inactive)
REMARK    1  A    between atoms: C_8  and  N_9 
REMARK    2  A    between atoms: N_9  and  C_10 
REMARK    3  A    between atoms: C_10  and  C_11 
REMARK       I    between atoms: C_11  and  N_12 
REMARK    4  A    between atoms: N_12  and  N_13 
REMARK    5  A    between atoms: C_14  and  C_15 
ROOT
HETATM    1  C   UNL     1     -41.162  59.230 -50.896  1.00  0.00     0.250 C 
HETATM    2  N   UNL     1     -41.498  57.989 -50.353  1.00  0.00    -0.246 N 
HETATM    3  O   UNL     1     -40.251  59.428 -51.697  1.00  0.00    -0.270 OA
HETATM    4  H   UNL     1     -42.417  57.879 -49.932  1.00  0.00     0.192 HD
ENDROOT
BRANCH   2   5
HETATM    5  N   UNL     1     -40.935  56.786 -50.708  1.00  0.00    -0.184 NA
HETATM    6  C   UNL     1     -41.633  55.705 -50.560  1.00  0.00     0.152 C 
BRANCH   6   7
HETATM    7  C   UNL     1     -41.035  54.425 -50.890  1.00  0.00     0.011 A 
HETATM    8  C   UNL     1     -40.796  53.897 -52.201  1.00  0.00     0.004 A 
HETATM    9  C   UNL     1     -40.205  52.642 -52.044  1.00  0.00     0.043 A 
HETATM   10  C   UNL     1     -41.029  54.369 -53.511  1.00  0.00     0.014 A 
HETATM   11  C   UNL     1     -39.832  51.838 -53.129  1.00  0.00     0.030 A 
HETATM   12  N   UNL     1     -40.093  52.412 -50.693  1.00  0.00    -0.364 N 
HETATM   13  C   UNL     1     -40.072  52.330 -54.415  1.00  0.00     0.002 A 
HETATM   14  C   UNL     1     -40.662  53.577 -54.606  1.00  0.00     0.001 A 
HETATM   15  H   UNL     1     -39.703  51.575 -50.285  1.00  0.00     0.165 HD
HETATM   16  C   UNL     1     -40.587  53.476 -49.990  1.00  0.00     0.102 A 
ENDBRANCH   6   7
ENDBRANCH   2   5
BRANCH   1  17
HETATM   17  C   UNL     1     -42.068  60.365 -50.389  1.00  0.00     0.197 C 
BRANCH  17  18
HETATM   18  N   UNL     1     -43.489  59.984 -50.496  1.00  0.00    -0.284 NA
HETATM   19  H   UNL     1     -44.049  60.455 -49.788  1.00  0.00     0.128 HD
BRANCH  18  20
HETATM   20  C   UNL     1     -44.016  60.179 -51.790  1.00  0.00     0.016 A 
HETATM   21  C   UNL     1     -44.477  59.097 -52.573  1.00  0.00    -0.019 A 
HETATM   22  C   UNL     1     -44.549  57.702 -52.005  1.00  0.00     0.052 C 
HETATM   23  C   UNL     1     -44.879  59.349 -53.899  1.00  0.00     0.041 A 
HETATM   24 CL   UNL     1     -45.414  58.078 -54.945  1.00  0.00    -0.084 Cl
HETATM   25  C   UNL     1     -44.852  60.641 -54.428  1.00  0.00     0.024 A 
HETATM   26  C   UNL     1     -44.413  61.705 -53.647  1.00  0.00     0.003 A 
HETATM   27  C   UNL     1     -43.990  61.472 -52.340  1.00  0.00     0.024 A 
ENDBRANCH  18  20
ENDBRANCH  17  18
ENDBRANCH   1  17
TORSDOF 5
ENDMDL
MODEL 7
REMARK VINA RESULT:      -7.4      1.648      2.705
REMARK  5 active torsions:
REMARK  status: ('A' for Active; 'I' for Inactive)
REMARK    1  A    between atoms: C_8  and  N_9 
REMARK    2  A    between atoms: N_9  and  C_10 
REMARK    3  A    between atoms: C_10  and  C_11 
REMARK       I    between atoms: C_11  and  N_12 
REMARK    4  A    between atoms: N_12  and  N_13 
REMARK    5  A    between atoms: C_14  and  C_15 
ROOT
HETATM    1  C   UNL     1     -43.805  57.267 -55.091  1.00  0.00     0.250 C 
HETATM    2  N   UNL     1     -42.920  56.286 -55.538  1.00  0.00    -0.246 N 
HETATM    3  O   UNL     1     -44.362  57.270 -53.995  1.00  0.00    -0.270 OA
HETATM    4  H   UNL     1     -42.308  56.506 -56.319  1.00  0.00     0.192 HD
ENDROOT
BRANCH   2   5
HETATM    5  N   UNL     1     -42.454  55.232 -54.788  1.00  0.00    -0.184 NA
HETATM    6  C   UNL     1     -41.182  54.986 -54.781  1.00  0.00     0.152 C 
BRANCH   6   7
HETATM    7  C   UNL     1     -40.683  53.851 -54.028  1.00  0.00     0.011 A 
HETATM    8  C   UNL     1     -40.681  53.695 -52.604  1.00  0.00     0.004 A 
HETATM    9  C   UNL     1     -40.110  52.452 -52.321  1.00  0.00     0.043 A 
HETATM   10  C   UNL     1     -41.111  54.495 -51.524  1.00  0.00     0.014 A 
HETATM   11  C   UNL     1     -39.951  51.969 -51.016  1.00  0.00     0.030 A 
HETATM   12  N   UNL     1     -39.774  51.877 -53.524  1.00  0.00    -0.364 N 
HETATM   13  C   UNL     1     -40.387  52.782 -49.965  1.00  0.00     0.002 A 
HETATM   14  C   UNL     1     -40.958  54.027 -50.213  1.00  0.00     0.001 A 
HETATM   15  H   UNL     1     -39.335  50.973 -53.623  1.00  0.00     0.165 HD
HETATM   16  C   UNL     1     -40.113  52.707 -54.557  1.00  0.00     0.102 A 
ENDBRANCH   6   7
ENDBRANCH   2   5
BRANCH   1  17
HETATM   17  C   UNL     1     -44.023  58.386 -56.123  1.00  0.00     0.197 C 
BRANCH  17  18
HETATM   18  N   UNL     1     -43.536  57.969 -57.452  1.00  0.00    -0.284 NA
HETATM   19  H   UNL     1     -42.748  57.329 -57.370  1.00  0.00     0.128 HD
BRANCH  18  20
HETATM   20  C   UNL     1     -44.554  57.434 -58.269  1.00  0.00     0.016 A 
HETATM   21  C   UNL     1     -44.276  56.470 -59.264  1.00  0.00    -0.019 A 
HETATM   22  C   UNL     1     -42.898  55.873 -59.404  1.00  0.00     0.052 C 
HETATM   23  C   UNL     1     -45.317  56.069 -60.124  1.00  0.00     0.041 A 
HETATM   24 CL   UNL     1     -45.057  54.928 -61.399  1.00  0.00    -0.084 Cl
HETATM   25  C   UNL     1     -46.607  56.586 -59.984  1.00  0.00     0.024 A 
HETATM   26  C   UNL     1     -46.879  57.521 -58.992  1.00  0.00     0.003 A 
HETATM   27  C   UNL     1     -45.856  57.948 -58.147  1.00  0.00     0.024 A 
ENDBRANCH  18  20
ENDBRANCH  17  18
ENDBRANCH   1  17
TORSDOF 5
ENDMDL
MODEL 8
REMARK VINA RESULT:      -7.3     14.749     17.806
REMARK  5 active torsions:
REMARK  status: ('A' for Active; 'I' for Inactive)
REMARK    1  A    between atoms: C_8  and  N_9 
REMARK    2  A    between atoms: N_9  and  C_10 
REMARK    3  A    between atoms: C_10  and  C_11 
REMARK       I    between atoms: C_11  and  N_12 
REMARK    4  A    between atoms: N_12  and  N_13 
REMARK    5  A    between atoms: C_14  and  C_15 
ROOT
HETATM    1  C   UNL     1     -35.724  41.932 -54.213  1.00  0.00     0.250 C 
HETATM    2  N   UNL     1     -36.773  42.313 -55.051  1.00  0.00    -0.246 N 
HETATM    3  O   UNL     1     -34.704  41.349 -54.578  1.00  0.00    -0.270 OA
HETATM    4  H   UNL     1     -37.423  43.019 -54.720  1.00  0.00     0.192 HD
ENDROOT
BRANCH   2   5
HETATM    5  N   UNL     1     -36.782  42.191 -56.421  1.00  0.00    -0.184 NA
HETATM    6  C   UNL     1     -37.503  41.256 -56.957  1.00  0.00     0.152 C 
BRANCH   6   7
HETATM    7  C   UNL     1     -37.487  41.089 -58.398  1.00  0.00     0.011 A 
HETATM    8  C   UNL     1     -37.800  39.898 -59.131  1.00  0.00     0.004 A 
HETATM    9  C   UNL     1     -37.656  40.194 -60.489  1.00  0.00     0.043 A 
HETATM   10  C   UNL     1     -38.192  38.592 -58.769  1.00  0.00     0.014 A 
HETATM   11  C   UNL     1     -37.886  39.253 -61.500  1.00  0.00     0.030 A 
HETATM   12  N   UNL     1     -37.267  41.510 -60.578  1.00  0.00    -0.364 N 
HETATM   13  C   UNL     1     -38.275  37.967 -61.112  1.00  0.00     0.002 A 
HETATM   14  C   UNL     1     -38.425  37.639 -59.768  1.00  0.00     0.001 A 
HETATM   15  H   UNL     1     -37.083  41.996 -61.444  1.00  0.00     0.165 HD
HETATM   16  C   UNL     1     -37.163  42.059 -59.329  1.00  0.00     0.102 A 
ENDBRANCH   6   7
ENDBRANCH   2   5
BRANCH   1  17
HETATM   17  C   UNL     1     -35.962  42.325 -52.746  1.00  0.00     0.197 C 
BRANCH  17  18
HETATM   18  N   UNL     1     -34.719  42.190 -51.963  1.00  0.00    -0.284 NA
HETATM   19  H   UNL     1     -34.517  43.044 -51.447  1.00  0.00     0.128 HD
BRANCH  18  20
HETATM   20  C   UNL     1     -34.721  41.061 -51.118  1.00  0.00     0.016 A 
HETATM   21  C   UNL     1     -33.570  40.258 -50.953  1.00  0.00    -0.019 A 
HETATM   22  C   UNL     1     -32.252  40.653 -51.570  1.00  0.00     0.052 C 
HETATM   23  C   UNL     1     -33.675  39.079 -50.189  1.00  0.00     0.041 A 
HETATM   24 CL   UNL     1     -32.330  38.012 -49.972  1.00  0.00    -0.084 Cl
HETATM   25  C   UNL     1     -34.880  38.719 -49.581  1.00  0.00     0.024 A 
HETATM   26  C   UNL     1     -36.004  39.522 -49.733  1.00  0.00     0.003 A 
HETATM   27  C   UNL     1     -35.926  40.680 -50.504  1.00  0.00     0.024 A 
ENDBRANCH  18  20
ENDBRANCH  17  18
ENDBRANCH   1  17
TORSDOF 5
ENDMDL
MODEL 9
REMARK VINA RESULT:      -7.1      1.938      3.117
REMARK  5 active torsions:
REMARK  status: ('A' for Active; 'I' for Inactive)
REMARK    1  A    between atoms: C_8  and  N_9 
REMARK    2  A    between atoms: N_9  and  C_10 
REMARK    3  A    between atoms: C_10  and  C_11 
REMARK       I    between atoms: C_11  and  N_12 
REMARK    4  A    between atoms: N_12  and  N_13 
REMARK    5  A    between atoms: C_14  and  C_15 
ROOT
HETATM    1  C   UNL     1     -42.668  55.573 -56.239  1.00  0.00     0.250 C 
HETATM    2  N   UNL     1     -41.480  54.868 -56.044  1.00  0.00    -0.246 N 
HETATM    3  O   UNL     1     -43.433  55.930 -55.345  1.00  0.00    -0.270 OA
HETATM    4  H   UNL     1     -40.792  54.864 -56.792  1.00  0.00     0.192 HD
ENDROOT
BRANCH   2   5
HETATM    5  N   UNL     1     -40.930  54.558 -54.823  1.00  0.00    -0.184 NA
HETATM    6  C   UNL     1     -41.277  53.449 -54.247  1.00  0.00     0.152 C 
BRANCH   6   7
HETATM    7  C   UNL     1     -40.737  53.131 -52.939  1.00  0.00     0.011 A 
HETATM    8  C   UNL     1     -40.946  53.856 -51.720  1.00  0.00     0.004 A 
HETATM    9  C   UNL     1     -40.240  53.192 -50.714  1.00  0.00     0.043 A 
HETATM   10  C   UNL     1     -41.669  55.018 -51.376  1.00  0.00     0.014 A 
HETATM   11  C   UNL     1     -40.224  53.629 -49.383  1.00  0.00     0.030 A 
HETATM   12  N   UNL     1     -39.624  52.110 -51.297  1.00  0.00    -0.364 N 
HETATM   13  C   UNL     1     -40.950  54.782 -49.071  1.00  0.00     0.002 A 
HETATM   14  C   UNL     1     -41.662  55.468 -50.050  1.00  0.00     0.001 A 
HETATM   15  H   UNL     1     -39.038  51.451 -50.805  1.00  0.00     0.165 HD
HETATM   16  C   UNL     1     -39.915  52.063 -52.633  1.00  0.00     0.102 A 
ENDBRANCH   6   7
ENDBRANCH   2   5
BRANCH   1  17
HETATM   17  C   UNL     1     -42.942  55.878 -57.721  1.00  0.00     0.197 C 
BRANCH  17  18
HETATM   18  N   UNL     1     -44.268  56.503 -57.887  1.00  0.00    -0.284 NA
HETATM   19  H   UNL     1     -44.650  56.796 -56.989  1.00  0.00     0.128 HD
BRANCH  18  20
HETATM   20  C   UNL     1     -44.266  57.561 -58.819  1.00  0.00     0.016 A 
HETATM   21  C   UNL     1     -45.466  58.076 -59.358  1.00  0.00    -0.019 A 
HETATM   22  C   UNL     1     -46.808  57.605 -58.856  1.00  0.00     0.052 C 
HETATM   23  C   UNL     1     -45.386  59.050 -60.373  1.00  0.00     0.041 A 
HETATM   24 CL   UNL     1     -46.804  59.703 -61.122  1.00  0.00    -0.084 Cl
HETATM   25  C   UNL     1     -44.151  59.522 -60.823  1.00  0.00     0.024 A 
HETATM   26  C   UNL     1     -42.974  59.024 -60.277  1.00  0.00     0.003 A 
HETATM   27  C   UNL     1     -43.033  58.044 -59.288  1.00  0.00     0.024 A 
ENDBRANCH  18  20
ENDBRANCH  17  18
ENDBRANCH   1  17
TORSDOF 5
ENDMDL
MODEL 10
REMARK VINA RESULT:      -7.1     14.525     16.226
REMARK  5 active torsions:
REMARK  status: ('A' for Active; 'I' for Inactive)
REMARK    1  A    between atoms: C_8  and  N_9 
REMARK    2  A    between atoms: N_9  and  C_10 
REMARK    3  A    between atoms: C_10  and  C_11 
REMARK       I    between atoms: C_11  and  N_12 
REMARK    4  A    between atoms: N_12  and  N_13 
REMARK    5  A    between atoms: C_14  and  C_15 
ROOT
HETATM    1  C   UNL     1     -37.180  40.031 -52.537  1.00  0.00     0.250 C 
HETATM    2  N   UNL     1     -38.323  40.334 -51.795  1.00  0.00    -0.246 N 
HETATM    3  O   UNL     1     -36.911  38.924 -52.999  1.00  0.00    -0.270 OA
HETATM    4  H   UNL     1     -38.593  41.309 -51.700  1.00  0.00     0.192 HD
ENDROOT
BRANCH   2   5
HETATM    5  N   UNL     1     -39.369  39.474 -51.557  1.00  0.00    -0.184 NA
HETATM    6  C   UNL     1     -40.580  39.907 -51.722  1.00  0.00     0.152 C 
BRANCH   6   7
HETATM    7  C   UNL     1     -41.693  39.023 -51.433  1.00  0.00     0.011 A 
HETATM    8  C   UNL     1     -42.095  38.535 -50.146  1.00  0.00     0.004 A 
HETATM    9  C   UNL     1     -43.212  37.719 -50.340  1.00  0.00     0.043 A 
HETATM   10  C   UNL     1     -41.614  38.709 -48.831  1.00  0.00     0.014 A 
HETATM   11  C   UNL     1     -43.872  37.073 -49.287  1.00  0.00     0.030 A 
HETATM   12  N   UNL     1     -43.476  37.707 -51.690  1.00  0.00    -0.364 N 
HETATM   13  C   UNL     1     -43.374  37.264 -47.995  1.00  0.00     0.002 A 
HETATM   14  C   UNL     1     -42.262  38.069 -47.768  1.00  0.00     0.001 A 
HETATM   15  H   UNL     1     -44.230  37.191 -52.121  1.00  0.00     0.165 HD
HETATM   16  C   UNL     1     -42.571  38.486 -52.356  1.00  0.00     0.102 A 
ENDBRANCH   6   7
ENDBRANCH   2   5
BRANCH   1  17
HETATM   17  C   UNL     1     -36.261  41.248 -52.736  1.00  0.00     0.197 C 
BRANCH  17  18
HETATM   18  N   UNL     1     -36.909  42.253 -53.600  1.00  0.00    -0.284 NA
HETATM   19  H   UNL     1     -36.698  43.198 -53.285  1.00  0.00     0.128 HD
BRANCH  18  20
HETATM   20  C   UNL     1     -36.605  42.082 -54.967  1.00  0.00     0.016 A 
HETATM   21  C   UNL     1     -37.550  41.556 -55.876  1.00  0.00    -0.019 A 
HETATM   22  C   UNL     1     -38.969  41.280 -55.448  1.00  0.00     0.052 C 
HETATM   23  C   UNL     1     -37.142  41.300 -57.199  1.00  0.00     0.041 A 
HETATM   24 CL   UNL     1     -38.219  40.614 -58.368  1.00  0.00    -0.084 Cl
HETATM   25  C   UNL     1     -35.841  41.584 -57.621  1.00  0.00     0.024 A 
HETATM   26  C   UNL     1     -34.920  42.118 -56.726  1.00  0.00     0.003 A 
HETATM   27  C   UNL     1     -35.299  42.356 -55.406  1.00  0.00     0.024 A 
ENDBRANCH  18  20
ENDBRANCH  17  18
ENDBRANCH   1  17
TORSDOF 5
ENDMDL
