MODEL 1
REMARK VINA RESULT:      -7.9      0.000      0.000
REMARK  4 active torsions:
REMARK  status: ('A' for Active; 'I' for Inactive)
REMARK    1  A    between atoms: C_3  and  C_4 
REMARK    2  A    between atoms: C_15  and  C_16 
REMARK       I    between atoms: C_16  and  N_17 
REMARK    3  A    between atoms: N_17  and  C_18 
REMARK    4  A    between atoms: C_18  and  C_19 
ROOT
HETATM    1  C   UNL     1     -41.115  55.175 -48.473  1.00  0.00     0.055 C 
HETATM    2  C   UNL     1     -40.993  54.687 -49.885  1.00  0.00     0.024 A 
HETATM    3  C   UNL     1     -41.281  55.367 -51.009  1.00  0.00     0.096 A 
HETATM    4  O   UNL     1     -41.100  54.894 -52.296  1.00  0.00    -0.307 OA
HETATM    5  C   UNL     1     -40.643  53.616 -52.491  1.00  0.00     0.106 A 
HETATM    6  C   UNL     1     -40.353  52.781 -51.410  1.00  0.00     0.050 A 
HETATM    7  C   UNL     1     -40.493  53.299 -50.040  1.00  0.00     0.193 A 
HETATM    8  O   UNL     1     -40.212  52.603 -49.071  1.00  0.00    -0.287 OA
HETATM    9  C   UNL     1     -40.477  53.136 -53.801  1.00  0.00     0.066 A 
HETATM   10  C   UNL     1     -40.055  51.805 -53.988  1.00  0.00     0.020 A 
HETATM   11  C   UNL     1     -39.784  50.973 -52.902  1.00  0.00     0.002 A 
HETATM   12  C   UNL     1     -39.925  51.463 -51.610  1.00  0.00     0.018 A 
ENDROOT
BRANCH   9  13
HETATM   13  C   UNL     1     -40.686  53.945 -55.045  1.00  0.00     0.255 C 
HETATM   14  N   UNL     1     -41.853  54.661 -55.164  1.00  0.00    -0.349 N 
HETATM   15  H   UNL     1     -42.577  54.564 -54.464  1.00  0.00     0.163 HD
HETATM   16  O   UNL     1     -39.809  53.981 -55.904  1.00  0.00    -0.268 OA
BRANCH  14  17
HETATM   17  C   UNL     1     -42.120  55.531 -56.297  1.00  0.00     0.114 C 
HETATM   18  C   UNL     1     -43.440  55.157 -56.978  1.00  0.00     0.037 C 
BRANCH  17  19
HETATM   19  C   UNL     1     -42.038  56.974 -55.836  1.00  0.00    -0.033 A 
HETATM   20  C   UNL     1     -41.554  57.347 -54.579  1.00  0.00     0.028 A 
HETATM   21  C   UNL     1     -41.487  58.696 -54.261  1.00  0.00     0.116 A 
HETATM   22  N   UNL     1     -41.840  59.689 -55.103  1.00  0.00    -0.273 NA
HETATM   23  C   UNL     1     -42.292  59.315 -56.317  1.00  0.00     0.116 A 
HETATM   24  C   UNL     1     -42.403  57.995 -56.724  1.00  0.00     0.028 A 
ENDBRANCH  17  19
ENDBRANCH  14  17
ENDBRANCH   9  13
BRANCH   3  25
HETATM   25  C   UNL     1     -41.840  56.726 -50.988  1.00  0.00    -0.002 A 
HETATM   26  C   UNL     1     -41.035  57.819 -50.646  1.00  0.00     0.014 A 
HETATM   27  C   UNL     1     -41.575  59.106 -50.614  1.00  0.00     0.001 A 
HETATM   28  C   UNL     1     -42.916  59.312 -50.935  1.00  0.00     0.000 A 
HETATM   29  C   UNL     1     -43.721  58.231 -51.290  1.00  0.00     0.001 A 
HETATM   30  C   UNL     1     -43.185  56.943 -51.318  1.00  0.00     0.014 A 
ENDBRANCH   3  25
TORSDOF 4
ENDMDL
MODEL 2
REMARK VINA RESULT:      -7.9      2.792      5.549
REMARK  4 active torsions:
REMARK  status: ('A' for Active; 'I' for Inactive)
REMARK    1  A    between atoms: C_3  and  C_4 
REMARK    2  A    between atoms: C_15  and  C_16 
REMARK       I    between atoms: C_16  and  N_17 
REMARK    3  A    between atoms: N_17  and  C_18 
REMARK    4  A    between atoms: C_18  and  C_19 
ROOT
HETATM    1  C   UNL     1     -42.955  54.327 -50.356  1.00  0.00     0.055 C 
HETATM    2  C   UNL     1     -43.072  55.076 -51.650  1.00  0.00     0.024 A 
HETATM    3  C   UNL     1     -42.457  54.793 -52.813  1.00  0.00     0.096 A 
HETATM    4  O   UNL     1     -42.638  55.481 -53.999  1.00  0.00    -0.307 OA
HETATM    5  C   UNL     1     -43.460  56.579 -54.028  1.00  0.00     0.106 A 
HETATM    6  C   UNL     1     -44.122  57.015 -52.879  1.00  0.00     0.050 A 
HETATM    7  C   UNL     1     -43.974  56.253 -51.628  1.00  0.00     0.193 A 
HETATM    8  O   UNL     1     -44.569  56.589 -50.610  1.00  0.00    -0.287 OA
HETATM    9  C   UNL     1     -43.627  57.283 -55.232  1.00  0.00     0.066 A 
HETATM   10  C   UNL     1     -44.434  58.437 -55.238  1.00  0.00     0.020 A 
HETATM   11  C   UNL     1     -45.077  58.875 -54.080  1.00  0.00     0.002 A 
HETATM   12  C   UNL     1     -44.929  58.158 -52.899  1.00  0.00     0.018 A 
ENDROOT
BRANCH   9  13
HETATM   13  C   UNL     1     -43.031  56.885 -56.549  1.00  0.00     0.255 C 
HETATM   14  N   UNL     1     -43.880  56.453 -57.541  1.00  0.00    -0.349 N 
HETATM   15  H   UNL     1     -44.866  56.330 -57.342  1.00  0.00     0.163 HD
HETATM   16  O   UNL     1     -41.820  56.984 -56.727  1.00  0.00    -0.268 OA
BRANCH  14  17
HETATM   17  C   UNL     1     -43.411  56.112 -58.872  1.00  0.00     0.114 C 
HETATM   18  C   UNL     1     -44.289  55.027 -59.503  1.00  0.00     0.037 C 
BRANCH  17  19
HETATM   19  C   UNL     1     -43.298  57.384 -59.692  1.00  0.00    -0.033 A 
HETATM   20  C   UNL     1     -44.394  58.199 -59.992  1.00  0.00     0.028 A 
HETATM   21  C   UNL     1     -44.186  59.360 -60.721  1.00  0.00     0.116 A 
HETATM   22  N   UNL     1     -42.976  59.776 -61.149  1.00  0.00    -0.273 NA
HETATM   23  C   UNL     1     -41.926  58.987 -60.842  1.00  0.00     0.116 A 
HETATM   24  C   UNL     1     -42.034  57.806 -60.125  1.00  0.00     0.028 A 
ENDBRANCH  17  19
ENDBRANCH  14  17
ENDBRANCH   9  13
BRANCH   3  25
HETATM   25  C   UNL     1     -41.494  53.691 -52.949  1.00  0.00    -0.002 A 
HETATM   26  C   UNL     1     -41.463  52.917 -54.115  1.00  0.00     0.014 A 
HETATM   27  C   UNL     1     -40.556  51.862 -54.232  1.00  0.00     0.001 A 
HETATM   28  C   UNL     1     -39.668  51.581 -53.195  1.00  0.00     0.000 A 
HETATM   29  C   UNL     1     -39.684  52.356 -52.037  1.00  0.00     0.001 A 
HETATM   30  C   UNL     1     -40.592  53.408 -51.914  1.00  0.00     0.014 A 
ENDBRANCH   3  25
TORSDOF 4
ENDMDL
MODEL 3
REMARK VINA RESULT:      -7.8      2.271      6.044
REMARK  4 active torsions:
REMARK  status: ('A' for Active; 'I' for Inactive)
REMARK    1  A    between atoms: C_3  and  C_4 
REMARK    2  A    between atoms: C_15  and  C_16 
REMARK       I    between atoms: C_16  and  N_17 
REMARK    3  A    between atoms: N_17  and  C_18 
REMARK    4  A    between atoms: C_18  and  C_19 
ROOT
HETATM    1  C   UNL     1     -42.456  61.101 -55.215  1.00  0.00     0.055 C 
HETATM    2  C   UNL     1     -42.505  59.638 -55.537  1.00  0.00     0.024 A 
HETATM    3  C   UNL     1     -42.271  58.611 -54.700  1.00  0.00     0.096 A 
HETATM    4  O   UNL     1     -42.382  57.273 -55.028  1.00  0.00    -0.307 OA
HETATM    5  C   UNL     1     -42.702  56.913 -56.313  1.00  0.00     0.106 A 
HETATM    6  C   UNL     1     -42.922  57.878 -57.298  1.00  0.00     0.050 A 
HETATM    7  C   UNL     1     -42.858  59.304 -56.939  1.00  0.00     0.193 A 
HETATM    8  O   UNL     1     -43.081  60.175 -57.772  1.00  0.00    -0.287 OA
HETATM    9  C   UNL     1     -42.797  55.551 -56.644  1.00  0.00     0.066 A 
HETATM   10  C   UNL     1     -43.078  55.195 -57.977  1.00  0.00     0.020 A 
HETATM   11  C   UNL     1     -43.279  56.165 -58.958  1.00  0.00     0.002 A 
HETATM   12  C   UNL     1     -43.210  57.511 -58.617  1.00  0.00     0.018 A 
ENDROOT
BRANCH   9  13
HETATM   13  C   UNL     1     -42.653  54.419 -55.672  1.00  0.00     0.255 C 
HETATM   14  N   UNL     1     -41.488  54.330 -54.949  1.00  0.00    -0.349 N 
HETATM   15  H   UNL     1     -40.725  54.968 -55.143  1.00  0.00     0.163 HD
HETATM   16  O   UNL     1     -43.578  53.626 -55.517  1.00  0.00    -0.268 OA
BRANCH  14  17
HETATM   17  C   UNL     1     -41.278  53.313 -53.933  1.00  0.00     0.114 C 
HETATM   18  C   UNL     1     -40.146  52.363 -54.332  1.00  0.00     0.037 C 
BRANCH  17  19
HETATM   19  C   UNL     1     -41.083  53.994 -52.591  1.00  0.00    -0.033 A 
HETATM   20  C   UNL     1     -41.758  55.161 -52.222  1.00  0.00     0.028 A 
HETATM   21  C   UNL     1     -41.537  55.692 -50.960  1.00  0.00     0.116 A 
HETATM   22  N   UNL     1     -40.720  55.138 -50.041  1.00  0.00    -0.273 NA
HETATM   23  C   UNL     1     -40.085  54.006 -50.405  1.00  0.00     0.116 A 
HETATM   24  C   UNL     1     -40.234  53.404 -51.645  1.00  0.00     0.028 A 
ENDBRANCH  17  19
ENDBRANCH  14  17
ENDBRANCH   9  13
BRANCH   3  25
HETATM   25  C   UNL     1     -41.855  58.810 -53.304  1.00  0.00    -0.002 A 
HETATM   26  C   UNL     1     -42.811  58.988 -52.298  1.00  0.00     0.014 A 
HETATM   27  C   UNL     1     -42.410  59.191 -50.976  1.00  0.00     0.001 A 
HETATM   28  C   UNL     1     -41.054  59.205 -50.649  1.00  0.00     0.000 A 
HETATM   29  C   UNL     1     -40.096  59.015 -51.643  1.00  0.00     0.001 A 
HETATM   30  C   UNL     1     -40.494  58.817 -52.966  1.00  0.00     0.014 A 
ENDBRANCH   3  25
TORSDOF 4
ENDMDL
MODEL 4
REMARK VINA RESULT:      -7.7      2.101      4.883
REMARK  4 active torsions:
REMARK  status: ('A' for Active; 'I' for Inactive)
REMARK    1  A    between atoms: C_3  and  C_4 
REMARK    2  A    between atoms: C_15  and  C_16 
REMARK       I    between atoms: C_16  and  N_17 
REMARK    3  A    between atoms: N_17  and  C_18 
REMARK    4  A    between atoms: C_18  and  C_19 
ROOT
HETATM    1  C   UNL     1     -43.207  53.954 -56.057  1.00  0.00     0.055 C 
HETATM    2  C   UNL     1     -42.562  54.338 -54.759  1.00  0.00     0.024 A 
HETATM    3  C   UNL     1     -42.617  55.533 -54.145  1.00  0.00     0.096 A 
HETATM    4  O   UNL     1     -42.050  55.826 -52.919  1.00  0.00    -0.307 OA
HETATM    5  C   UNL     1     -41.318  54.869 -52.263  1.00  0.00     0.106 A 
HETATM    6  C   UNL     1     -41.137  53.598 -52.812  1.00  0.00     0.050 A 
HETATM    7  C   UNL     1     -41.784  53.266 -54.091  1.00  0.00     0.193 A 
HETATM    8  O   UNL     1     -41.674  52.148 -54.583  1.00  0.00    -0.287 OA
HETATM    9  C   UNL     1     -40.731  55.178 -51.024  1.00  0.00     0.066 A 
HETATM   10  C   UNL     1     -39.941  54.203 -50.385  1.00  0.00     0.020 A 
HETATM   11  C   UNL     1     -39.752  52.942 -50.950  1.00  0.00     0.002 A 
HETATM   12  C   UNL     1     -40.358  52.634 -52.162  1.00  0.00     0.018 A 
ENDROOT
BRANCH   9  13
HETATM   13  C   UNL     1     -40.902  56.475 -50.293  1.00  0.00     0.255 C 
HETATM   14  N   UNL     1     -40.683  57.643 -50.985  1.00  0.00    -0.349 N 
HETATM   15  H   UNL     1     -40.332  57.608 -51.934  1.00  0.00     0.163 HD
HETATM   16  O   UNL     1     -41.263  56.472 -49.119  1.00  0.00    -0.268 OA
BRANCH  14  17
HETATM   17  C   UNL     1     -40.889  58.951 -50.388  1.00  0.00     0.114 C 
HETATM   18  C   UNL     1     -39.559  59.687 -50.203  1.00  0.00     0.037 C 
BRANCH  17  19
HETATM   19  C   UNL     1     -41.917  59.707 -51.209  1.00  0.00    -0.033 A 
HETATM   20  C   UNL     1     -43.025  60.345 -50.644  1.00  0.00     0.028 A 
HETATM   21  C   UNL     1     -43.893  61.040 -51.475  1.00  0.00     0.116 A 
HETATM   22  N   UNL     1     -43.726  61.163 -52.808  1.00  0.00    -0.273 NA
HETATM   23  C   UNL     1     -42.646  60.554 -53.337  1.00  0.00     0.116 A 
HETATM   24  C   UNL     1     -41.727  59.831 -52.592  1.00  0.00     0.028 A 
ENDBRANCH  17  19
ENDBRANCH  14  17
ENDBRANCH   9  13
BRANCH   3  25
HETATM   25  C   UNL     1     -43.304  56.692 -54.733  1.00  0.00    -0.002 A 
HETATM   26  C   UNL     1     -42.709  57.418 -55.770  1.00  0.00     0.014 A 
HETATM   27  C   UNL     1     -43.360  58.527 -56.315  1.00  0.00     0.001 A 
HETATM   28  C   UNL     1     -44.612  58.909 -55.837  1.00  0.00     0.000 A 
HETATM   29  C   UNL     1     -45.218  58.183 -54.813  1.00  0.00     0.001 A 
HETATM   30  C   UNL     1     -44.568  57.077 -54.263  1.00  0.00     0.014 A 
ENDBRANCH   3  25
TORSDOF 4
ENDMDL
MODEL 5
REMARK VINA RESULT:      -7.4      3.354      6.496
REMARK  4 active torsions:
REMARK  status: ('A' for Active; 'I' for Inactive)
REMARK    1  A    between atoms: C_3  and  C_4 
REMARK    2  A    between atoms: C_15  and  C_16 
REMARK       I    between atoms: C_16  and  N_17 
REMARK    3  A    between atoms: N_17  and  C_18 
REMARK    4  A    between atoms: C_18  and  C_19 
ROOT
HETATM    1  C   UNL     1     -43.511  55.357 -51.099  1.00  0.00     0.055 C 
HETATM    2  C   UNL     1     -43.732  56.451 -52.101  1.00  0.00     0.024 A 
HETATM    3  C   UNL     1     -43.220  56.534 -53.342  1.00  0.00     0.096 A 
HETATM    4  O   UNL     1     -43.496  57.536 -54.253  1.00  0.00    -0.307 OA
HETATM    5  C   UNL     1     -44.310  58.579 -53.889  1.00  0.00     0.106 A 
HETATM    6  C   UNL     1     -44.869  58.645 -52.611  1.00  0.00     0.050 A 
HETATM    7  C   UNL     1     -44.621  57.553 -51.657  1.00  0.00     0.193 A 
HETATM    8  O   UNL     1     -45.126  57.563 -50.540  1.00  0.00    -0.287 OA
HETATM    9  C   UNL     1     -44.574  59.603 -54.814  1.00  0.00     0.066 A 
HETATM   10  C   UNL     1     -45.370  60.693 -54.412  1.00  0.00     0.020 A 
HETATM   11  C   UNL     1     -45.910  60.759 -53.128  1.00  0.00     0.002 A 
HETATM   12  C   UNL     1     -45.667  59.729 -52.227  1.00  0.00     0.018 A 
ENDROOT
BRANCH   9  13
HETATM   13  C   UNL     1     -44.095  59.621 -56.234  1.00  0.00     0.255 C 
HETATM   14  N   UNL     1     -44.010  58.424 -56.905  1.00  0.00    -0.349 N 
HETATM   15  H   UNL     1     -44.185  57.558 -56.412  1.00  0.00     0.163 HD
HETATM   16  O   UNL     1     -43.827  60.691 -56.774  1.00  0.00    -0.268 OA
BRANCH  14  17
HETATM   17  C   UNL     1     -43.625  58.342 -58.303  1.00  0.00     0.114 C 
HETATM   18  C   UNL     1     -42.155  57.939 -58.446  1.00  0.00     0.037 C 
BRANCH  17  19
HETATM   19  C   UNL     1     -44.600  57.431 -59.027  1.00  0.00    -0.033 A 
HETATM   20  C   UNL     1     -45.986  57.608 -58.984  1.00  0.00     0.028 A 
HETATM   21  C   UNL     1     -46.794  56.742 -59.705  1.00  0.00     0.116 A 
HETATM   22  N   UNL     1     -46.326  55.737 -60.475  1.00  0.00    -0.273 NA
HETATM   23  C   UNL     1     -44.987  55.586 -60.517  1.00  0.00     0.116 A 
HETATM   24  C   UNL     1     -44.098  56.395 -59.827  1.00  0.00     0.028 A 
ENDBRANCH  17  19
ENDBRANCH  14  17
ENDBRANCH   9  13
BRANCH   3  25
HETATM   25  C   UNL     1     -42.280  55.538 -53.876  1.00  0.00    -0.002 A 
HETATM   26  C   UNL     1     -42.664  54.199 -54.007  1.00  0.00     0.014 A 
HETATM   27  C   UNL     1     -41.763  53.255 -54.502  1.00  0.00     0.001 A 
HETATM   28  C   UNL     1     -40.478  53.643 -54.881  1.00  0.00     0.000 A 
HETATM   29  C   UNL     1     -40.093  54.978 -54.767  1.00  0.00     0.001 A 
HETATM   30  C   UNL     1     -40.990  55.923 -54.268  1.00  0.00     0.014 A 
ENDBRANCH   3  25
TORSDOF 4
ENDMDL
MODEL 6
REMARK VINA RESULT:      -7.3      1.700      2.274
REMARK  4 active torsions:
REMARK  status: ('A' for Active; 'I' for Inactive)
REMARK    1  A    between atoms: C_3  and  C_4 
REMARK    2  A    between atoms: C_15  and  C_16 
REMARK       I    between atoms: C_16  and  N_17 
REMARK    3  A    between atoms: N_17  and  C_18 
REMARK    4  A    between atoms: C_18  and  C_19 
ROOT
HETATM    1  C   UNL     1     -41.204  55.841 -49.240  1.00  0.00     0.055 C 
HETATM    2  C   UNL     1     -41.377  55.379 -50.656  1.00  0.00     0.024 A 
HETATM    3  C   UNL     1     -42.118  55.959 -51.617  1.00  0.00     0.096 A 
HETATM    4  O   UNL     1     -42.204  55.527 -52.927  1.00  0.00    -0.307 OA
HETATM    5  C   UNL     1     -41.540  54.389 -53.312  1.00  0.00     0.106 A 
HETATM    6  C   UNL     1     -40.774  53.659 -52.401  1.00  0.00     0.050 A 
HETATM    7  C   UNL     1     -40.637  54.146 -51.019  1.00  0.00     0.193 A 
HETATM    8  O   UNL     1     -39.943  53.548 -50.205  1.00  0.00    -0.287 OA
HETATM    9  C   UNL     1     -41.644  53.946 -54.641  1.00  0.00     0.066 A 
HETATM   10  C   UNL     1     -40.999  52.750 -55.011  1.00  0.00     0.020 A 
HETATM   11  C   UNL     1     -40.250  52.018 -54.090  1.00  0.00     0.002 A 
HETATM   12  C   UNL     1     -40.129  52.477 -52.784  1.00  0.00     0.018 A 
ENDROOT
BRANCH   9  13
HETATM   13  C   UNL     1     -42.375  54.669 -55.732  1.00  0.00     0.255 C 
HETATM   14  N   UNL     1     -41.923  55.914 -56.101  1.00  0.00    -0.349 N 
HETATM   15  H   UNL     1     -41.172  56.351 -55.581  1.00  0.00     0.163 HD
HETATM   16  O   UNL     1     -43.326  54.130 -56.292  1.00  0.00    -0.268 OA
BRANCH  14  17
HETATM   17  C   UNL     1     -42.517  56.666 -57.193  1.00  0.00     0.114 C 
HETATM   18  C   UNL     1     -43.043  55.728 -58.283  1.00  0.00     0.037 C 
BRANCH  17  19
HETATM   19  C   UNL     1     -43.556  57.615 -56.625  1.00  0.00    -0.033 A 
HETATM   20  C   UNL     1     -44.644  58.086 -57.366  1.00  0.00     0.028 A 
HETATM   21  C   UNL     1     -45.560  58.926 -56.749  1.00  0.00     0.116 A 
HETATM   22  N   UNL     1     -45.484  59.308 -55.457  1.00  0.00    -0.273 NA
HETATM   23  C   UNL     1     -44.436  58.835 -54.752  1.00  0.00     0.116 A 
HETATM   24  C   UNL     1     -43.466  57.998 -55.280  1.00  0.00     0.028 A 
ENDBRANCH  17  19
ENDBRANCH  14  17
ENDBRANCH   9  13
BRANCH   3  25
HETATM   25  C   UNL     1     -42.944  57.149 -51.367  1.00  0.00    -0.002 A 
HETATM   26  C   UNL     1     -44.318  57.023 -51.137  1.00  0.00     0.014 A 
HETATM   27  C   UNL     1     -45.100  58.158 -50.915  1.00  0.00     0.001 A 
HETATM   28  C   UNL     1     -44.514  59.423 -50.908  1.00  0.00     0.000 A 
HETATM   29  C   UNL     1     -43.143  59.556 -51.123  1.00  0.00     0.001 A 
HETATM   30  C   UNL     1     -42.359  58.424 -51.350  1.00  0.00     0.014 A 
ENDBRANCH   3  25
TORSDOF 4
ENDMDL
MODEL 7
REMARK VINA RESULT:      -7.3      1.600      4.811
REMARK  4 active torsions:
REMARK  status: ('A' for Active; 'I' for Inactive)
REMARK    1  A    between atoms: C_3  and  C_4 
REMARK    2  A    between atoms: C_15  and  C_16 
REMARK       I    between atoms: C_16  and  N_17 
REMARK    3  A    between atoms: N_17  and  C_18 
REMARK    4  A    between atoms: C_18  and  C_19 
ROOT
HETATM    1  C   UNL     1     -40.435  52.713 -48.881  1.00  0.00     0.055 C 
HETATM    2  C   UNL     1     -40.614  53.681 -50.012  1.00  0.00     0.024 A 
HETATM    3  C   UNL     1     -40.519  53.421 -51.329  1.00  0.00     0.096 A 
HETATM    4  O   UNL     1     -40.746  54.335 -52.340  1.00  0.00    -0.307 OA
HETATM    5  C   UNL     1     -41.044  55.636 -52.025  1.00  0.00     0.106 A 
HETATM    6  C   UNL     1     -41.124  56.056 -50.696  1.00  0.00     0.050 A 
HETATM    7  C   UNL     1     -40.935  55.073 -49.616  1.00  0.00     0.193 A 
HETATM    8  O   UNL     1     -41.035  55.402 -48.439  1.00  0.00    -0.287 OA
HETATM    9  C   UNL     1     -41.258  56.564 -53.058  1.00  0.00     0.066 A 
HETATM   10  C   UNL     1     -41.513  57.908 -52.722  1.00  0.00     0.020 A 
HETATM   11  C   UNL     1     -41.574  58.321 -51.391  1.00  0.00     0.002 A 
HETATM   12  C   UNL     1     -41.388  57.392 -50.374  1.00  0.00     0.018 A 
ENDROOT
BRANCH   9  13
HETATM   13  C   UNL     1     -41.269  56.234 -54.520  1.00  0.00     0.255 C 
HETATM   14  N   UNL     1     -42.275  56.761 -55.296  1.00  0.00    -0.349 N 
HETATM   15  H   UNL     1     -43.026  57.281 -54.861  1.00  0.00     0.163 HD
HETATM   16  O   UNL     1     -40.374  55.541 -54.996  1.00  0.00    -0.268 OA
BRANCH  14  17
HETATM   17  C   UNL     1     -42.335  56.558 -56.733  1.00  0.00     0.114 C 
HETATM   18  C   UNL     1     -43.177  55.327 -57.080  1.00  0.00     0.037 C 
BRANCH  17  19
HETATM   19  C   UNL     1     -42.803  57.844 -57.389  1.00  0.00    -0.033 A 
HETATM   20  C   UNL     1     -44.043  58.430 -57.121  1.00  0.00     0.028 A 
HETATM   21  C   UNL     1     -44.368  59.625 -57.747  1.00  0.00     0.116 A 
HETATM   22  N   UNL     1     -43.548  60.282 -58.592  1.00  0.00    -0.273 NA
HETATM   23  C   UNL     1     -42.349  59.713 -58.831  1.00  0.00     0.116 A 
HETATM   24  C   UNL     1     -41.937  58.518 -58.260  1.00  0.00     0.028 A 
ENDBRANCH  17  19
ENDBRANCH  14  17
ENDBRANCH   9  13
BRANCH   3  25
HETATM   25  C   UNL     1     -40.148  52.096 -51.847  1.00  0.00    -0.002 A 
HETATM   26  C   UNL     1     -40.023  51.883 -53.224  1.00  0.00     0.014 A 
HETATM   27  C   UNL     1     -39.684  50.620 -53.712  1.00  0.00     0.001 A 
HETATM   28  C   UNL     1     -39.456  49.565 -52.828  1.00  0.00     0.000 A 
HETATM   29  C   UNL     1     -39.565  49.773 -51.455  1.00  0.00     0.001 A 
HETATM   30  C   UNL     1     -39.908  51.034 -50.964  1.00  0.00     0.014 A 
ENDBRANCH   3  25
TORSDOF 4
ENDMDL
MODEL 8
REMARK VINA RESULT:      -7.3      2.469      3.846
REMARK  4 active torsions:
REMARK  status: ('A' for Active; 'I' for Inactive)
REMARK    1  A    between atoms: C_3  and  C_4 
REMARK    2  A    between atoms: C_15  and  C_16 
REMARK       I    between atoms: C_16  and  N_17 
REMARK    3  A    between atoms: N_17  and  C_18 
REMARK    4  A    between atoms: C_18  and  C_19 
ROOT
HETATM    1  C   UNL     1     -41.460  56.277 -49.591  1.00  0.00     0.055 C 
HETATM    2  C   UNL     1     -41.649  56.115 -51.069  1.00  0.00     0.024 A 
HETATM    3  C   UNL     1     -42.380  56.893 -51.887  1.00  0.00     0.096 A 
HETATM    4  O   UNL     1     -42.481  56.737 -53.257  1.00  0.00    -0.307 OA
HETATM    5  C   UNL     1     -41.847  55.686 -53.869  1.00  0.00     0.106 A 
HETATM    6  C   UNL     1     -41.094  54.770 -53.132  1.00  0.00     0.050 A 
HETATM    7  C   UNL     1     -40.940  54.964 -51.681  1.00  0.00     0.193 A 
HETATM    8  O   UNL     1     -40.257  54.198 -51.011  1.00  0.00    -0.287 OA
HETATM    9  C   UNL     1     -41.967  55.524 -55.259  1.00  0.00     0.066 A 
HETATM   10  C   UNL     1     -41.352  54.413 -55.869  1.00  0.00     0.020 A 
HETATM   11  C   UNL     1     -40.617  53.493 -55.122  1.00  0.00     0.002 A 
HETATM   12  C   UNL     1     -40.480  53.675 -53.750  1.00  0.00     0.018 A 
ENDROOT
BRANCH   9  13
HETATM   13  C   UNL     1     -42.684  56.469 -56.176  1.00  0.00     0.255 C 
HETATM   14  N   UNL     1     -42.157  56.684 -57.427  1.00  0.00    -0.349 N 
HETATM   15  H   UNL     1     -41.263  56.277 -57.673  1.00  0.00     0.163 HD
HETATM   16  O   UNL     1     -43.732  56.996 -55.810  1.00  0.00    -0.268 OA
BRANCH  14  17
HETATM   17  C   UNL     1     -42.813  57.526 -58.412  1.00  0.00     0.114 C 
HETATM   18  C   UNL     1     -41.789  58.194 -59.334  1.00  0.00     0.037 C 
BRANCH  17  19
HETATM   19  C   UNL     1     -43.866  56.704 -59.134  1.00  0.00    -0.033 A 
HETATM   20  C   UNL     1     -43.632  55.409 -59.605  1.00  0.00     0.028 A 
HETATM   21  C   UNL     1     -44.668  54.725 -60.225  1.00  0.00     0.116 A 
HETATM   22  N   UNL     1     -45.911  55.223 -60.386  1.00  0.00    -0.273 NA
HETATM   23  C   UNL     1     -46.126  56.469 -59.915  1.00  0.00     0.116 A 
HETATM   24  C   UNL     1     -45.154  57.233 -59.290  1.00  0.00     0.028 A 
ENDBRANCH  17  19
ENDBRANCH  14  17
ENDBRANCH   9  13
BRANCH   3  25
HETATM   25  C   UNL     1     -43.176  58.027 -51.395  1.00  0.00    -0.002 A 
HETATM   26  C   UNL     1     -44.549  57.882 -51.165  1.00  0.00     0.014 A 
HETATM   27  C   UNL     1     -45.302  58.966 -50.711  1.00  0.00     0.001 A 
HETATM   28  C   UNL     1     -44.690  60.196 -50.472  1.00  0.00     0.000 A 
HETATM   29  C   UNL     1     -43.320  60.344 -50.685  1.00  0.00     0.001 A 
HETATM   30  C   UNL     1     -42.565  59.263 -51.143  1.00  0.00     0.014 A 
ENDBRANCH   3  25
TORSDOF 4
ENDMDL
MODEL 9
REMARK VINA RESULT:      -7.0      3.082      6.131
REMARK  4 active torsions:
REMARK  status: ('A' for Active; 'I' for Inactive)
REMARK    1  A    between atoms: C_3  and  C_4 
REMARK    2  A    between atoms: C_15  and  C_16 
REMARK       I    between atoms: C_16  and  N_17 
REMARK    3  A    between atoms: N_17  and  C_18 
REMARK    4  A    between atoms: C_18  and  C_19 
ROOT
HETATM    1  C   UNL     1     -40.682  57.156 -50.911  1.00  0.00     0.055 C 
HETATM    2  C   UNL     1     -41.714  57.637 -51.887  1.00  0.00     0.024 A 
HETATM    3  C   UNL     1     -42.151  57.000 -52.989  1.00  0.00     0.096 A 
HETATM    4  O   UNL     1     -43.146  57.458 -53.832  1.00  0.00    -0.307 OA
HETATM    5  C   UNL     1     -43.727  58.679 -53.596  1.00  0.00     0.106 A 
HETATM    6  C   UNL     1     -43.332  59.468 -52.514  1.00  0.00     0.050 A 
HETATM    7  C   UNL     1     -42.311  58.960 -51.585  1.00  0.00     0.193 A 
HETATM    8  O   UNL     1     -41.968  59.613 -50.606  1.00  0.00    -0.287 OA
HETATM    9  C   UNL     1     -44.727  59.146 -54.466  1.00  0.00     0.066 A 
HETATM   10  C   UNL     1     -45.280  60.422 -54.242  1.00  0.00     0.020 A 
HETATM   11  C   UNL     1     -44.867  61.211 -53.169  1.00  0.00     0.002 A 
HETATM   12  C   UNL     1     -43.896  60.731 -52.297  1.00  0.00     0.018 A 
ENDROOT
BRANCH   9  13
HETATM   13  C   UNL     1     -45.291  58.373 -55.620  1.00  0.00     0.255 C 
HETATM   14  N   UNL     1     -45.039  58.831 -56.891  1.00  0.00    -0.349 N 
HETATM   15  H   UNL     1     -44.561  59.714 -57.023  1.00  0.00     0.163 HD
HETATM   16  O   UNL     1     -45.926  57.342 -55.413  1.00  0.00    -0.268 OA
BRANCH  14  17
HETATM   17  C   UNL     1     -45.480  58.117 -58.077  1.00  0.00     0.114 C 
HETATM   18  C   UNL     1     -46.414  58.985 -58.925  1.00  0.00     0.037 C 
BRANCH  17  19
HETATM   19  C   UNL     1     -44.262  57.596 -58.816  1.00  0.00    -0.033 A 
HETATM   20  C   UNL     1     -43.920  56.241 -58.864  1.00  0.00     0.028 A 
HETATM   21  C   UNL     1     -42.804  55.858 -59.594  1.00  0.00     0.116 A 
HETATM   22  N   UNL     1     -42.027  56.713 -60.290  1.00  0.00    -0.273 NA
HETATM   23  C   UNL     1     -42.376  58.014 -60.245  1.00  0.00     0.116 A 
HETATM   24  C   UNL     1     -43.468  58.495 -59.539  1.00  0.00     0.028 A 
ENDBRANCH  17  19
ENDBRANCH  14  17
ENDBRANCH   9  13
BRANCH   3  25
HETATM   25  C   UNL     1     -41.596  55.712 -53.429  1.00  0.00    -0.002 A 
HETATM   26  C   UNL     1     -40.679  55.659 -54.485  1.00  0.00     0.014 A 
HETATM   27  C   UNL     1     -40.167  54.431 -54.908  1.00  0.00     0.001 A 
HETATM   28  C   UNL     1     -40.556  53.252 -54.273  1.00  0.00     0.000 A 
HETATM   29  C   UNL     1     -41.458  53.298 -53.212  1.00  0.00     0.001 A 
HETATM   30  C   UNL     1     -41.976  54.524 -52.789  1.00  0.00     0.014 A 
ENDBRANCH   3  25
TORSDOF 4
ENDMDL
MODEL 10
REMARK VINA RESULT:      -7.0      2.981      6.629
REMARK  4 active torsions:
REMARK  status: ('A' for Active; 'I' for Inactive)
REMARK    1  A    between atoms: C_3  and  C_4 
REMARK    2  A    between atoms: C_15  and  C_16 
REMARK       I    between atoms: C_16  and  N_17 
REMARK    3  A    between atoms: N_17  and  C_18 
REMARK    4  A    between atoms: C_18  and  C_19 
ROOT
HETATM    1  C   UNL     1     -45.068  61.401 -56.831  1.00  0.00     0.055 C 
HETATM    2  C   UNL     1     -44.557  60.000 -56.989  1.00  0.00     0.024 A 
HETATM    3  C   UNL     1     -44.068  59.199 -56.025  1.00  0.00     0.096 A 
HETATM    4  O   UNL     1     -43.658  57.891 -56.208  1.00  0.00    -0.307 OA
HETATM    5  C   UNL     1     -43.683  57.341 -57.464  1.00  0.00     0.106 A 
HETATM    6  C   UNL     1     -44.119  58.079 -58.566  1.00  0.00     0.050 A 
HETATM    7  C   UNL     1     -44.607  59.453 -58.367  1.00  0.00     0.193 A 
HETATM    8  O   UNL     1     -45.030  60.116 -59.307  1.00  0.00    -0.287 OA
HETATM    9  C   UNL     1     -43.249  56.017 -57.646  1.00  0.00     0.066 A 
HETATM   10  C   UNL     1     -43.232  55.480 -58.948  1.00  0.00     0.020 A 
HETATM   11  C   UNL     1     -43.653  56.231 -60.045  1.00  0.00     0.002 A 
HETATM   12  C   UNL     1     -44.106  57.531 -59.854  1.00  0.00     0.018 A 
ENDROOT
BRANCH   9  13
HETATM   13  C   UNL     1     -42.822  55.094 -56.544  1.00  0.00     0.255 C 
HETATM   14  N   UNL     1     -41.688  55.413 -55.835  1.00  0.00    -0.349 N 
HETATM   15  H   UNL     1     -41.122  56.203 -56.119  1.00  0.00     0.163 HD
HETATM   16  O   UNL     1     -43.502  54.107 -56.277  1.00  0.00    -0.268 OA
BRANCH  14  17
HETATM   17  C   UNL     1     -41.230  54.624 -54.705  1.00  0.00     0.114 C 
HETATM   18  C   UNL     1     -39.879  53.968 -55.004  1.00  0.00     0.037 C 
BRANCH  17  19
HETATM   19  C   UNL     1     -41.245  55.494 -53.462  1.00  0.00    -0.033 A 
HETATM   20  C   UNL     1     -41.220  54.972 -52.165  1.00  0.00     0.028 A 
HETATM   21  C   UNL     1     -41.202  55.849 -51.091  1.00  0.00     0.116 A 
HETATM   22  N   UNL     1     -41.185  57.193 -51.213  1.00  0.00    -0.273 NA
HETATM   23  C   UNL     1     -41.196  57.682 -52.470  1.00  0.00     0.116 A 
HETATM   24  C   UNL     1     -41.221  56.887 -53.605  1.00  0.00     0.028 A 
ENDBRANCH  17  19
ENDBRANCH  14  17
ENDBRANCH   9  13
BRANCH   3  25
HETATM   25  C   UNL     1     -43.911  59.643 -54.633  1.00  0.00    -0.002 A 
HETATM   26  C   UNL     1     -44.777  59.178 -53.638  1.00  0.00     0.014 A 
HETATM   27  C   UNL     1     -44.631  59.615 -52.320  1.00  0.00     0.001 A 
HETATM   28  C   UNL     1     -43.614  60.508 -51.985  1.00  0.00     0.000 A 
HETATM   29  C   UNL     1     -42.738  60.965 -52.968  1.00  0.00     0.001 A 
HETATM   30  C   UNL     1     -42.884  60.534 -54.288  1.00  0.00     0.014 A 
ENDBRANCH   3  25
TORSDOF 4
ENDMDL
