MODEL 1
REMARK VINA RESULT:      -7.0      0.000      0.000
REMARK  5 active torsions:
REMARK  status: ('A' for Active; 'I' for Inactive)
REMARK    1  A    between atoms: C_2  and  O_3 
REMARK    2  A    between atoms: O_3  and  C_4 
REMARK    3  A    between atoms: C_4  and  C_5 
REMARK    4  A    between atoms: C_6  and  C_7 
REMARK    5  A    between atoms: C_22  and  N_23 
ROOT
HETATM    1  C   UNL     1     -42.675  57.710 -53.521  1.00  0.00     0.075 A 
HETATM    2  C   UNL     1     -42.632  56.924 -54.701  1.00  0.00     0.008 A 
HETATM    3  C   UNL     1     -43.234  57.448 -55.881  1.00  0.00     0.045 A 
HETATM    4  C   UNL     1     -43.862  58.699 -55.747  1.00  0.00     0.143 A 
HETATM    5  N   UNL     1     -44.588  59.241 -56.798  1.00  0.00    -0.306 N 
HETATM    6  C   UNL     1     -44.798  58.624 -57.990  1.00  0.00     0.268 A 
HETATM    7  O   UNL     1     -45.511  59.123 -58.853  1.00  0.00    -0.266 OA
HETATM    8  C   UNL     1     -44.094  57.341 -58.189  1.00  0.00     0.120 A 
HETATM    9  C   UNL     1     -44.262  56.640 -59.527  1.00  0.00     0.027 C 
HETATM   10  N   UNL     1     -44.403  56.059 -60.638  1.00  0.00    -0.096 N 
HETATM   11  C   UNL     1     -43.304  56.790 -57.237  1.00  0.00     0.046 A 
HETATM   12  N   UNL     1     -43.884  59.453 -54.628  1.00  0.00    -0.234 NA
HETATM   13  C   UNL     1     -43.293  58.956 -53.521  1.00  0.00     0.050 A 
HETATM   14  C   UNL     1     -43.370  59.813 -52.290  1.00  0.00     0.071 C 
HETATM   15  H   UNL     1     -45.053  60.122 -56.626  1.00  0.00     0.170 HD
ENDROOT
BRANCH  11  16
HETATM   16  N   UNL     1     -42.562  55.636 -57.448  1.00  0.00    -0.301 NA
HETATM   17  H   UNL     1     -42.555  54.950 -56.693  1.00  0.00     0.124 HD
HETATM   18  H   UNL     1     -42.735  55.173 -58.337  1.00  0.00     0.124 HD
ENDBRANCH  11  16
BRANCH   2  19
HETATM   19  C   UNL     1     -42.007  55.588 -54.624  1.00  0.00    -0.024 A 
HETATM   20  C   UNL     1     -40.628  55.428 -54.839  1.00  0.00     0.014 A 
HETATM   21  C   UNL     1     -40.033  54.166 -54.756  1.00  0.00     0.024 A 
HETATM   22  C   UNL     1     -40.813  53.050 -54.470  1.00  0.00     0.034 A 
HETATM   23 CL   UNL     1     -40.081  51.497 -54.361  1.00  0.00    -0.084 Cl
HETATM   24  C   UNL     1     -42.186  53.182 -54.269  1.00  0.00     0.024 A 
HETATM   25  C   UNL     1     -42.780  54.445 -54.348  1.00  0.00     0.014 A 
ENDBRANCH   2  19
BRANCH   1  26
HETATM   26  C   UNL     1     -42.146  57.194 -52.249  1.00  0.00     0.296 C 
HETATM   27  O   UNL     1     -40.984  57.310 -51.908  1.00  0.00    -0.259 OA
BRANCH  26  28
HETATM   28  O   UNL     1     -43.151  56.556 -51.606  1.00  0.00    -0.318 OA
BRANCH  28  29
HETATM   29  C   UNL     1     -42.759  55.565 -50.644  1.00  0.00     0.174 C 
HETATM   30  C   UNL     1     -43.651  54.350 -50.803  1.00  0.00     0.034 C 
ENDBRANCH  28  29
ENDBRANCH  26  28
ENDBRANCH   1  26
TORSDOF 5
ENDMDL
MODEL 2
REMARK VINA RESULT:      -6.8      2.756      5.157
REMARK  5 active torsions:
REMARK  status: ('A' for Active; 'I' for Inactive)
REMARK    1  A    between atoms: C_2  and  O_3 
REMARK    2  A    between atoms: O_3  and  C_4 
REMARK    3  A    between atoms: C_4  and  C_5 
REMARK    4  A    between atoms: C_6  and  C_7 
REMARK    5  A    between atoms: C_22  and  N_23 
ROOT
HETATM    1  C   UNL     1     -42.712  56.249 -54.405  1.00  0.00     0.075 A 
HETATM    2  C   UNL     1     -43.108  56.776 -53.149  1.00  0.00     0.008 A 
HETATM    3  C   UNL     1     -44.028  57.862 -53.133  1.00  0.00     0.045 A 
HETATM    4  C   UNL     1     -44.429  58.345 -54.392  1.00  0.00     0.143 A 
HETATM    5  N   UNL     1     -45.222  59.480 -54.493  1.00  0.00    -0.306 N 
HETATM    6  C   UNL     1     -45.629  60.234 -53.438  1.00  0.00     0.268 A 
HETATM    7  O   UNL     1     -46.267  61.268 -53.597  1.00  0.00    -0.266 OA
HETATM    8  C   UNL     1     -45.284  59.715 -52.099  1.00  0.00     0.120 A 
HETATM    9  C   UNL     1     -45.761  60.501 -50.889  1.00  0.00     0.027 C 
HETATM   10  N   UNL     1     -46.157  61.155 -49.886  1.00  0.00    -0.096 N 
HETATM   11  C   UNL     1     -44.581  58.571 -51.922  1.00  0.00     0.046 A 
HETATM   12  N   UNL     1     -44.067  57.830 -55.585  1.00  0.00    -0.234 NA
HETATM   13  C   UNL     1     -43.210  56.787 -55.588  1.00  0.00     0.050 A 
HETATM   14  C   UNL     1     -42.808  56.267 -56.937  1.00  0.00     0.071 C 
HETATM   15  H   UNL     1     -45.441  59.803 -55.425  1.00  0.00     0.170 HD
ENDROOT
BRANCH  11  16
HETATM   16  N   UNL     1     -44.335  58.023 -50.669  1.00  0.00    -0.301 NA
HETATM   17  H   UNL     1     -44.187  57.015 -50.631  1.00  0.00     0.124 HD
HETATM   18  H   UNL     1     -43.620  58.501 -50.127  1.00  0.00     0.124 HD
ENDBRANCH  11  16
BRANCH   2  19
HETATM   19  C   UNL     1     -42.504  56.195 -51.931  1.00  0.00    -0.024 A 
HETATM   20  C   UNL     1     -41.276  56.670 -51.443  1.00  0.00     0.014 A 
HETATM   21  C   UNL     1     -40.709  56.130 -50.285  1.00  0.00     0.024 A 
HETATM   22  C   UNL     1     -41.360  55.100 -49.612  1.00  0.00     0.034 A 
HETATM   23 CL   UNL     1     -40.667  54.438 -48.183  1.00  0.00    -0.084 Cl
HETATM   24  C   UNL     1     -42.571  54.602 -50.087  1.00  0.00     0.024 A 
HETATM   25  C   UNL     1     -43.140  55.146 -51.243  1.00  0.00     0.014 A 
ENDBRANCH   2  19
BRANCH   1  26
HETATM   26  C   UNL     1     -41.702  55.183 -54.495  1.00  0.00     0.296 C 
HETATM   27  O   UNL     1     -40.521  55.392 -54.697  1.00  0.00    -0.259 OA
BRANCH  26  28
HETATM   28  O   UNL     1     -42.337  53.995 -54.366  1.00  0.00    -0.318 OA
BRANCH  28  29
HETATM   29  C   UNL     1     -41.495  52.836 -54.269  1.00  0.00     0.174 C 
HETATM   30  C   UNL     1     -40.807  52.842 -52.919  1.00  0.00     0.034 C 
ENDBRANCH  28  29
ENDBRANCH  26  28
ENDBRANCH   1  26
TORSDOF 5
ENDMDL
MODEL 3
REMARK VINA RESULT:      -6.8      3.974      7.454
REMARK  5 active torsions:
REMARK  status: ('A' for Active; 'I' for Inactive)
REMARK    1  A    between atoms: C_2  and  O_3 
REMARK    2  A    between atoms: O_3  and  C_4 
REMARK    3  A    between atoms: C_4  and  C_5 
REMARK    4  A    between atoms: C_6  and  C_7 
REMARK    5  A    between atoms: C_22  and  N_23 
ROOT
HETATM    1  C   UNL     1     -43.008  56.472 -54.338  1.00  0.00     0.075 A 
HETATM    2  C   UNL     1     -42.736  56.559 -52.949  1.00  0.00     0.008 A 
HETATM    3  C   UNL     1     -41.906  55.562 -52.361  1.00  0.00     0.045 A 
HETATM    4  C   UNL     1     -41.465  54.544 -53.224  1.00  0.00     0.143 A 
HETATM    5  N   UNL     1     -40.758  53.456 -52.730  1.00  0.00    -0.306 N 
HETATM    6  C   UNL     1     -40.480  53.248 -51.416  1.00  0.00     0.268 A 
HETATM    7  O   UNL     1     -39.916  52.230 -51.033  1.00  0.00    -0.266 OA
HETATM    8  C   UNL     1     -40.868  54.334 -50.492  1.00  0.00     0.120 A 
HETATM    9  C   UNL     1     -40.534  54.165 -49.020  1.00  0.00     0.027 C 
HETATM   10  N   UNL     1     -40.254  54.024 -47.797  1.00  0.00    -0.096 N 
HETATM   11  C   UNL     1     -41.490  55.461 -50.915  1.00  0.00     0.046 A 
HETATM   12  N   UNL     1     -41.708  54.474 -54.550  1.00  0.00    -0.234 NA
HETATM   13  C   UNL     1     -42.479  55.435 -55.101  1.00  0.00     0.050 A 
HETATM   14  C   UNL     1     -42.752  55.300 -56.571  1.00  0.00     0.071 C 
HETATM   15  H   UNL     1     -40.506  52.736 -53.393  1.00  0.00     0.170 HD
ENDROOT
BRANCH  11  16
HETATM   16  N   UNL     1     -41.772  56.527 -50.071  1.00  0.00    -0.301 NA
HETATM   17  H   UNL     1     -41.094  57.289 -50.054  1.00  0.00     0.124 HD
HETATM   18  H   UNL     1     -42.713  56.901 -50.156  1.00  0.00     0.124 HD
ENDBRANCH  11  16
BRANCH   2  19
HETATM   19  C   UNL     1     -43.369  57.654 -52.185  1.00  0.00    -0.024 A 
HETATM   20  C   UNL     1     -44.618  57.470 -51.568  1.00  0.00     0.014 A 
HETATM   21  C   UNL     1     -45.213  58.501 -50.836  1.00  0.00     0.024 A 
HETATM   22  C   UNL     1     -44.570  59.731 -50.724  1.00  0.00     0.034 A 
HETATM   23 CL   UNL     1     -45.298  60.998 -49.817  1.00  0.00    -0.084 Cl
HETATM   24  C   UNL     1     -43.339  59.941 -51.340  1.00  0.00     0.024 A 
HETATM   25  C   UNL     1     -42.742  58.908 -52.069  1.00  0.00     0.014 A 
ENDBRANCH   2  19
BRANCH   1  26
HETATM   26  C   UNL     1     -43.923  57.421 -54.992  1.00  0.00     0.296 C 
HETATM   27  O   UNL     1     -45.128  57.260 -55.050  1.00  0.00    -0.259 OA
BRANCH  26  28
HETATM   28  O   UNL     1     -43.181  58.418 -55.525  1.00  0.00    -0.318 OA
BRANCH  28  29
HETATM   29  C   UNL     1     -43.785  59.149 -56.603  1.00  0.00     0.174 C 
HETATM   30  C   UNL     1     -43.091  58.773 -57.897  1.00  0.00     0.034 C 
ENDBRANCH  28  29
ENDBRANCH  26  28
ENDBRANCH   1  26
TORSDOF 5
ENDMDL
MODEL 4
REMARK VINA RESULT:      -6.7      2.910      4.707
REMARK  5 active torsions:
REMARK  status: ('A' for Active; 'I' for Inactive)
REMARK    1  A    between atoms: C_2  and  O_3 
REMARK    2  A    between atoms: O_3  and  C_4 
REMARK    3  A    between atoms: C_4  and  C_5 
REMARK    4  A    between atoms: C_6  and  C_7 
REMARK    5  A    between atoms: C_22  and  N_23 
ROOT
HETATM    1  C   UNL     1     -42.606  55.866 -54.799  1.00  0.00     0.075 A 
HETATM    2  C   UNL     1     -42.266  57.237 -54.928  1.00  0.00     0.008 A 
HETATM    3  C   UNL     1     -42.275  57.814 -56.230  1.00  0.00     0.045 A 
HETATM    4  C   UNL     1     -42.584  56.939 -57.287  1.00  0.00     0.143 A 
HETATM    5  N   UNL     1     -42.496  57.365 -58.605  1.00  0.00    -0.306 N 
HETATM    6  C   UNL     1     -42.073  58.597 -58.992  1.00  0.00     0.268 A 
HETATM    7  O   UNL     1     -41.947  58.889 -60.175  1.00  0.00    -0.266 OA
HETATM    8  C   UNL     1     -41.809  59.562 -57.905  1.00  0.00     0.120 A 
HETATM    9  C   UNL     1     -41.380  60.967 -58.294  1.00  0.00     0.027 C 
HETATM   10  N   UNL     1     -41.024  62.133 -58.618  1.00  0.00    -0.096 N 
HETATM   11  C   UNL     1     -41.950  59.240 -56.597  1.00  0.00     0.046 A 
HETATM   12  N   UNL     1     -42.927  55.640 -57.160  1.00  0.00    -0.234 NA
HETATM   13  C   UNL     1     -42.935  55.108 -55.919  1.00  0.00     0.050 A 
HETATM   14  C   UNL     1     -43.289  53.652 -55.827  1.00  0.00     0.071 C 
HETATM   15  H   UNL     1     -42.688  56.677 -59.321  1.00  0.00     0.170 HD
ENDROOT
BRANCH  11  16
HETATM   16  N   UNL     1     -41.799  60.166 -55.573  1.00  0.00    -0.301 NA
HETATM   17  H   UNL     1     -41.126  59.934 -54.842  1.00  0.00     0.124 HD
HETATM   18  H   UNL     1     -41.661  61.125 -55.881  1.00  0.00     0.124 HD
ENDBRANCH  11  16
BRANCH   2  19
HETATM   19  C   UNL     1     -41.877  57.974 -53.708  1.00  0.00    -0.024 A 
HETATM   20  C   UNL     1     -42.852  58.537 -52.869  1.00  0.00     0.014 A 
HETATM   21  C   UNL     1     -42.486  59.226 -51.709  1.00  0.00     0.024 A 
HETATM   22  C   UNL     1     -41.140  59.369 -51.384  1.00  0.00     0.034 A 
HETATM   23 CL   UNL     1     -40.688  60.209 -49.953  1.00  0.00    -0.084 Cl
HETATM   24  C   UNL     1     -40.155  58.832 -52.210  1.00  0.00     0.024 A 
HETATM   25  C   UNL     1     -40.522  58.140 -53.368  1.00  0.00     0.014 A 
ENDBRANCH   2  19
BRANCH   1  26
HETATM   26  C   UNL     1     -42.536  55.188 -53.495  1.00  0.00     0.296 C 
HETATM   27  O   UNL     1     -43.484  55.087 -52.739  1.00  0.00    -0.259 OA
BRANCH  26  28
HETATM   28  O   UNL     1     -41.262  54.776 -53.305  1.00  0.00    -0.318 OA
BRANCH  28  29
HETATM   29  C   UNL     1     -41.097  53.441 -52.803  1.00  0.00     0.174 C 
HETATM   30  C   UNL     1     -40.333  52.625 -53.827  1.00  0.00     0.034 C 
ENDBRANCH  28  29
ENDBRANCH  26  28
ENDBRANCH   1  26
TORSDOF 5
ENDMDL
MODEL 5
REMARK VINA RESULT:      -6.5      3.539      5.537
REMARK  5 active torsions:
REMARK  status: ('A' for Active; 'I' for Inactive)
REMARK    1  A    between atoms: C_2  and  O_3 
REMARK    2  A    between atoms: O_3  and  C_4 
REMARK    3  A    between atoms: C_4  and  C_5 
REMARK    4  A    between atoms: C_6  and  C_7 
REMARK    5  A    between atoms: C_22  and  N_23 
ROOT
HETATM    1  C   UNL     1     -41.348  55.423 -51.402  1.00  0.00     0.075 A 
HETATM    2  C   UNL     1     -41.732  56.413 -52.341  1.00  0.00     0.008 A 
HETATM    3  C   UNL     1     -41.744  57.774 -51.920  1.00  0.00     0.045 A 
HETATM    4  C   UNL     1     -41.410  58.002 -50.573  1.00  0.00     0.143 A 
HETATM    5  N   UNL     1     -41.513  59.273 -50.025  1.00  0.00    -0.306 N 
HETATM    6  C   UNL     1     -41.976  60.364 -50.688  1.00  0.00     0.268 A 
HETATM    7  O   UNL     1     -42.115  61.445 -50.128  1.00  0.00    -0.266 OA
HETATM    8  C   UNL     1     -42.269  60.174 -52.124  1.00  0.00     0.120 A 
HETATM    9  C   UNL     1     -42.744  61.380 -52.917  1.00  0.00     0.027 C 
HETATM   10  N   UNL     1     -43.138  62.383 -53.573  1.00  0.00    -0.096 N 
HETATM   11  C   UNL     1     -42.115  58.980 -52.745  1.00  0.00     0.046 A 
HETATM   12  N   UNL     1     -41.025  57.060 -49.686  1.00  0.00    -0.234 NA
HETATM   13  C   UNL     1     -40.997  55.776 -50.102  1.00  0.00     0.050 A 
HETATM   14  C   UNL     1     -40.597  54.757 -49.074  1.00  0.00     0.071 C 
HETATM   15  H   UNL     1     -41.301  59.365 -49.041  1.00  0.00     0.170 HD
ENDROOT
BRANCH  11  16
HETATM   16  N   UNL     1     -42.294  58.813 -54.112  1.00  0.00    -0.301 NA
HETATM   17  H   UNL     1     -42.571  59.639 -54.642  1.00  0.00     0.124 HD
HETATM   18  H   UNL     1     -41.534  58.334 -54.587  1.00  0.00     0.124 HD
ENDBRANCH  11  16
BRANCH   2  19
HETATM   19  C   UNL     1     -42.142  55.970 -53.690  1.00  0.00    -0.024 A 
HETATM   20  C   UNL     1     -43.485  55.668 -53.968  1.00  0.00     0.014 A 
HETATM   21  C   UNL     1     -43.876  55.259 -55.246  1.00  0.00     0.024 A 
HETATM   22  C   UNL     1     -42.925  55.135 -56.255  1.00  0.00     0.034 A 
HETATM   23 CL   UNL     1     -43.406  54.639 -57.830  1.00  0.00    -0.084 Cl
HETATM   24  C   UNL     1     -41.585  55.414 -55.997  1.00  0.00     0.024 A 
HETATM   25  C   UNL     1     -41.194  55.827 -54.720  1.00  0.00     0.014 A 
ENDBRANCH   2  19
BRANCH   1  26
HETATM   26  C   UNL     1     -41.393  53.993 -51.747  1.00  0.00     0.296 C 
HETATM   27  O   UNL     1     -42.369  53.289 -51.567  1.00  0.00    -0.259 OA
BRANCH  26  28
HETATM   28  O   UNL     1     -40.178  53.641 -52.228  1.00  0.00    -0.318 OA
BRANCH  28  29
HETATM   29  C   UNL     1     -40.059  52.298 -52.721  1.00  0.00     0.174 C 
HETATM   30  C   UNL     1     -40.246  52.311 -54.225  1.00  0.00     0.034 C 
ENDBRANCH  28  29
ENDBRANCH  26  28
ENDBRANCH   1  26
TORSDOF 5
ENDMDL
MODEL 6
REMARK VINA RESULT:      -6.5      3.351      6.007
REMARK  5 active torsions:
REMARK  status: ('A' for Active; 'I' for Inactive)
REMARK    1  A    between atoms: C_2  and  O_3 
REMARK    2  A    between atoms: O_3  and  C_4 
REMARK    3  A    between atoms: C_4  and  C_5 
REMARK    4  A    between atoms: C_6  and  C_7 
REMARK    5  A    between atoms: C_22  and  N_23 
ROOT
HETATM    1  C   UNL     1     -43.012  55.862 -53.579  1.00  0.00     0.075 A 
HETATM    2  C   UNL     1     -43.530  57.149 -53.872  1.00  0.00     0.008 A 
HETATM    3  C   UNL     1     -44.123  57.895 -52.814  1.00  0.00     0.045 A 
HETATM    4  C   UNL     1     -44.177  57.251 -51.564  1.00  0.00     0.143 A 
HETATM    5  N   UNL     1     -44.845  57.834 -50.498  1.00  0.00    -0.306 N 
HETATM    6  C   UNL     1     -45.529  59.007 -50.562  1.00  0.00     0.268 A 
HETATM    7  O   UNL     1     -46.162  59.434 -49.605  1.00  0.00    -0.266 OA
HETATM    8  C   UNL     1     -45.433  59.742 -51.840  1.00  0.00     0.120 A 
HETATM    9  C   UNL     1     -46.143  61.082 -51.941  1.00  0.00     0.027 C 
HETATM   10  N   UNL     1     -46.733  62.194 -52.024  1.00  0.00    -0.096 N 
HETATM   11  C   UNL     1     -44.732  59.272 -52.899  1.00  0.00     0.046 A 
HETATM   12  N   UNL     1     -43.664  56.035 -51.283  1.00  0.00    -0.234 NA
HETATM   13  C   UNL     1     -43.087  55.345 -52.289  1.00  0.00     0.050 A 
HETATM   14  C   UNL     1     -42.560  53.983 -51.939  1.00  0.00     0.071 C 
HETATM   15  H   UNL     1     -44.886  57.302 -49.638  1.00  0.00     0.170 HD
ENDROOT
BRANCH  11  16
HETATM   16  N   UNL     1     -44.555  59.999 -54.069  1.00  0.00    -0.301 NA
HETATM   17  H   UNL     1     -45.400  60.268 -54.573  1.00  0.00     0.124 HD
HETATM   18  H   UNL     1     -43.931  60.798 -53.986  1.00  0.00     0.124 HD
ENDBRANCH  11  16
BRANCH   2  19
HETATM   19  C   UNL     1     -43.467  57.621 -55.271  1.00  0.00    -0.024 A 
HETATM   20  C   UNL     1     -44.552  57.431 -56.142  1.00  0.00     0.014 A 
HETATM   21  C   UNL     1     -44.497  57.887 -57.463  1.00  0.00     0.024 A 
HETATM   22  C   UNL     1     -43.351  58.525 -57.928  1.00  0.00     0.034 A 
HETATM   23 CL   UNL     1     -43.286  59.093 -59.551  1.00  0.00    -0.084 Cl
HETATM   24  C   UNL     1     -42.257  58.710 -57.086  1.00  0.00     0.024 A 
HETATM   25  C   UNL     1     -42.313  58.259 -55.764  1.00  0.00     0.014 A 
ENDBRANCH   2  19
BRANCH   1  26
HETATM   26  C   UNL     1     -42.461  55.007 -54.642  1.00  0.00     0.296 C 
HETATM   27  O   UNL     1     -43.143  54.277 -55.337  1.00  0.00    -0.259 OA
BRANCH  26  28
HETATM   28  O   UNL     1     -41.117  55.157 -54.645  1.00  0.00    -0.318 OA
BRANCH  28  29
HETATM   29  C   UNL     1     -40.369  54.143 -55.334  1.00  0.00     0.174 C 
HETATM   30  C   UNL     1     -40.145  52.977 -54.392  1.00  0.00     0.034 C 
ENDBRANCH  28  29
ENDBRANCH  26  28
ENDBRANCH   1  26
TORSDOF 5
ENDMDL
MODEL 7
REMARK VINA RESULT:      -6.4      2.762      4.677
REMARK  5 active torsions:
REMARK  status: ('A' for Active; 'I' for Inactive)
REMARK    1  A    between atoms: C_2  and  O_3 
REMARK    2  A    between atoms: O_3  and  C_4 
REMARK    3  A    between atoms: C_4  and  C_5 
REMARK    4  A    between atoms: C_6  and  C_7 
REMARK    5  A    between atoms: C_22  and  N_23 
ROOT
HETATM    1  C   UNL     1     -42.486  55.352 -53.258  1.00  0.00     0.075 A 
HETATM    2  C   UNL     1     -43.026  56.562 -53.765  1.00  0.00     0.008 A 
HETATM    3  C   UNL     1     -43.100  56.727 -55.178  1.00  0.00     0.045 A 
HETATM    4  C   UNL     1     -42.579  55.671 -55.947  1.00  0.00     0.143 A 
HETATM    5  N   UNL     1     -42.484  55.782 -57.327  1.00  0.00    -0.306 N 
HETATM    6  C   UNL     1     -42.820  56.891 -58.037  1.00  0.00     0.268 A 
HETATM    7  O   UNL     1     -42.644  56.955 -59.248  1.00  0.00    -0.266 OA
HETATM    8  C   UNL     1     -43.436  57.991 -57.268  1.00  0.00     0.120 A 
HETATM    9  C   UNL     1     -43.871  59.232 -58.029  1.00  0.00     0.027 C 
HETATM   10  N   UNL     1     -44.233  60.262 -58.663  1.00  0.00    -0.096 N 
HETATM   11  C   UNL     1     -43.633  57.921 -55.929  1.00  0.00     0.046 A 
HETATM   12  N   UNL     1     -42.085  54.513 -55.462  1.00  0.00    -0.234 NA
HETATM   13  C   UNL     1     -42.038  54.358 -54.122  1.00  0.00     0.050 A 
HETATM   14  C   UNL     1     -41.450  53.069 -53.626  1.00  0.00     0.071 C 
HETATM   15  H   UNL     1     -42.061  55.008 -57.820  1.00  0.00     0.170 HD
ENDROOT
BRANCH  11  16
HETATM   16  N   UNL     1     -44.297  58.907 -55.212  1.00  0.00    -0.301 NA
HETATM   17  H   UNL     1     -44.277  59.850 -55.602  1.00  0.00     0.124 HD
HETATM   18  H   UNL     1     -45.245  58.668 -54.933  1.00  0.00     0.124 HD
ENDBRANCH  11  16
BRANCH   2  19
HETATM   19  C   UNL     1     -43.437  57.600 -52.797  1.00  0.00    -0.024 A 
HETATM   20  C   UNL     1     -42.536  58.596 -52.388  1.00  0.00     0.014 A 
HETATM   21  C   UNL     1     -42.926  59.585 -51.480  1.00  0.00     0.024 A 
HETATM   22  C   UNL     1     -44.218  59.578 -50.963  1.00  0.00     0.034 A 
HETATM   23 CL   UNL     1     -44.702  60.798 -49.851  1.00  0.00    -0.084 Cl
HETATM   24  C   UNL     1     -45.124  58.590 -51.342  1.00  0.00     0.024 A 
HETATM   25  C   UNL     1     -44.735  57.604 -52.253  1.00  0.00     0.014 A 
ENDBRANCH   2  19
BRANCH   1  26
HETATM   26  C   UNL     1     -42.306  55.152 -51.811  1.00  0.00     0.296 C 
HETATM   27  O   UNL     1     -43.182  54.737 -51.077  1.00  0.00    -0.259 OA
BRANCH  26  28
HETATM   28  O   UNL     1     -41.055  55.552 -51.487  1.00  0.00    -0.318 OA
BRANCH  28  29
HETATM   29  C   UNL     1     -40.609  55.223 -50.162  1.00  0.00     0.174 C 
HETATM   30  C   UNL     1     -39.859  53.907 -50.212  1.00  0.00     0.034 C 
ENDBRANCH  28  29
ENDBRANCH  26  28
ENDBRANCH   1  26
TORSDOF 5
ENDMDL
MODEL 8
REMARK VINA RESULT:      -6.3     16.811     19.396
REMARK  5 active torsions:
REMARK  status: ('A' for Active; 'I' for Inactive)
REMARK    1  A    between atoms: C_2  and  O_3 
REMARK    2  A    between atoms: O_3  and  C_4 
REMARK    3  A    between atoms: C_4  and  C_5 
REMARK    4  A    between atoms: C_6  and  C_7 
REMARK    5  A    between atoms: C_22  and  N_23 
ROOT
HETATM    1  C   UNL     1     -35.233  40.464 -53.255  1.00  0.00     0.075 A 
HETATM    2  C   UNL     1     -34.718  40.043 -54.508  1.00  0.00     0.008 A 
HETATM    3  C   UNL     1     -33.609  39.150 -54.516  1.00  0.00     0.045 A 
HETATM    4  C   UNL     1     -33.094  38.799 -53.255  1.00  0.00     0.143 A 
HETATM    5  N   UNL     1     -31.939  38.038 -53.150  1.00  0.00    -0.306 N 
HETATM    6  C   UNL     1     -31.192  37.618 -54.205  1.00  0.00     0.268 A 
HETATM    7  O   UNL     1     -30.140  37.011 -54.045  1.00  0.00    -0.266 OA
HETATM    8  C   UNL     1     -31.743  37.910 -55.545  1.00  0.00     0.120 A 
HETATM    9  C   UNL     1     -30.965  37.417 -56.753  1.00  0.00     0.027 C 
HETATM   10  N   UNL     1     -30.318  37.007 -57.756  1.00  0.00    -0.096 N 
HETATM   11  C   UNL     1     -32.907  38.579 -55.722  1.00  0.00     0.046 A 
HETATM   12  N   UNL     1     -33.599  39.184 -52.064  1.00  0.00    -0.234 NA
HETATM   13  C   UNL     1     -34.663  40.014 -52.068  1.00  0.00     0.050 A 
HETATM   14  C   UNL     1     -35.170  40.444 -50.722  1.00  0.00     0.071 C 
HETATM   15  H   UNL     1     -31.595  37.855 -52.217  1.00  0.00     0.170 HD
ENDROOT
BRANCH  11  16
HETATM   16  N   UNL     1     -33.481  38.773 -56.972  1.00  0.00    -0.301 NA
HETATM   17  H   UNL     1     -34.394  38.346 -57.128  1.00  0.00     0.124 HD
HETATM   18  H   UNL     1     -33.489  39.738 -57.293  1.00  0.00     0.124 HD
ENDBRANCH  11  16
BRANCH   2  19
HETATM   19  C   UNL     1     -35.333  40.595 -55.733  1.00  0.00    -0.024 A 
HETATM   20  C   UNL     1     -34.875  41.802 -56.285  1.00  0.00     0.014 A 
HETATM   21  C   UNL     1     -35.449  42.320 -57.449  1.00  0.00     0.024 A 
HETATM   22  C   UNL     1     -36.497  41.642 -58.065  1.00  0.00     0.034 A 
HETATM   23 CL   UNL     1     -37.200  42.274 -59.502  1.00  0.00    -0.084 Cl
HETATM   24  C   UNL     1     -36.979  40.451 -57.526  1.00  0.00     0.024 A 
HETATM   25  C   UNL     1     -36.401  39.931 -56.364  1.00  0.00     0.014 A 
ENDBRANCH   2  19
BRANCH   1  26
HETATM   26  C   UNL     1     -36.323  41.449 -53.176  1.00  0.00     0.296 C 
HETATM   27  O   UNL     1     -36.141  42.640 -53.014  1.00  0.00    -0.259 OA
BRANCH  26  28
HETATM   28  O   UNL     1     -37.497  40.781 -53.265  1.00  0.00    -0.318 OA
BRANCH  28  29
HETATM   29  C   UNL     1     -38.450  41.038 -52.222  1.00  0.00     0.174 C 
HETATM   30  C   UNL     1     -39.809  41.275 -52.850  1.00  0.00     0.034 C 
ENDBRANCH  28  29
ENDBRANCH  26  28
ENDBRANCH   1  26
TORSDOF 5
ENDMDL
MODEL 9
REMARK VINA RESULT:      -6.2      2.857      4.761
REMARK  5 active torsions:
REMARK  status: ('A' for Active; 'I' for Inactive)
REMARK    1  A    between atoms: C_2  and  O_3 
REMARK    2  A    between atoms: O_3  and  C_4 
REMARK    3  A    between atoms: C_4  and  C_5 
REMARK    4  A    between atoms: C_6  and  C_7 
REMARK    5  A    between atoms: C_22  and  N_23 
ROOT
HETATM    1  C   UNL     1     -42.806  56.184 -54.142  1.00  0.00     0.075 A 
HETATM    2  C   UNL     1     -43.177  57.305 -54.929  1.00  0.00     0.008 A 
HETATM    3  C   UNL     1     -43.180  57.161 -56.346  1.00  0.00     0.045 A 
HETATM    4  C   UNL     1     -42.764  55.911 -56.838  1.00  0.00     0.143 A 
HETATM    5  N   UNL     1     -42.607  55.705 -58.201  1.00  0.00    -0.306 N 
HETATM    6  C   UNL     1     -42.782  56.660 -59.152  1.00  0.00     0.268 A 
HETATM    7  O   UNL     1     -42.556  56.436 -60.335  1.00  0.00    -0.266 OA
HETATM    8  C   UNL     1     -43.287  57.964 -58.675  1.00  0.00     0.120 A 
HETATM    9  C   UNL     1     -43.542  59.047 -59.710  1.00  0.00     0.027 C 
HETATM   10  N   UNL     1     -43.753  59.945 -60.570  1.00  0.00    -0.096 N 
HETATM   11  C   UNL     1     -43.538  58.212 -57.367  1.00  0.00     0.046 A 
HETATM   12  N   UNL     1     -42.431  54.841 -56.086  1.00  0.00    -0.234 NA
HETATM   13  C   UNL     1     -42.451  54.981 -54.744  1.00  0.00     0.050 A 
HETATM   14  C   UNL     1     -42.041  53.776 -53.948  1.00  0.00     0.071 C 
HETATM   15  H   UNL     1     -42.264  54.799 -58.490  1.00  0.00     0.170 HD
ENDROOT
BRANCH  11  16
HETATM   16  N   UNL     1     -44.104  59.399 -56.920  1.00  0.00    -0.301 NA
HETATM   17  H   UNL     1     -43.998  59.612 -55.929  1.00  0.00     0.124 HD
HETATM   18  H   UNL     1     -43.875  60.218 -57.478  1.00  0.00     0.124 HD
ENDBRANCH  11  16
BRANCH   2  19
HETATM   19  C   UNL     1     -43.494  58.569 -54.233  1.00  0.00    -0.024 A 
HETATM   20  C   UNL     1     -42.504  59.543 -54.030  1.00  0.00     0.014 A 
HETATM   21  C   UNL     1     -42.804  60.744 -53.381  1.00  0.00     0.024 A 
HETATM   22  C   UNL     1     -44.096  60.976 -52.917  1.00  0.00     0.034 A 
HETATM   23 CL   UNL     1     -44.469  62.456 -52.124  1.00  0.00    -0.084 Cl
HETATM   24  C   UNL     1     -45.090  60.016 -53.092  1.00  0.00     0.024 A 
HETATM   25  C   UNL     1     -44.790  58.817 -53.746  1.00  0.00     0.014 A 
ENDBRANCH   2  19
BRANCH   1  26
HETATM   26  C   UNL     1     -42.703  56.289 -52.678  1.00  0.00     0.296 C 
HETATM   27  O   UNL     1     -43.635  56.087 -51.923  1.00  0.00    -0.259 OA
BRANCH  26  28
HETATM   28  O   UNL     1     -41.444  56.683 -52.375  1.00  0.00    -0.318 OA
BRANCH  28  29
HETATM   29  C   UNL     1     -41.174  56.920 -50.985  1.00  0.00     0.174 C 
HETATM   30  C   UNL     1     -41.177  58.415 -50.735  1.00  0.00     0.034 C 
ENDBRANCH  28  29
ENDBRANCH  26  28
ENDBRANCH   1  26
TORSDOF 5
ENDMDL
MODEL 10
REMARK VINA RESULT:      -6.2      1.633      2.266
REMARK  5 active torsions:
REMARK  status: ('A' for Active; 'I' for Inactive)
REMARK    1  A    between atoms: C_2  and  O_3 
REMARK    2  A    between atoms: O_3  and  C_4 
REMARK    3  A    between atoms: C_4  and  C_5 
REMARK    4  A    between atoms: C_6  and  C_7 
REMARK    5  A    between atoms: C_22  and  N_23 
ROOT
HETATM    1  C   UNL     1     -44.159  58.474 -54.728  1.00  0.00     0.075 A 
HETATM    2  C   UNL     1     -43.892  57.468 -55.692  1.00  0.00     0.008 A 
HETATM    3  C   UNL     1     -44.453  57.616 -56.993  1.00  0.00     0.045 A 
HETATM    4  C   UNL     1     -45.269  58.746 -57.185  1.00  0.00     0.143 A 
HETATM    5  N   UNL     1     -45.967  58.919 -58.372  1.00  0.00    -0.306 N 
HETATM    6  C   UNL     1     -45.974  58.032 -59.400  1.00  0.00     0.268 A 
HETATM    7  O   UNL     1     -46.669  58.206 -60.394  1.00  0.00    -0.266 OA
HETATM    8  C   UNL     1     -45.072  56.870 -59.260  1.00  0.00     0.120 A 
HETATM    9  C   UNL     1     -45.012  55.876 -60.407  1.00  0.00     0.027 C 
HETATM   10  N   UNL     1     -44.963  55.052 -61.362  1.00  0.00    -0.096 N 
HETATM   11  C   UNL     1     -44.301  56.677 -58.163  1.00  0.00     0.046 A 
HETATM   12  N   UNL     1     -45.504  59.711 -56.272  1.00  0.00    -0.234 NA
HETATM   13  C   UNL     1     -44.952  59.572 -55.049  1.00  0.00     0.050 A 
HETATM   14  C   UNL     1     -45.267  60.651 -54.054  1.00  0.00     0.071 C 
HETATM   15  H   UNL     1     -46.570  59.728 -58.433  1.00  0.00     0.170 HD
ENDROOT
BRANCH  11  16
HETATM   16  N   UNL     1     -43.380  55.642 -58.062  1.00  0.00    -0.301 NA
HETATM   17  H   UNL     1     -42.932  55.515 -57.155  1.00  0.00     0.124 HD
HETATM   18  H   UNL     1     -43.703  54.747 -58.418  1.00  0.00     0.124 HD
ENDBRANCH  11  16
BRANCH   2  19
HETATM   19  C   UNL     1     -43.086  56.302 -55.275  1.00  0.00    -0.024 A 
HETATM   20  C   UNL     1     -43.704  55.147 -54.769  1.00  0.00     0.014 A 
HETATM   21  C   UNL     1     -42.944  54.039 -54.384  1.00  0.00     0.024 A 
HETATM   22  C   UNL     1     -41.557  54.081 -54.490  1.00  0.00     0.034 A 
HETATM   23 CL   UNL     1     -40.620  52.716 -54.024  1.00  0.00    -0.084 Cl
HETATM   24  C   UNL     1     -40.921  55.222 -54.974  1.00  0.00     0.024 A 
HETATM   25  C   UNL     1     -41.682  56.329 -55.363  1.00  0.00     0.014 A 
ENDBRANCH   2  19
BRANCH   1  26
HETATM   26  C   UNL     1     -43.679  58.341 -53.343  1.00  0.00     0.296 C 
HETATM   27  O   UNL     1     -42.591  58.736 -52.969  1.00  0.00    -0.259 OA
BRANCH  26  28
HETATM   28  O   UNL     1     -44.624  57.681 -52.635  1.00  0.00    -0.318 OA
BRANCH  28  29
HETATM   29  C   UNL     1     -44.602  57.881 -51.213  1.00  0.00     0.174 C 
HETATM   30  C   UNL     1     -45.674  58.886 -50.844  1.00  0.00     0.034 C 
ENDBRANCH  28  29
ENDBRANCH  26  28
ENDBRANCH   1  26
TORSDOF 5
ENDMDL
