MODEL 1
REMARK VINA RESULT:      -9.8      0.000      0.000
REMARK  5 active torsions:
REMARK  status: ('A' for Active; 'I' for Inactive)
REMARK    1  A    between atoms: O_2  and  C_3 
REMARK    2  A    between atoms: C_4  and  O_5 
REMARK    3  A    between atoms: C_8  and  C_9 
REMARK    4  A    between atoms: C_13  and  C_14 
REMARK       I    between atoms: C_14  and  N_15 
REMARK    5  A    between atoms: N_15  and  N_16 
ROOT
HETATM    1  C   UNL     1     -41.220  55.871 -54.277  1.00  0.00     0.069 A 
HETATM    2  N   UNL     1     -41.036  56.832 -53.344  1.00  0.00    -0.248 NA
HETATM    3  C   UNL     1     -41.569  58.050 -53.524  1.00  0.00     0.068 A 
HETATM    4  C   UNL     1     -42.309  58.414 -54.669  1.00  0.00     0.009 A 
HETATM    5  C   UNL     1     -42.385  57.431 -55.689  1.00  0.00     0.048 A 
HETATM    6  C   UNL     1     -41.854  56.152 -55.473  1.00  0.00     0.050 A 
HETATM    7  C   UNL     1     -41.391  58.975 -52.505  1.00  0.00     0.032 A 
HETATM    8  C   UNL     1     -41.955  60.251 -52.555  1.00  0.00     0.002 A 
HETATM    9  C   UNL     1     -42.739  60.606 -53.639  1.00  0.00     0.001 A 
HETATM   10  C   UNL     1     -42.925  59.696 -54.679  1.00  0.00     0.015 A 
ENDROOT
BRANCH   5  11
HETATM   11  C   UNL     1     -43.009  57.628 -57.032  1.00  0.00     0.271 C 
HETATM   12  N   UNL     1     -43.854  56.635 -57.484  1.00  0.00    -0.252 N 
HETATM   13  H   UNL     1     -44.288  55.999 -56.819  1.00  0.00     0.191 HD
HETATM   14  O   UNL     1     -42.821  58.684 -57.631  1.00  0.00    -0.266 OA
BRANCH  12  15
HETATM   15  N   UNL     1     -44.622  56.901 -58.613  1.00  0.00    -0.167 N 
HETATM   16  C   UNL     1     -44.094  56.848 -59.874  1.00  0.00     0.345 C 
HETATM   17  O   UNL     1     -42.971  56.489 -60.191  1.00  0.00    -0.245 OA
HETATM   18  N   UNL     1     -45.035  57.355 -60.747  1.00  0.00    -0.323 N 
HETATM   19  C   UNL     1     -46.287  57.659 -60.073  1.00  0.00     0.117 C 
HETATM   20  H   UNL     1     -44.879  57.347 -61.748  1.00  0.00     0.165 HD
HETATM   21  C   UNL     1     -47.308  56.536 -60.313  1.00  0.00     0.041 C 
HETATM   22  C   UNL     1     -46.845  59.032 -60.442  1.00  0.00     0.041 C 
HETATM   23  C   UNL     1     -45.803  57.609 -58.606  1.00  0.00     0.275 C 
HETATM   24  C   UNL     1     -47.867  56.573 -61.736  1.00  0.00     0.003 C 
HETATM   25  C   UNL     1     -48.446  57.944 -62.074  1.00  0.00     0.000 C 
HETATM   26  C   UNL     1     -47.429  59.060 -61.854  1.00  0.00     0.003 C 
HETATM   27  O   UNL     1     -46.384  58.108 -57.652  1.00  0.00    -0.268 OA
ENDBRANCH  12  15
ENDBRANCH   5  11
BRANCH   1  28
HETATM   28  C   UNL     1     -40.739  54.522 -53.912  1.00  0.00    -0.004 A 
HETATM   29  C   UNL     1     -40.693  54.112 -52.562  1.00  0.00     0.053 A 
HETATM   30  C   UNL     1     -40.293  52.818 -52.192  1.00  0.00     0.102 A 
HETATM   31  C   UNL     1     -39.964  51.901 -53.199  1.00  0.00     0.101 A 
HETATM   32  C   UNL     1     -39.965  52.295 -54.537  1.00  0.00     0.040 A 
HETATM   33  C   UNL     1     -40.357  53.588 -54.889  1.00  0.00     0.017 A 
BRANCH  30  34
HETATM   34  O   UNL     1     -40.200  52.380 -50.896  1.00  0.00    -0.353 OA
HETATM   35  C   UNL     1     -40.296  53.353 -49.866  1.00  0.00     0.210 C 
ENDBRANCH  30  34
BRANCH  31  36
HETATM   36  O   UNL     1     -39.573  50.604 -52.978  1.00  0.00    -0.353 OA
HETATM   37  C   UNL     1     -39.664  49.787 -54.144  1.00  0.00     0.210 C 
ENDBRANCH  31  36
ENDBRANCH   1  28
TORSDOF 5
ENDMDL
MODEL 2
REMARK VINA RESULT:      -9.5      3.573      7.122
REMARK  5 active torsions:
REMARK  status: ('A' for Active; 'I' for Inactive)
REMARK    1  A    between atoms: O_2  and  C_3 
REMARK    2  A    between atoms: C_4  and  O_5 
REMARK    3  A    between atoms: C_8  and  C_9 
REMARK    4  A    between atoms: C_13  and  C_14 
REMARK       I    between atoms: C_14  and  N_15 
REMARK    5  A    between atoms: N_15  and  N_16 
ROOT
HETATM    1  C   UNL     1     -42.315  54.844 -54.022  1.00  0.00     0.069 A 
HETATM    2  N   UNL     1     -42.412  54.694 -55.362  1.00  0.00    -0.248 NA
HETATM    3  C   UNL     1     -43.000  55.646 -56.102  1.00  0.00     0.068 A 
HETATM    4  C   UNL     1     -43.565  56.817 -55.553  1.00  0.00     0.009 A 
HETATM    5  C   UNL     1     -43.562  56.896 -54.137  1.00  0.00     0.048 A 
HETATM    6  C   UNL     1     -42.914  55.912 -53.380  1.00  0.00     0.050 A 
HETATM    7  C   UNL     1     -43.018  55.459 -57.476  1.00  0.00     0.032 A 
HETATM    8  C   UNL     1     -43.546  56.412 -58.347  1.00  0.00     0.002 A 
HETATM    9  C   UNL     1     -44.045  57.598 -57.836  1.00  0.00     0.001 A 
HETATM   10  C   UNL     1     -44.045  57.805 -56.457  1.00  0.00     0.015 A 
ENDROOT
BRANCH   5  11
HETATM   11  C   UNL     1     -44.206  57.978 -53.332  1.00  0.00     0.271 C 
HETATM   12  N   UNL     1     -43.746  58.161 -52.044  1.00  0.00    -0.252 N 
HETATM   13  H   UNL     1     -42.819  57.829 -51.786  1.00  0.00     0.191 HD
HETATM   14  O   UNL     1     -45.039  58.706 -53.866  1.00  0.00    -0.266 OA
BRANCH  12  15
HETATM   15  N   UNL     1     -44.160  59.301 -51.363  1.00  0.00    -0.167 N 
HETATM   16  C   UNL     1     -43.311  60.346 -51.120  1.00  0.00     0.345 C 
HETATM   17  O   UNL     1     -42.164  60.475 -51.519  1.00  0.00    -0.245 OA
HETATM   18  N   UNL     1     -43.950  61.218 -50.262  1.00  0.00    -0.323 N 
HETATM   19  C   UNL     1     -45.321  60.810 -50.001  1.00  0.00     0.117 C 
HETATM   20  H   UNL     1     -43.527  62.101 -50.001  1.00  0.00     0.165 HD
HETATM   21  C   UNL     1     -46.295  61.632 -50.859  1.00  0.00     0.041 C 
HETATM   22  C   UNL     1     -45.685  60.853 -48.518  1.00  0.00     0.041 C 
HETATM   23  C   UNL     1     -45.259  59.361 -50.536  1.00  0.00     0.275 C 
HETATM   24  C   UNL     1     -46.440  63.062 -50.339  1.00  0.00     0.003 C 
HETATM   25  C   UNL     1     -46.833  63.083 -48.864  1.00  0.00     0.000 C 
HETATM   26  C   UNL     1     -45.858  62.283 -48.005  1.00  0.00     0.003 C 
HETATM   27  O   UNL     1     -46.053  58.471 -50.261  1.00  0.00    -0.268 OA
ENDBRANCH  12  15
ENDBRANCH   5  11
BRANCH   1  28
HETATM   28  C   UNL     1     -41.506  53.826 -53.319  1.00  0.00    -0.004 A 
HETATM   29  C   UNL     1     -40.770  52.862 -54.042  1.00  0.00     0.053 A 
HETATM   30  C   UNL     1     -39.950  51.920 -53.401  1.00  0.00     0.102 A 
HETATM   31  C   UNL     1     -39.838  51.963 -52.004  1.00  0.00     0.101 A 
HETATM   32  C   UNL     1     -40.586  52.881 -51.267  1.00  0.00     0.040 A 
HETATM   33  C   UNL     1     -41.403  53.806 -51.918  1.00  0.00     0.017 A 
BRANCH  30  34
HETATM   34  O   UNL     1     -39.240  50.945 -54.052  1.00  0.00    -0.353 OA
HETATM   35  C   UNL     1     -39.970  49.859 -54.605  1.00  0.00     0.210 C 
ENDBRANCH  30  34
BRANCH  31  36
HETATM   36  O   UNL     1     -39.063  51.113 -51.256  1.00  0.00    -0.353 OA
HETATM   37  C   UNL     1     -39.795  50.006 -50.732  1.00  0.00     0.210 C 
ENDBRANCH  31  36
ENDBRANCH   1  28
TORSDOF 5
ENDMDL
MODEL 3
REMARK VINA RESULT:      -9.5      3.456      7.103
REMARK  5 active torsions:
REMARK  status: ('A' for Active; 'I' for Inactive)
REMARK    1  A    between atoms: O_2  and  C_3 
REMARK    2  A    between atoms: C_4  and  O_5 
REMARK    3  A    between atoms: C_8  and  C_9 
REMARK    4  A    between atoms: C_13  and  C_14 
REMARK       I    between atoms: C_14  and  N_15 
REMARK    5  A    between atoms: N_15  and  N_16 
ROOT
HETATM    1  C   UNL     1     -42.052  55.038 -54.142  1.00  0.00     0.069 A 
HETATM    2  N   UNL     1     -42.312  54.845 -55.455  1.00  0.00    -0.248 NA
HETATM    3  C   UNL     1     -42.904  55.813 -56.170  1.00  0.00     0.068 A 
HETATM    4  C   UNL     1     -43.310  57.048 -55.620  1.00  0.00     0.009 A 
HETATM    5  C   UNL     1     -43.140  57.181 -54.218  1.00  0.00     0.048 A 
HETATM    6  C   UNL     1     -42.489  56.176 -53.490  1.00  0.00     0.050 A 
HETATM    7  C   UNL     1     -43.092  55.575 -57.524  1.00  0.00     0.032 A 
HETATM    8  C   UNL     1     -43.639  56.534 -58.377  1.00  0.00     0.002 A 
HETATM    9  C   UNL     1     -43.984  57.776 -57.871  1.00  0.00     0.001 A 
HETATM   10  C   UNL     1     -43.811  58.036 -56.512  1.00  0.00     0.015 A 
ENDROOT
BRANCH   5  11
HETATM   11  C   UNL     1     -43.603  58.343 -53.400  1.00  0.00     0.271 C 
HETATM   12  N   UNL     1     -43.837  58.113 -52.059  1.00  0.00    -0.252 N 
HETATM   13  H   UNL     1     -43.400  57.319 -51.598  1.00  0.00     0.191 HD
HETATM   14  O   UNL     1     -43.668  59.454 -53.921  1.00  0.00    -0.266 OA
BRANCH  12  15
HETATM   15  N   UNL     1     -44.038  59.217 -51.238  1.00  0.00    -0.167 N 
HETATM   16  C   UNL     1     -42.993  59.925 -50.711  1.00  0.00     0.345 C 
HETATM   17  O   UNL     1     -41.804  59.770 -50.940  1.00  0.00    -0.245 OA
HETATM   18  N   UNL     1     -43.508  60.817 -49.791  1.00  0.00    -0.323 N 
HETATM   19  C   UNL     1     -44.962  60.793 -49.773  1.00  0.00     0.117 C 
HETATM   20  H   UNL     1     -42.913  61.493 -49.327  1.00  0.00     0.165 HD
HETATM   21  C   UNL     1     -45.525  61.974 -50.579  1.00  0.00     0.041 C 
HETATM   22  C   UNL     1     -45.541  60.733 -48.361  1.00  0.00     0.041 C 
HETATM   23  C   UNL     1     -45.202  59.478 -50.551  1.00  0.00     0.275 C 
HETATM   24  C   UNL     1     -45.367  63.297 -49.830  1.00  0.00     0.003 C 
HETATM   25  C   UNL     1     -45.977  63.225 -48.433  1.00  0.00     0.000 C 
HETATM   26  C   UNL     1     -45.408  62.065 -47.623  1.00  0.00     0.003 C 
HETATM   27  O   UNL     1     -46.239  58.828 -50.537  1.00  0.00    -0.268 OA
ENDBRANCH  12  15
ENDBRANCH   5  11
BRANCH   1  28
HETATM   28  C   UNL     1     -41.251  53.985 -53.485  1.00  0.00    -0.004 A 
HETATM   29  C   UNL     1     -41.041  54.000 -52.089  1.00  0.00     0.053 A 
HETATM   30  C   UNL     1     -40.330  52.982 -51.433  1.00  0.00     0.102 A 
HETATM   31  C   UNL     1     -39.846  51.905 -52.188  1.00  0.00     0.101 A 
HETATM   32  C   UNL     1     -40.008  51.887 -53.573  1.00  0.00     0.040 A 
HETATM   33  C   UNL     1     -40.709  52.911 -54.213  1.00  0.00     0.017 A 
BRANCH  30  34
HETATM   34  O   UNL     1     -40.072  52.965 -50.088  1.00  0.00    -0.353 OA
HETATM   35  C   UNL     1     -39.742  54.199 -49.467  1.00  0.00     0.210 C 
ENDBRANCH  30  34
BRANCH  31  36
HETATM   36  O   UNL     1     -39.151  50.839 -51.673  1.00  0.00    -0.353 OA
HETATM   37  C   UNL     1     -39.605  49.582 -52.171  1.00  0.00     0.210 C 
ENDBRANCH  31  36
ENDBRANCH   1  28
TORSDOF 5
ENDMDL
MODEL 4
REMARK VINA RESULT:      -9.1      2.898      3.684
REMARK  5 active torsions:
REMARK  status: ('A' for Active; 'I' for Inactive)
REMARK    1  A    between atoms: O_2  and  C_3 
REMARK    2  A    between atoms: C_4  and  O_5 
REMARK    3  A    between atoms: C_8  and  C_9 
REMARK    4  A    between atoms: C_13  and  C_14 
REMARK       I    between atoms: C_14  and  N_15 
REMARK    5  A    between atoms: N_15  and  N_16 
ROOT
HETATM    1  C   UNL     1     -41.888  55.875 -53.342  1.00  0.00     0.069 A 
HETATM    2  N   UNL     1     -42.709  56.167 -52.307  1.00  0.00    -0.248 NA
HETATM    3  C   UNL     1     -43.487  57.259 -52.357  1.00  0.00     0.068 A 
HETATM    4  C   UNL     1     -43.486  58.165 -53.439  1.00  0.00     0.009 A 
HETATM    5  C   UNL     1     -42.530  57.907 -54.456  1.00  0.00     0.048 A 
HETATM    6  C   UNL     1     -41.750  56.745 -54.407  1.00  0.00     0.050 A 
HETATM    7  C   UNL     1     -44.346  57.473 -51.289  1.00  0.00     0.032 A 
HETATM    8  C   UNL     1     -45.245  58.539 -51.263  1.00  0.00     0.002 A 
HETATM    9  C   UNL     1     -45.307  59.403 -52.343  1.00  0.00     0.001 A 
HETATM   10  C   UNL     1     -44.447  59.213 -53.425  1.00  0.00     0.015 A 
ENDROOT
BRANCH   5  11
HETATM   11  C   UNL     1     -42.263  58.789 -55.632  1.00  0.00     0.271 C 
HETATM   12  N   UNL     1     -42.946  58.504 -56.797  1.00  0.00    -0.252 N 
HETATM   13  H   UNL     1     -43.809  57.967 -56.760  1.00  0.00     0.191 HD
HETATM   14  O   UNL     1     -41.532  59.766 -55.495  1.00  0.00    -0.266 OA
BRANCH  12  15
HETATM   15  N   UNL     1     -42.894  59.441 -57.824  1.00  0.00    -0.167 N 
HETATM   16  C   UNL     1     -43.821  60.441 -57.937  1.00  0.00     0.345 C 
HETATM   17  O   UNL     1     -44.719  60.708 -57.155  1.00  0.00    -0.245 OA
HETATM   18  N   UNL     1     -43.621  61.067 -59.152  1.00  0.00    -0.323 N 
HETATM   19  C   UNL     1     -42.448  60.548 -59.838  1.00  0.00     0.117 C 
HETATM   20  H   UNL     1     -44.156  61.886 -59.413  1.00  0.00     0.165 HD
HETATM   21  C   UNL     1     -41.255  61.499 -59.647  1.00  0.00     0.041 C 
HETATM   22  C   UNL     1     -42.707  60.239 -61.311  1.00  0.00     0.041 C 
HETATM   23  C   UNL     1     -42.219  59.263 -59.011  1.00  0.00     0.275 C 
HETATM   24  C   UNL     1     -41.401  62.766 -60.490  1.00  0.00     0.003 C 
HETATM   25  C   UNL     1     -41.629  62.436 -61.962  1.00  0.00     0.000 C 
HETATM   26  C   UNL     1     -42.823  61.507 -62.158  1.00  0.00     0.003 C 
HETATM   27  O   UNL     1     -41.557  58.299 -59.372  1.00  0.00    -0.268 OA
ENDBRANCH  12  15
ENDBRANCH   5  11
BRANCH   1  28
HETATM   28  C   UNL     1     -41.200  54.570 -53.266  1.00  0.00    -0.004 A 
HETATM   29  C   UNL     1     -40.923  53.969 -52.019  1.00  0.00     0.053 A 
HETATM   30  C   UNL     1     -40.321  52.704 -51.920  1.00  0.00     0.102 A 
HETATM   31  C   UNL     1     -40.019  52.009 -53.099  1.00  0.00     0.101 A 
HETATM   32  C   UNL     1     -40.248  52.598 -54.342  1.00  0.00     0.040 A 
HETATM   33  C   UNL     1     -40.840  53.860 -54.424  1.00  0.00     0.017 A 
BRANCH  30  34
HETATM   34  O   UNL     1     -40.002  52.091 -50.737  1.00  0.00    -0.353 OA
HETATM   35  C   UNL     1     -40.413  52.729 -49.536  1.00  0.00     0.210 C 
ENDBRANCH  30  34
BRANCH  31  36
HETATM   36  O   UNL     1     -39.445  50.763 -53.146  1.00  0.00    -0.353 OA
HETATM   37  C   UNL     1     -39.727  50.063 -54.357  1.00  0.00     0.210 C 
ENDBRANCH  31  36
ENDBRANCH   1  28
TORSDOF 5
ENDMDL
MODEL 5
REMARK VINA RESULT:      -9.1      2.970      8.638
REMARK  5 active torsions:
REMARK  status: ('A' for Active; 'I' for Inactive)
REMARK    1  A    between atoms: O_2  and  C_3 
REMARK    2  A    between atoms: C_4  and  O_5 
REMARK    3  A    between atoms: C_8  and  C_9 
REMARK    4  A    between atoms: C_13  and  C_14 
REMARK       I    between atoms: C_14  and  N_15 
REMARK    5  A    between atoms: N_15  and  N_16 
ROOT
HETATM    1  C   UNL     1     -42.242  55.524 -55.726  1.00  0.00     0.069 A 
HETATM    2  N   UNL     1     -41.534  54.380 -55.598  1.00  0.00    -0.248 NA
HETATM    3  C   UNL     1     -41.091  53.997 -54.391  1.00  0.00     0.068 A 
HETATM    4  C   UNL     1     -41.301  54.747 -53.214  1.00  0.00     0.009 A 
HETATM    5  C   UNL     1     -41.938  56.002 -53.390  1.00  0.00     0.048 A 
HETATM    6  C   UNL     1     -42.425  56.372 -54.650  1.00  0.00     0.050 A 
HETATM    7  C   UNL     1     -40.418  52.786 -54.318  1.00  0.00     0.032 A 
HETATM    8  C   UNL     1     -39.970  52.259 -53.106  1.00  0.00     0.002 A 
HETATM    9  C   UNL     1     -40.222  52.946 -51.931  1.00  0.00     0.001 A 
HETATM   10  C   UNL     1     -40.890  54.170 -51.980  1.00  0.00     0.015 A 
ENDROOT
BRANCH   5  11
HETATM   11  C   UNL     1     -42.158  57.016 -52.314  1.00  0.00     0.271 C 
HETATM   12  N   UNL     1     -41.739  58.305 -52.571  1.00  0.00    -0.252 N 
HETATM   13  H   UNL     1     -41.613  58.614 -53.532  1.00  0.00     0.191 HD
HETATM   14  O   UNL     1     -42.772  56.690 -51.301  1.00  0.00    -0.266 OA
BRANCH  12  15
HETATM   15  N   UNL     1     -42.140  59.305 -51.691  1.00  0.00    -0.167 N 
HETATM   16  C   UNL     1     -41.476  59.544 -50.519  1.00  0.00     0.345 C 
HETATM   17  O   UNL     1     -40.443  59.019 -50.133  1.00  0.00    -0.245 OA
HETATM   18  N   UNL     1     -42.226  60.441 -49.784  1.00  0.00    -0.323 N 
HETATM   19  C   UNL     1     -43.382  60.914 -50.530  1.00  0.00     0.117 C 
HETATM   20  H   UNL     1     -41.886  60.812 -48.905  1.00  0.00     0.165 HD
HETATM   21  C   UNL     1     -43.102  62.304 -51.122  1.00  0.00     0.041 C 
HETATM   22  C   UNL     1     -44.671  60.887 -49.711  1.00  0.00     0.041 C 
HETATM   23  C   UNL     1     -43.397  59.864 -51.664  1.00  0.00     0.275 C 
HETATM   24  C   UNL     1     -43.132  63.393 -50.050  1.00  0.00     0.003 C 
HETATM   25  C   UNL     1     -44.440  63.368 -49.264  1.00  0.00     0.000 C 
HETATM   26  C   UNL     1     -44.713  61.994 -48.659  1.00  0.00     0.003 C 
HETATM   27  O   UNL     1     -44.356  59.612 -52.381  1.00  0.00    -0.268 OA
ENDBRANCH  12  15
ENDBRANCH   5  11
BRANCH   1  28
HETATM   28  C   UNL     1     -42.826  55.771 -57.061  1.00  0.00    -0.004 A 
HETATM   29  C   UNL     1     -42.793  57.059 -57.639  1.00  0.00     0.053 A 
HETATM   30  C   UNL     1     -43.290  57.308 -58.928  1.00  0.00     0.102 A 
HETATM   31  C   UNL     1     -43.804  56.236 -59.670  1.00  0.00     0.101 A 
HETATM   32  C   UNL     1     -43.883  54.963 -59.106  1.00  0.00     0.040 A 
HETATM   33  C   UNL     1     -43.391  54.732 -57.821  1.00  0.00     0.017 A 
BRANCH  30  34
HETATM   34  O   UNL     1     -43.311  58.543 -59.521  1.00  0.00    -0.353 OA
HETATM   35  C   UNL     1     -42.147  59.348 -59.403  1.00  0.00     0.210 C 
ENDBRANCH  30  34
BRANCH  31  36
HETATM   36  O   UNL     1     -44.307  56.337 -60.944  1.00  0.00    -0.353 OA
HETATM   37  C   UNL     1     -45.505  55.586 -61.132  1.00  0.00     0.210 C 
ENDBRANCH  31  36
ENDBRANCH   1  28
TORSDOF 5
ENDMDL
MODEL 6
REMARK VINA RESULT:      -9.0      1.746      2.649
REMARK  5 active torsions:
REMARK  status: ('A' for Active; 'I' for Inactive)
REMARK    1  A    between atoms: O_2  and  C_3 
REMARK    2  A    between atoms: C_4  and  O_5 
REMARK    3  A    between atoms: C_8  and  C_9 
REMARK    4  A    between atoms: C_13  and  C_14 
REMARK       I    between atoms: C_14  and  N_15 
REMARK    5  A    between atoms: N_15  and  N_16 
ROOT
HETATM    1  C   UNL     1     -41.358  55.444 -52.198  1.00  0.00     0.069 A 
HETATM    2  N   UNL     1     -40.947  56.379 -51.311  1.00  0.00    -0.248 NA
HETATM    3  C   UNL     1     -41.466  57.615 -51.354  1.00  0.00     0.068 A 
HETATM    4  C   UNL     1     -42.423  58.024 -52.307  1.00  0.00     0.009 A 
HETATM    5  C   UNL     1     -42.748  57.066 -53.302  1.00  0.00     0.048 A 
HETATM    6  C   UNL     1     -42.225  55.768 -53.224  1.00  0.00     0.050 A 
HETATM    7  C   UNL     1     -41.044  58.512 -50.383  1.00  0.00     0.032 A 
HETATM    8  C   UNL     1     -41.564  59.804 -50.291  1.00  0.00     0.002 A 
HETATM    9  C   UNL     1     -42.551  60.204 -51.175  1.00  0.00     0.001 A 
HETATM   10  C   UNL     1     -42.985  59.323 -52.165  1.00  0.00     0.015 A 
ENDROOT
BRANCH   5  11
HETATM   11  C   UNL     1     -43.639  57.310 -54.476  1.00  0.00     0.271 C 
HETATM   12  N   UNL     1     -43.048  57.804 -55.621  1.00  0.00    -0.252 N 
HETATM   13  H   UNL     1     -42.048  57.682 -55.767  1.00  0.00     0.191 HD
HETATM   14  O   UNL     1     -44.821  56.983 -54.409  1.00  0.00    -0.266 OA
BRANCH  12  15
HETATM   15  N   UNL     1     -43.805  57.818 -56.787  1.00  0.00    -0.167 N 
HETATM   16  C   UNL     1     -43.609  56.902 -57.785  1.00  0.00     0.345 C 
HETATM   17  O   UNL     1     -42.859  55.939 -57.769  1.00  0.00    -0.245 OA
HETATM   18  N   UNL     1     -44.357  57.300 -58.875  1.00  0.00    -0.323 N 
HETATM   19  C   UNL     1     -45.177  58.462 -58.571  1.00  0.00     0.117 C 
HETATM   20  H   UNL     1     -44.415  56.726 -59.709  1.00  0.00     0.165 HD
HETATM   21  C   UNL     1     -46.624  58.034 -58.285  1.00  0.00     0.041 C 
HETATM   22  C   UNL     1     -45.099  59.544 -59.646  1.00  0.00     0.041 C 
HETATM   23  C   UNL     1     -44.502  58.909 -57.254  1.00  0.00     0.275 C 
HETATM   24  C   UNL     1     -47.361  57.635 -59.564  1.00  0.00     0.003 C 
HETATM   25  C   UNL     1     -47.297  58.741 -60.613  1.00  0.00     0.000 C 
HETATM   26  C   UNL     1     -45.860  59.157 -60.914  1.00  0.00     0.003 C 
HETATM   27  O   UNL     1     -44.598  60.021 -56.753  1.00  0.00    -0.268 OA
ENDBRANCH  12  15
ENDBRANCH   5  11
BRANCH   1  28
HETATM   28  C   UNL     1     -40.854  54.074 -51.964  1.00  0.00    -0.004 A 
HETATM   29  C   UNL     1     -40.394  53.280 -53.037  1.00  0.00     0.053 A 
HETATM   30  C   UNL     1     -39.859  51.997 -52.836  1.00  0.00     0.102 A 
HETATM   31  C   UNL     1     -39.752  51.510 -51.526  1.00  0.00     0.101 A 
HETATM   32  C   UNL     1     -40.235  52.261 -50.454  1.00  0.00     0.040 A 
HETATM   33  C   UNL     1     -40.772  53.531 -50.671  1.00  0.00     0.017 A 
BRANCH  30  34
HETATM   34  O   UNL     1     -39.428  51.174 -53.843  1.00  0.00    -0.353 OA
HETATM   35  C   UNL     1     -40.342  50.206 -54.336  1.00  0.00     0.210 C 
ENDBRANCH  30  34
BRANCH  31  36
HETATM   36  O   UNL     1     -39.236  50.284 -51.188  1.00  0.00    -0.353 OA
HETATM   37  C   UNL     1     -40.206  49.411 -50.610  1.00  0.00     0.210 C 
ENDBRANCH  31  36
ENDBRANCH   1  28
TORSDOF 5
ENDMDL
MODEL 7
REMARK VINA RESULT:      -8.5      3.883      8.601
REMARK  5 active torsions:
REMARK  status: ('A' for Active; 'I' for Inactive)
REMARK    1  A    between atoms: O_2  and  C_3 
REMARK    2  A    between atoms: C_4  and  O_5 
REMARK    3  A    between atoms: C_8  and  C_9 
REMARK    4  A    between atoms: C_13  and  C_14 
REMARK       I    between atoms: C_14  and  N_15 
REMARK    5  A    between atoms: N_15  and  N_16 
ROOT
HETATM    1  C   UNL     1     -42.260  56.613 -54.884  1.00  0.00     0.069 A 
HETATM    2  N   UNL     1     -41.610  55.534 -54.394  1.00  0.00    -0.248 NA
HETATM    3  C   UNL     1     -41.417  55.412 -53.072  1.00  0.00     0.068 A 
HETATM    4  C   UNL     1     -41.838  56.378 -52.133  1.00  0.00     0.009 A 
HETATM    5  C   UNL     1     -42.407  57.558 -52.678  1.00  0.00     0.048 A 
HETATM    6  C   UNL     1     -42.634  57.656 -54.057  1.00  0.00     0.050 A 
HETATM    7  C   UNL     1     -40.792  54.256 -52.627  1.00  0.00     0.032 A 
HETATM    8  C   UNL     1     -40.597  53.994 -51.271  1.00  0.00     0.002 A 
HETATM    9  C   UNL     1     -41.060  54.897 -50.329  1.00  0.00     0.001 A 
HETATM   10  C   UNL     1     -41.684  56.070 -50.753  1.00  0.00     0.015 A 
ENDROOT
BRANCH   5  11
HETATM   11  C   UNL     1     -42.814  58.762 -51.892  1.00  0.00     0.271 C 
HETATM   12  N   UNL     1     -44.062  59.291 -52.156  1.00  0.00    -0.252 N 
HETATM   13  H   UNL     1     -44.776  58.711 -52.590  1.00  0.00     0.191 HD
HETATM   14  O   UNL     1     -42.078  59.171 -50.999  1.00  0.00    -0.266 OA
BRANCH  12  15
HETATM   15  N   UNL     1     -44.553  60.256 -51.284  1.00  0.00    -0.167 N 
HETATM   16  C   UNL     1     -45.501  59.962 -50.341  1.00  0.00     0.345 C 
HETATM   17  O   UNL     1     -45.960  58.864 -50.071  1.00  0.00    -0.245 OA
HETATM   18  N   UNL     1     -45.924  61.152 -49.783  1.00  0.00    -0.323 N 
HETATM   19  C   UNL     1     -45.159  62.284 -50.283  1.00  0.00     0.117 C 
HETATM   20  H   UNL     1     -46.579  61.165 -49.010  1.00  0.00     0.165 HD
HETATM   21  C   UNL     1     -44.085  62.694 -49.264  1.00  0.00     0.041 C 
HETATM   22  C   UNL     1     -46.039  63.463 -50.697  1.00  0.00     0.041 C 
HETATM   23  C   UNL     1     -44.484  61.614 -51.502  1.00  0.00     0.275 C 
HETATM   24  C   UNL     1     -44.692  63.416 -48.061  1.00  0.00     0.003 C 
HETATM   25  C   UNL     1     -45.542  64.607 -48.493  1.00  0.00     0.000 C 
HETATM   26  C   UNL     1     -46.622  64.201 -49.492  1.00  0.00     0.003 C 
HETATM   27  O   UNL     1     -43.991  62.207 -52.451  1.00  0.00    -0.268 OA
ENDBRANCH  12  15
ENDBRANCH   5  11
BRANCH   1  28
HETATM   28  C   UNL     1     -42.569  56.573 -56.329  1.00  0.00    -0.004 A 
HETATM   29  C   UNL     1     -42.353  57.704 -57.147  1.00  0.00     0.053 A 
HETATM   30  C   UNL     1     -42.586  57.675 -58.531  1.00  0.00     0.102 A 
HETATM   31  C   UNL     1     -43.014  56.476 -59.117  1.00  0.00     0.101 A 
HETATM   32  C   UNL     1     -43.271  55.358 -58.324  1.00  0.00     0.040 A 
HETATM   33  C   UNL     1     -43.043  55.404 -56.948  1.00  0.00     0.017 A 
BRANCH  30  34
HETATM   34  O   UNL     1     -42.423  58.752 -59.363  1.00  0.00    -0.353 OA
HETATM   35  C   UNL     1     -43.469  59.711 -59.409  1.00  0.00     0.210 C 
ENDBRANCH  30  34
BRANCH  31  36
HETATM   36  O   UNL     1     -43.264  56.306 -60.456  1.00  0.00    -0.353 OA
HETATM   37  C   UNL     1     -44.594  55.864 -60.724  1.00  0.00     0.210 C 
ENDBRANCH  31  36
ENDBRANCH   1  28
TORSDOF 5
ENDMDL
MODEL 8
REMARK VINA RESULT:      -8.4      5.388      9.331
REMARK  5 active torsions:
REMARK  status: ('A' for Active; 'I' for Inactive)
REMARK    1  A    between atoms: O_2  and  C_3 
REMARK    2  A    between atoms: C_4  and  O_5 
REMARK    3  A    between atoms: C_8  and  C_9 
REMARK    4  A    between atoms: C_13  and  C_14 
REMARK       I    between atoms: C_14  and  N_15 
REMARK    5  A    between atoms: N_15  and  N_16 
ROOT
HETATM    1  C   UNL     1     -45.085  61.765 -50.073  1.00  0.00     0.069 A 
HETATM    2  N   UNL     1     -45.778  62.624 -50.855  1.00  0.00    -0.248 NA
HETATM    3  C   UNL     1     -45.876  62.398 -52.174  1.00  0.00     0.068 A 
HETATM    4  C   UNL     1     -45.262  61.305 -52.822  1.00  0.00     0.009 A 
HETATM    5  C   UNL     1     -44.440  60.487 -52.005  1.00  0.00     0.048 A 
HETATM    6  C   UNL     1     -44.376  60.714 -50.624  1.00  0.00     0.050 A 
HETATM    7  C   UNL     1     -46.646  63.285 -52.912  1.00  0.00     0.032 A 
HETATM    8  C   UNL     1     -46.870  63.112 -54.278  1.00  0.00     0.002 A 
HETATM    9  C   UNL     1     -46.332  62.011 -54.922  1.00  0.00     0.001 A 
HETATM   10  C   UNL     1     -45.547  61.110 -54.202  1.00  0.00     0.015 A 
ENDROOT
BRANCH   5  11
HETATM   11  C   UNL     1     -43.601  59.350 -52.489  1.00  0.00     0.271 C 
HETATM   12  N   UNL     1     -44.086  58.076 -52.276  1.00  0.00    -0.252 N 
HETATM   13  H   UNL     1     -45.081  57.933 -52.120  1.00  0.00     0.191 HD
HETATM   14  O   UNL     1     -42.577  59.590 -53.125  1.00  0.00    -0.266 OA
BRANCH  12  15
HETATM   15  N   UNL     1     -43.445  57.022 -52.918  1.00  0.00    -0.167 N 
HETATM   16  C   UNL     1     -43.951  56.456 -54.057  1.00  0.00     0.345 C 
HETATM   17  O   UNL     1     -44.923  56.823 -54.696  1.00  0.00    -0.245 OA
HETATM   18  N   UNL     1     -43.211  55.322 -54.329  1.00  0.00    -0.323 N 
HETATM   19  C   UNL     1     -42.094  55.174 -53.409  1.00  0.00     0.117 C 
HETATM   20  H   UNL     1     -43.371  54.782 -55.170  1.00  0.00     0.165 HD
HETATM   21  C   UNL     1     -40.792  55.652 -54.070  1.00  0.00     0.041 C 
HETATM   22  C   UNL     1     -41.968  53.760 -52.847  1.00  0.00     0.041 C 
HETATM   23  C   UNL     1     -42.523  56.189 -52.325  1.00  0.00     0.275 C 
HETATM   24  C   UNL     1     -40.288  54.655 -55.114  1.00  0.00     0.003 C 
HETATM   25  C   UNL     1     -40.140  53.256 -54.524  1.00  0.00     0.000 C 
HETATM   26  C   UNL     1     -41.436  52.769 -53.882  1.00  0.00     0.003 C 
HETATM   27  O   UNL     1     -42.101  56.218 -51.177  1.00  0.00    -0.268 OA
ENDBRANCH  12  15
ENDBRANCH   5  11
BRANCH   1  28
HETATM   28  C   UNL     1     -45.176  62.008 -48.618  1.00  0.00    -0.004 A 
HETATM   29  C   UNL     1     -45.472  60.954 -47.726  1.00  0.00     0.053 A 
HETATM   30  C   UNL     1     -45.510  61.145 -46.336  1.00  0.00     0.102 A 
HETATM   31  C   UNL     1     -45.212  62.415 -45.823  1.00  0.00     0.101 A 
HETATM   32  C   UNL     1     -44.955  63.480 -46.686  1.00  0.00     0.040 A 
HETATM   33  C   UNL     1     -44.929  63.276 -48.066  1.00  0.00     0.017 A 
BRANCH  30  34
HETATM   34  O   UNL     1     -45.823  60.165 -45.430  1.00  0.00    -0.353 OA
HETATM   35  C   UNL     1     -46.673  59.115 -45.866  1.00  0.00     0.210 C 
ENDBRANCH  30  34
BRANCH  31  36
HETATM   36  O   UNL     1     -45.199  62.735 -44.488  1.00  0.00    -0.353 OA
HETATM   37  C   UNL     1     -44.575  63.990 -44.221  1.00  0.00     0.210 C 
ENDBRANCH  31  36
ENDBRANCH   1  28
TORSDOF 5
ENDMDL
MODEL 9
REMARK VINA RESULT:      -8.3      4.123      9.874
REMARK  5 active torsions:
REMARK  status: ('A' for Active; 'I' for Inactive)
REMARK    1  A    between atoms: O_2  and  C_3 
REMARK    2  A    between atoms: C_4  and  O_5 
REMARK    3  A    between atoms: C_8  and  C_9 
REMARK    4  A    between atoms: C_13  and  C_14 
REMARK       I    between atoms: C_14  and  N_15 
REMARK    5  A    between atoms: N_15  and  N_16 
ROOT
HETATM    1  C   UNL     1     -42.387  60.117 -59.348  1.00  0.00     0.069 A 
HETATM    2  N   UNL     1     -43.547  60.027 -60.037  1.00  0.00    -0.248 NA
HETATM    3  C   UNL     1     -44.518  59.206 -59.608  1.00  0.00     0.068 A 
HETATM    4  C   UNL     1     -44.395  58.387 -58.465  1.00  0.00     0.009 A 
HETATM    5  C   UNL     1     -43.127  58.406 -57.830  1.00  0.00     0.048 A 
HETATM    6  C   UNL     1     -42.135  59.292 -58.268  1.00  0.00     0.050 A 
HETATM    7  C   UNL     1     -45.705  59.200 -60.327  1.00  0.00     0.032 A 
HETATM    8  C   UNL     1     -46.804  58.435 -59.936  1.00  0.00     0.002 A 
HETATM    9  C   UNL     1     -46.728  57.674 -58.782  1.00  0.00     0.001 A 
HETATM   10  C   UNL     1     -45.543  57.658 -58.047  1.00  0.00     0.015 A 
ENDROOT
BRANCH   5  11
HETATM   11  C   UNL     1     -42.724  57.537 -56.682  1.00  0.00     0.271 C 
HETATM   12  N   UNL     1     -42.716  58.117 -55.430  1.00  0.00    -0.252 N 
HETATM   13  H   UNL     1     -43.268  58.954 -55.255  1.00  0.00     0.191 HD
HETATM   14  O   UNL     1     -42.509  56.344 -56.880  1.00  0.00    -0.266 OA
BRANCH  12  15
HETATM   15  N   UNL     1     -42.575  57.279 -54.329  1.00  0.00    -0.167 N 
HETATM   16  C   UNL     1     -43.650  56.665 -53.747  1.00  0.00     0.345 C 
HETATM   17  O   UNL     1     -44.808  56.677 -54.134  1.00  0.00    -0.245 OA
HETATM   18  N   UNL     1     -43.217  56.078 -52.574  1.00  0.00    -0.323 N 
HETATM   19  C   UNL     1     -41.777  56.202 -52.409  1.00  0.00     0.117 C 
HETATM   20  H   UNL     1     -43.839  55.507 -52.013  1.00  0.00     0.165 HD
HETATM   21  C   UNL     1     -41.081  54.892 -52.808  1.00  0.00     0.041 C 
HETATM   22  C   UNL     1     -41.375  56.664 -51.010  1.00  0.00     0.041 C 
HETATM   23  C   UNL     1     -41.493  57.283 -53.477  1.00  0.00     0.275 C 
HETATM   24  C   UNL     1     -41.280  53.801 -51.757  1.00  0.00     0.003 C 
HETATM   25  C   UNL     1     -40.845  54.272 -50.372  1.00  0.00     0.000 C 
HETATM   26  C   UNL     1     -41.548  55.563 -49.964  1.00  0.00     0.003 C 
HETATM   27  O   UNL     1     -40.490  57.980 -53.526  1.00  0.00    -0.268 OA
ENDBRANCH  12  15
ENDBRANCH   5  11
BRANCH   1  28
HETATM   28  C   UNL     1     -41.452  61.167 -59.803  1.00  0.00    -0.004 A 
HETATM   29  C   UNL     1     -41.342  61.495 -61.172  1.00  0.00     0.053 A 
HETATM   30  C   UNL     1     -40.503  62.525 -61.624  1.00  0.00     0.102 A 
HETATM   31  C   UNL     1     -39.779  63.267 -60.681  1.00  0.00     0.101 A 
HETATM   32  C   UNL     1     -39.842  62.937 -59.327  1.00  0.00     0.040 A 
HETATM   33  C   UNL     1     -40.674  61.904 -58.893  1.00  0.00     0.017 A 
BRANCH  30  34
HETATM   34  O   UNL     1     -40.336  62.863 -62.942  1.00  0.00    -0.353 OA
HETATM   35  C   UNL     1     -41.495  62.898 -63.762  1.00  0.00     0.210 C 
ENDBRANCH  30  34
BRANCH  31  36
HETATM   36  O   UNL     1     -38.936  64.307 -60.984  1.00  0.00    -0.353 OA
HETATM   37  C   UNL     1     -38.065  64.653 -59.908  1.00  0.00     0.210 C 
ENDBRANCH  31  36
ENDBRANCH   1  28
TORSDOF 5
ENDMDL
MODEL 10
REMARK VINA RESULT:      -8.3      1.819      2.379
REMARK  5 active torsions:
REMARK  status: ('A' for Active; 'I' for Inactive)
REMARK    1  A    between atoms: O_2  and  C_3 
REMARK    2  A    between atoms: C_4  and  O_5 
REMARK    3  A    between atoms: C_8  and  C_9 
REMARK    4  A    between atoms: C_13  and  C_14 
REMARK       I    between atoms: C_14  and  N_15 
REMARK    5  A    between atoms: N_15  and  N_16 
ROOT
HETATM    1  C   UNL     1     -42.313  55.959 -53.781  1.00  0.00     0.069 A 
HETATM    2  N   UNL     1     -42.658  56.499 -52.590  1.00  0.00    -0.248 NA
HETATM    3  C   UNL     1     -43.527  57.520 -52.544  1.00  0.00     0.068 A 
HETATM    4  C   UNL     1     -44.105  58.100 -53.694  1.00  0.00     0.009 A 
HETATM    5  C   UNL     1     -43.637  57.600 -54.936  1.00  0.00     0.048 A 
HETATM    6  C   UNL     1     -42.755  56.512 -54.968  1.00  0.00     0.050 A 
HETATM    7  C   UNL     1     -43.882  57.994 -51.289  1.00  0.00     0.032 A 
HETATM    8  C   UNL     1     -44.825  59.007 -51.119  1.00  0.00     0.002 A 
HETATM    9  C   UNL     1     -45.452  59.546 -52.229  1.00  0.00     0.001 A 
HETATM   10  C   UNL     1     -45.107  59.092 -53.501  1.00  0.00     0.015 A 
ENDROOT
BRANCH   5  11
HETATM   11  C   UNL     1     -44.012  58.139 -56.279  1.00  0.00     0.271 C 
HETATM   12  N   UNL     1     -45.303  57.911 -56.708  1.00  0.00    -0.252 N 
HETATM   13  H   UNL     1     -46.033  57.704 -56.030  1.00  0.00     0.191 HD
HETATM   14  O   UNL     1     -43.202  58.826 -56.896  1.00  0.00    -0.266 OA
BRANCH  12  15
HETATM   15  N   UNL     1     -45.742  58.595 -57.836  1.00  0.00    -0.167 N 
HETATM   16  C   UNL     1     -46.365  59.810 -57.747  1.00  0.00     0.345 C 
HETATM   17  O   UNL     1     -46.536  60.482 -56.742  1.00  0.00    -0.245 OA
HETATM   18  N   UNL     1     -46.855  60.127 -58.998  1.00  0.00    -0.323 N 
HETATM   19  C   UNL     1     -46.454  59.148 -59.997  1.00  0.00     0.117 C 
HETATM   20  H   UNL     1     -47.296  61.021 -59.178  1.00  0.00     0.165 HD
HETATM   21  C   UNL     1     -45.262  59.674 -60.811  1.00  0.00     0.041 C 
HETATM   22  C   UNL     1     -47.609  58.702 -60.892  1.00  0.00     0.041 C 
HETATM   23  C   UNL     1     -45.978  58.013 -59.061  1.00  0.00     0.275 C 
HETATM   24  C   UNL     1     -45.686  60.762 -61.798  1.00  0.00     0.003 C 
HETATM   25  C   UNL     1     -46.819  60.286 -62.702  1.00  0.00     0.000 C 
HETATM   26  C   UNL     1     -48.013  59.779 -61.898  1.00  0.00     0.003 C 
HETATM   27  O   UNL     1     -45.844  56.841 -59.384  1.00  0.00    -0.268 OA
ENDBRANCH  12  15
ENDBRANCH   5  11
BRANCH   1  28
HETATM   28  C   UNL     1     -41.484  54.738 -53.715  1.00  0.00    -0.004 A 
HETATM   29  C   UNL     1     -41.268  54.075 -52.487  1.00  0.00     0.053 A 
HETATM   30  C   UNL     1     -40.531  52.883 -52.405  1.00  0.00     0.102 A 
HETATM   31  C   UNL     1     -40.024  52.323 -53.586  1.00  0.00     0.101 A 
HETATM   32  C   UNL     1     -40.191  52.979 -54.805  1.00  0.00     0.040 A 
HETATM   33  C   UNL     1     -40.920  54.168 -54.869  1.00  0.00     0.017 A 
BRANCH  30  34
HETATM   34  O   UNL     1     -40.266  52.218 -51.236  1.00  0.00    -0.353 OA
HETATM   35  C   UNL     1     -40.342  52.959 -50.027  1.00  0.00     0.210 C 
ENDBRANCH  30  34
BRANCH  31  36
HETATM   36  O   UNL     1     -39.301  51.158 -53.650  1.00  0.00    -0.353 OA
HETATM   37  C   UNL     1     -39.996  50.105 -54.317  1.00  0.00     0.210 C 
ENDBRANCH  31  36
ENDBRANCH   1  28
TORSDOF 5
ENDMDL
