MODEL 1
REMARK VINA RESULT:      -7.7      0.000      0.000
REMARK  7 active torsions:
REMARK  status: ('A' for Active; 'I' for Inactive)
REMARK    1  A    between atoms: O_2  and  C_3 
REMARK    2  A    between atoms: C_4  and  O_5 
REMARK    3  A    between atoms: C_9  and  C_10 
REMARK    4  A    between atoms: C_10  and  N_11 
REMARK    5  A    between atoms: C_14  and  C_15 
REMARK    6  A    between atoms: C_15  and  N_16 
REMARK    7  A    between atoms: N_16  and  C_17 
ROOT
HETATM    1  N   UNL     1     -41.996  55.893 -54.292  1.00  0.00    -0.067 N 
HETATM    2  H   UNL     1     -42.253  55.525 -53.363  1.00  0.00     0.280 HD
HETATM    3  C   UNL     1     -43.263  55.850 -55.125  1.00  0.00     0.241 C 
HETATM    4  C   UNL     1     -43.421  57.253 -55.707  1.00  0.00     0.031 C 
HETATM    5  C   UNL     1     -42.813  58.127 -54.614  1.00  0.00     0.035 C 
HETATM    6  C   UNL     1     -41.613  57.347 -54.103  1.00  0.00     0.235 C 
ENDROOT
BRANCH   1   7
HETATM    7  C   UNL     1     -40.839  55.033 -54.752  1.00  0.00     0.273 C 
BRANCH   7   8
HETATM    8  C   UNL     1     -40.539  53.870 -53.846  1.00  0.00    -0.028 A 
HETATM    9  C   UNL     1     -40.265  52.601 -54.381  1.00  0.00     0.031 A 
HETATM   10  C   UNL     1     -39.932  51.538 -53.537  1.00  0.00     0.047 A 
HETATM   11  C   UNL     1     -39.875  51.736 -52.158  1.00  0.00     0.116 A 
HETATM   12 BR   UNL     1     -39.551  49.857 -54.319  1.00  0.00    -0.048 Br
HETATM   13  C   UNL     1     -40.171  52.986 -51.603  1.00  0.00     0.103 A 
HETATM   14  C   UNL     1     -40.502  54.049 -52.449  1.00  0.00     0.048 A 
BRANCH  11  15
HETATM   15  O   UNL     1     -39.529  50.705 -51.328  1.00  0.00    -0.357 OA
HETATM   16  H   UNL     1     -40.103  50.766 -50.539  1.00  0.00     0.218 HD
ENDBRANCH  11  15
BRANCH  13  17
HETATM   17  O   UNL     1     -40.074  53.051 -50.238  1.00  0.00    -0.353 OA
HETATM   18  C   UNL     1     -39.752  54.309 -49.657  1.00  0.00     0.210 C 
ENDBRANCH  13  17
ENDBRANCH   7   8
ENDBRANCH   1   7
BRANCH   4  19
HETATM   19  C   UNL     1     -42.733  57.367 -57.079  1.00  0.00     0.127 C 
BRANCH  19  20
HETATM   20  N   UNL     1     -42.837  56.118 -57.836  1.00  0.00    -0.376 N 
HETATM   21  H   UNL     1     -41.947  55.681 -58.065  1.00  0.00     0.161 HD
BRANCH  20  22
HETATM   22  C   UNL     1     -43.852  55.970 -58.774  1.00  0.00     0.100 A 
HETATM   23  N   UNL     1     -44.921  56.785 -58.702  1.00  0.00    -0.353 N 
HETATM   24  H   UNL     1     -44.945  57.483 -57.964  1.00  0.00     0.166 HD
HETATM   25  C   UNL     1     -45.955  56.739 -59.557  1.00  0.00     0.089 A 
HETATM   26  C   UNL     1     -45.959  55.825 -60.597  1.00  0.00     0.017 A 
HETATM   27  C   UNL     1     -44.871  54.977 -60.743  1.00  0.00     0.005 A 
HETATM   28  C   UNL     1     -43.813  55.055 -59.837  1.00  0.00     0.048 A 
ENDBRANCH  20  22
ENDBRANCH  19  20
ENDBRANCH   4  19
TORSDOF 7
ENDMDL
MODEL 2
REMARK VINA RESULT:      -7.4      2.895      3.815
REMARK  7 active torsions:
REMARK  status: ('A' for Active; 'I' for Inactive)
REMARK    1  A    between atoms: O_2  and  C_3 
REMARK    2  A    between atoms: C_4  and  O_5 
REMARK    3  A    between atoms: C_9  and  C_10 
REMARK    4  A    between atoms: C_10  and  N_11 
REMARK    5  A    between atoms: C_14  and  C_15 
REMARK    6  A    between atoms: C_15  and  N_16 
REMARK    7  A    between atoms: N_16  and  C_17 
ROOT
HETATM    1  N   UNL     1     -42.472  57.626 -50.939  1.00  0.00    -0.067 N 
HETATM    2  H   UNL     1     -42.175  57.412 -49.975  1.00  0.00     0.280 HD
HETATM    3  C   UNL     1     -43.868  57.049 -51.084  1.00  0.00     0.241 C 
HETATM    4  C   UNL     1     -44.732  58.191 -51.617  1.00  0.00     0.031 C 
HETATM    5  C   UNL     1     -44.071  59.417 -50.992  1.00  0.00     0.035 C 
HETATM    6  C   UNL     1     -42.579  59.134 -51.046  1.00  0.00     0.235 C 
ENDROOT
BRANCH   1   7
HETATM    7  C   UNL     1     -41.391  57.047 -51.825  1.00  0.00     0.273 C 
BRANCH   7   8
HETATM    8  C   UNL     1     -41.114  55.588 -51.583  1.00  0.00    -0.028 A 
HETATM    9  C   UNL     1     -40.894  54.715 -52.659  1.00  0.00     0.031 A 
HETATM   10  C   UNL     1     -40.580  53.373 -52.425  1.00  0.00     0.047 A 
HETATM   11  C   UNL     1     -40.489  52.899 -51.118  1.00  0.00     0.116 A 
HETATM   12 BR   UNL     1     -40.272  52.250 -53.918  1.00  0.00    -0.048 Br
HETATM   13  C   UNL     1     -40.731  53.746 -50.031  1.00  0.00     0.103 A 
HETATM   14  C   UNL     1     -41.043  55.088 -50.267  1.00  0.00     0.048 A 
BRANCH  11  15
HETATM   15  O   UNL     1     -40.162  51.591 -50.881  1.00  0.00    -0.357 OA
HETATM   16  H   UNL     1     -39.888  51.528 -49.946  1.00  0.00     0.218 HD
ENDBRANCH  11  15
BRANCH  13  17
HETATM   17  O   UNL     1     -40.605  53.159 -48.799  1.00  0.00    -0.353 OA
HETATM   18  C   UNL     1     -40.195  53.982 -47.713  1.00  0.00     0.210 C 
ENDBRANCH  13  17
ENDBRANCH   7   8
ENDBRANCH   1   7
BRANCH   4  19
HETATM   19  C   UNL     1     -44.763  58.192 -53.156  1.00  0.00     0.127 C 
BRANCH  19  20
HETATM   20  N   UNL     1     -45.028  56.853 -53.687  1.00  0.00    -0.376 N 
HETATM   21  H   UNL     1     -45.568  56.248 -53.073  1.00  0.00     0.161 HD
BRANCH  20  22
HETATM   22  C   UNL     1     -44.066  56.228 -54.473  1.00  0.00     0.100 A 
HETATM   23  N   UNL     1     -44.150  54.898 -54.659  1.00  0.00    -0.353 N 
HETATM   24  H   UNL     1     -44.919  54.398 -54.221  1.00  0.00     0.166 HD
HETATM   25  C   UNL     1     -43.284  54.191 -55.403  1.00  0.00     0.089 A 
HETATM   26  C   UNL     1     -42.235  54.827 -56.045  1.00  0.00     0.017 A 
HETATM   27  C   UNL     1     -42.112  56.203 -55.915  1.00  0.00     0.005 A 
HETATM   28  C   UNL     1     -43.032  56.906 -55.137  1.00  0.00     0.048 A 
ENDBRANCH  20  22
ENDBRANCH  19  20
ENDBRANCH   4  19
TORSDOF 7
ENDMDL
MODEL 3
REMARK VINA RESULT:      -7.3      2.493      5.145
REMARK  7 active torsions:
REMARK  status: ('A' for Active; 'I' for Inactive)
REMARK    1  A    between atoms: O_2  and  C_3 
REMARK    2  A    between atoms: C_4  and  O_5 
REMARK    3  A    between atoms: C_9  and  C_10 
REMARK    4  A    between atoms: C_10  and  N_11 
REMARK    5  A    between atoms: C_14  and  C_15 
REMARK    6  A    between atoms: C_15  and  N_16 
REMARK    7  A    between atoms: N_16  and  C_17 
ROOT
HETATM    1  N   UNL     1     -42.299  55.343 -55.043  1.00  0.00    -0.067 N 
HETATM    2  H   UNL     1     -42.533  54.436 -55.473  1.00  0.00     0.280 HD
HETATM    3  C   UNL     1     -42.643  56.398 -56.078  1.00  0.00     0.241 C 
HETATM    4  C   UNL     1     -43.535  57.406 -55.357  1.00  0.00     0.031 C 
HETATM    5  C   UNL     1     -44.269  56.526 -54.348  1.00  0.00     0.035 C 
HETATM    6  C   UNL     1     -43.230  55.530 -53.862  1.00  0.00     0.235 C 
ENDROOT
BRANCH   1   7
HETATM    7  C   UNL     1     -40.846  55.225 -54.635  1.00  0.00     0.273 C 
BRANCH   7   8
HETATM    8  C   UNL     1     -40.546  54.035 -53.766  1.00  0.00    -0.028 A 
HETATM    9  C   UNL     1     -40.332  52.771 -54.335  1.00  0.00     0.031 A 
HETATM   10  C   UNL     1     -39.997  51.681 -53.527  1.00  0.00     0.047 A 
HETATM   11  C   UNL     1     -39.881  51.848 -52.148  1.00  0.00     0.116 A 
HETATM   12 BR   UNL     1     -39.699  50.006 -54.357  1.00  0.00    -0.048 Br
HETATM   13  C   UNL     1     -40.117  53.094 -51.556  1.00  0.00     0.103 A 
HETATM   14  C   UNL     1     -40.449  54.184 -52.367  1.00  0.00     0.048 A 
BRANCH  11  15
HETATM   15  O   UNL     1     -39.533  50.790 -51.353  1.00  0.00    -0.357 OA
HETATM   16  H   UNL     1     -39.300  51.153 -50.476  1.00  0.00     0.218 HD
ENDBRANCH  11  15
BRANCH  13  17
HETATM   17  O   UNL     1     -39.964  53.128 -50.195  1.00  0.00    -0.353 OA
HETATM   18  C   UNL     1     -39.999  54.399 -49.557  1.00  0.00     0.210 C 
ENDBRANCH  13  17
ENDBRANCH   7   8
ENDBRANCH   1   7
BRANCH   4  19
HETATM   19  C   UNL     1     -42.703  58.542 -54.735  1.00  0.00     0.127 C 
BRANCH  19  20
HETATM   20  N   UNL     1     -43.228  58.934 -53.425  1.00  0.00    -0.376 N 
HETATM   21  H   UNL     1     -43.990  59.608 -53.454  1.00  0.00     0.161 HD
BRANCH  20  22
HETATM   22  C   UNL     1     -42.361  59.036 -52.344  1.00  0.00     0.100 A 
HETATM   23  N   UNL     1     -42.515  60.062 -51.487  1.00  0.00    -0.353 N 
HETATM   24  H   UNL     1     -43.266  60.725 -51.660  1.00  0.00     0.166 HD
HETATM   25  C   UNL     1     -41.742  60.256 -50.406  1.00  0.00     0.089 A 
HETATM   26  C   UNL     1     -40.724  59.367 -50.109  1.00  0.00     0.017 A 
HETATM   27  C   UNL     1     -40.533  58.271 -50.938  1.00  0.00     0.005 A 
HETATM   28  C   UNL     1     -41.357  58.100 -52.051  1.00  0.00     0.048 A 
ENDBRANCH  20  22
ENDBRANCH  19  20
ENDBRANCH   4  19
TORSDOF 7
ENDMDL
MODEL 4
REMARK VINA RESULT:      -7.2      4.391      8.042
REMARK  7 active torsions:
REMARK  status: ('A' for Active; 'I' for Inactive)
REMARK    1  A    between atoms: O_2  and  C_3 
REMARK    2  A    between atoms: C_4  and  O_5 
REMARK    3  A    between atoms: C_9  and  C_10 
REMARK    4  A    between atoms: C_10  and  N_11 
REMARK    5  A    between atoms: C_14  and  C_15 
REMARK    6  A    between atoms: C_15  and  N_16 
REMARK    7  A    between atoms: N_16  and  C_17 
ROOT
HETATM    1  N   UNL     1     -42.092  56.358 -54.952  1.00  0.00    -0.067 N 
HETATM    2  H   UNL     1     -41.932  57.262 -55.422  1.00  0.00     0.280 HD
HETATM    3  C   UNL     1     -40.821  56.057 -54.180  1.00  0.00     0.241 C 
HETATM    4  C   UNL     1     -41.269  55.756 -52.751  1.00  0.00     0.031 C 
HETATM    5  C   UNL     1     -42.502  56.645 -52.604  1.00  0.00     0.035 C 
HETATM    6  C   UNL     1     -43.207  56.571 -53.948  1.00  0.00     0.235 C 
ENDROOT
BRANCH   1   7
HETATM    7  C   UNL     1     -42.471  55.397 -56.058  1.00  0.00     0.273 C 
BRANCH   7   8
HETATM    8  C   UNL     1     -42.857  56.067 -57.349  1.00  0.00    -0.028 A 
HETATM    9  C   UNL     1     -43.566  55.363 -58.334  1.00  0.00     0.031 A 
HETATM   10  C   UNL     1     -43.972  56.007 -59.507  1.00  0.00     0.047 A 
HETATM   11  C   UNL     1     -43.668  57.354 -59.700  1.00  0.00     0.116 A 
HETATM   12 BR   UNL     1     -44.944  55.009 -60.789  1.00  0.00    -0.048 Br
HETATM   13  C   UNL     1     -42.939  58.068 -58.743  1.00  0.00     0.103 A 
HETATM   14  C   UNL     1     -42.536  57.422 -57.570  1.00  0.00     0.048 A 
BRANCH  11  15
HETATM   15  O   UNL     1     -44.080  57.996 -60.836  1.00  0.00    -0.357 OA
HETATM   16  H   UNL     1     -44.419  57.312 -61.446  1.00  0.00     0.218 HD
ENDBRANCH  11  15
BRANCH  13  17
HETATM   17  O   UNL     1     -42.712  59.383 -59.049  1.00  0.00    -0.353 OA
HETATM   18  C   UNL     1     -42.009  60.173 -58.097  1.00  0.00     0.210 C 
ENDBRANCH  13  17
ENDBRANCH   7   8
ENDBRANCH   1   7
BRANCH   4  19
HETATM   19  C   UNL     1     -41.534  54.252 -52.556  1.00  0.00     0.127 C 
BRANCH  19  20
HETATM   20  N   UNL     1     -40.316  53.542 -52.159  1.00  0.00    -0.376 N 
HETATM   21  H   UNL     1     -39.495  54.131 -52.046  1.00  0.00     0.161 HD
BRANCH  20  22
HETATM   22  C   UNL     1     -40.088  52.257 -52.639  1.00  0.00     0.100 A 
HETATM   23  N   UNL     1     -39.737  51.295 -51.766  1.00  0.00    -0.353 N 
HETATM   24  H   UNL     1     -39.654  51.543 -50.783  1.00  0.00     0.166 HD
HETATM   25  C   UNL     1     -39.499  50.020 -52.114  1.00  0.00     0.089 A 
HETATM   26  C   UNL     1     -39.624  49.624 -53.435  1.00  0.00     0.017 A 
HETATM   27  C   UNL     1     -40.013  50.563 -54.378  1.00  0.00     0.005 A 
HETATM   28  C   UNL     1     -40.254  51.878 -53.980  1.00  0.00     0.048 A 
ENDBRANCH  20  22
ENDBRANCH  19  20
ENDBRANCH   4  19
TORSDOF 7
ENDMDL
MODEL 5
REMARK VINA RESULT:      -7.2      4.702      8.491
REMARK  7 active torsions:
REMARK  status: ('A' for Active; 'I' for Inactive)
REMARK    1  A    between atoms: O_2  and  C_3 
REMARK    2  A    between atoms: C_4  and  O_5 
REMARK    3  A    between atoms: C_9  and  C_10 
REMARK    4  A    between atoms: C_10  and  N_11 
REMARK    5  A    between atoms: C_14  and  C_15 
REMARK    6  A    between atoms: C_15  and  N_16 
REMARK    7  A    between atoms: N_16  and  C_17 
ROOT
HETATM    1  N   UNL     1     -43.023  55.810 -55.296  1.00  0.00    -0.067 N 
HETATM    2  H   UNL     1     -43.819  56.438 -55.484  1.00  0.00     0.280 HD
HETATM    3  C   UNL     1     -42.104  56.569 -54.357  1.00  0.00     0.241 C 
HETATM    4  C   UNL     1     -41.848  55.627 -53.182  1.00  0.00     0.031 C 
HETATM    5  C   UNL     1     -43.157  54.846 -53.102  1.00  0.00     0.035 C 
HETATM    6  C   UNL     1     -43.569  54.612 -54.546  1.00  0.00     0.235 C 
ENDROOT
BRANCH   1   7
HETATM    7  C   UNL     1     -42.472  55.451 -56.659  1.00  0.00     0.273 C 
BRANCH   7   8
HETATM    8  C   UNL     1     -42.945  56.348 -57.770  1.00  0.00    -0.028 A 
HETATM    9  C   UNL     1     -42.489  57.672 -57.862  1.00  0.00     0.031 A 
HETATM   10  C   UNL     1     -42.889  58.482 -58.929  1.00  0.00     0.047 A 
HETATM   11  C   UNL     1     -43.748  57.976 -59.903  1.00  0.00     0.116 A 
HETATM   12 BR   UNL     1     -42.221  60.252 -59.010  1.00  0.00    -0.048 Br
HETATM   13  C   UNL     1     -44.236  56.667 -59.816  1.00  0.00     0.103 A 
HETATM   14  C   UNL     1     -43.833  55.858 -58.749  1.00  0.00     0.048 A 
BRANCH  11  15
HETATM   15  O   UNL     1     -44.126  58.757 -60.961  1.00  0.00    -0.357 OA
HETATM   16  H   UNL     1     -43.488  58.593 -61.683  1.00  0.00     0.218 HD
ENDBRANCH  11  15
BRANCH  13  17
HETATM   17  O   UNL     1     -45.066  56.289 -60.838  1.00  0.00    -0.353 OA
HETATM   18  C   UNL     1     -45.061  54.919 -61.221  1.00  0.00     0.210 C 
ENDBRANCH  13  17
ENDBRANCH   7   8
ENDBRANCH   1   7
BRANCH   4  19
HETATM   19  C   UNL     1     -40.597  54.763 -53.424  1.00  0.00     0.127 C 
BRANCH  19  20
HETATM   20  N   UNL     1     -40.449  53.737 -52.389  1.00  0.00    -0.376 N 
HETATM   21  H   UNL     1     -40.002  54.054 -51.532  1.00  0.00     0.161 HD
BRANCH  20  22
HETATM   22  C   UNL     1     -40.192  52.422 -52.764  1.00  0.00     0.100 A 
HETATM   23  N   UNL     1     -39.770  51.555 -51.825  1.00  0.00    -0.353 N 
HETATM   24  H   UNL     1     -39.657  51.893 -50.873  1.00  0.00     0.166 HD
HETATM   25  C   UNL     1     -39.498  50.263 -52.070  1.00  0.00     0.089 A 
HETATM   26  C   UNL     1     -39.662  49.745 -53.344  1.00  0.00     0.017 A 
HETATM   27  C   UNL     1     -40.124  50.583 -54.349  1.00  0.00     0.005 A 
HETATM   28  C   UNL     1     -40.398  51.919 -54.058  1.00  0.00     0.048 A 
ENDBRANCH  20  22
ENDBRANCH  19  20
ENDBRANCH   4  19
TORSDOF 7
ENDMDL
MODEL 6
REMARK VINA RESULT:      -7.2      1.543      2.409
REMARK  7 active torsions:
REMARK  status: ('A' for Active; 'I' for Inactive)
REMARK    1  A    between atoms: O_2  and  C_3 
REMARK    2  A    between atoms: C_4  and  O_5 
REMARK    3  A    between atoms: C_9  and  C_10 
REMARK    4  A    between atoms: C_10  and  N_11 
REMARK    5  A    between atoms: C_14  and  C_15 
REMARK    6  A    between atoms: C_15  and  N_16 
REMARK    7  A    between atoms: N_16  and  C_17 
ROOT
HETATM    1  N   UNL     1     -41.935  55.978 -53.953  1.00  0.00    -0.067 N 
HETATM    2  H   UNL     1     -42.093  55.693 -52.975  1.00  0.00     0.280 HD
HETATM    3  C   UNL     1     -43.311  56.198 -54.552  1.00  0.00     0.241 C 
HETATM    4  C   UNL     1     -43.270  57.591 -55.177  1.00  0.00     0.031 C 
HETATM    5  C   UNL     1     -42.304  58.331 -54.256  1.00  0.00     0.035 C 
HETATM    6  C   UNL     1     -41.225  57.317 -53.916  1.00  0.00     0.235 C 
ENDROOT
BRANCH   1   7
HETATM    7  C   UNL     1     -41.088  54.878 -54.555  1.00  0.00     0.273 C 
BRANCH   7   8
HETATM    8  C   UNL     1     -40.643  53.835 -53.567  1.00  0.00    -0.028 A 
HETATM    9  C   UNL     1     -40.672  54.098 -52.189  1.00  0.00     0.031 A 
HETATM   10  C   UNL     1     -40.311  53.104 -51.274  1.00  0.00     0.047 A 
HETATM   11  C   UNL     1     -39.917  51.848 -51.731  1.00  0.00     0.116 A 
HETATM   12 BR   UNL     1     -40.393  53.513 -49.427  1.00  0.00    -0.048 Br
HETATM   13  C   UNL     1     -39.854  51.573 -53.102  1.00  0.00     0.103 A 
HETATM   14  C   UNL     1     -40.218  52.568 -54.015  1.00  0.00     0.048 A 
BRANCH  11  15
HETATM   15  O   UNL     1     -39.582  50.864 -50.840  1.00  0.00    -0.357 OA
HETATM   16  H   UNL     1     -39.802  51.198 -49.948  1.00  0.00     0.218 HD
ENDBRANCH  11  15
BRANCH  13  17
HETATM   17  O   UNL     1     -39.458  50.301 -53.421  1.00  0.00    -0.353 OA
HETATM   18  C   UNL     1     -39.799  49.805 -54.710  1.00  0.00     0.210 C 
ENDBRANCH  13  17
ENDBRANCH   7   8
ENDBRANCH   1   7
BRANCH   4  19
HETATM   19  C   UNL     1     -42.832  57.527 -56.652  1.00  0.00     0.127 C 
BRANCH  19  20
HETATM   20  N   UNL     1     -43.953  57.795 -57.555  1.00  0.00    -0.376 N 
HETATM   21  H   UNL     1     -44.703  58.352 -57.153  1.00  0.00     0.161 HD
BRANCH  20  22
HETATM   22  C   UNL     1     -44.335  56.824 -58.475  1.00  0.00     0.100 A 
HETATM   23  N   UNL     1     -45.534  56.942 -59.076  1.00  0.00    -0.353 N 
HETATM   24  H   UNL     1     -46.116  57.740 -58.837  1.00  0.00     0.166 HD
HETATM   25  C   UNL     1     -46.003  56.071 -59.983  1.00  0.00     0.089 A 
HETATM   26  C   UNL     1     -45.238  54.981 -60.365  1.00  0.00     0.017 A 
HETATM   27  C   UNL     1     -43.980  54.822 -59.803  1.00  0.00     0.005 A 
HETATM   28  C   UNL     1     -43.524  55.748 -58.865  1.00  0.00     0.048 A 
ENDBRANCH  20  22
ENDBRANCH  19  20
ENDBRANCH   4  19
TORSDOF 7
ENDMDL
MODEL 7
REMARK VINA RESULT:      -6.9      4.364      7.407
REMARK  7 active torsions:
REMARK  status: ('A' for Active; 'I' for Inactive)
REMARK    1  A    between atoms: O_2  and  C_3 
REMARK    2  A    between atoms: C_4  and  O_5 
REMARK    3  A    between atoms: C_9  and  C_10 
REMARK    4  A    between atoms: C_10  and  N_11 
REMARK    5  A    between atoms: C_14  and  C_15 
REMARK    6  A    between atoms: C_15  and  N_16 
REMARK    7  A    between atoms: N_16  and  C_17 
ROOT
HETATM    1  N   UNL     1     -43.292  56.327 -54.772  1.00  0.00    -0.067 N 
HETATM    2  H   UNL     1     -44.279  56.571 -54.947  1.00  0.00     0.280 HD
HETATM    3  C   UNL     1     -43.280  55.535 -53.478  1.00  0.00     0.241 C 
HETATM    4  C   UNL     1     -42.512  54.252 -53.788  1.00  0.00     0.031 C 
HETATM    5  C   UNL     1     -42.854  54.017 -55.257  1.00  0.00     0.035 C 
HETATM    6  C   UNL     1     -42.859  55.399 -55.889  1.00  0.00     0.235 C 
ENDROOT
BRANCH   1   7
HETATM    7  C   UNL     1     -42.551  57.646 -54.781  1.00  0.00     0.273 C 
BRANCH   7   8
HETATM    8  C   UNL     1     -42.637  58.409 -53.487  1.00  0.00    -0.028 A 
HETATM    9  C   UNL     1     -43.880  58.643 -52.878  1.00  0.00     0.031 A 
HETATM   10  C   UNL     1     -43.948  59.302 -51.648  1.00  0.00     0.047 A 
HETATM   11  C   UNL     1     -42.779  59.733 -51.024  1.00  0.00     0.116 A 
HETATM   12 BR   UNL     1     -45.652  59.568 -50.866  1.00  0.00    -0.048 Br
HETATM   13  C   UNL     1     -41.532  59.534 -51.627  1.00  0.00     0.103 A 
HETATM   14  C   UNL     1     -41.465  58.872 -52.857  1.00  0.00     0.048 A 
BRANCH  11  15
HETATM   15  O   UNL     1     -42.837  60.361 -49.809  1.00  0.00    -0.357 OA
HETATM   16  H   UNL     1     -43.639  60.035 -49.356  1.00  0.00     0.218 HD
ENDBRANCH  11  15
BRANCH  13  17
HETATM   17  O   UNL     1     -40.461  59.998 -50.910  1.00  0.00    -0.353 OA
HETATM   18  C   UNL     1     -39.262  59.233 -50.940  1.00  0.00     0.210 C 
ENDBRANCH  13  17
ENDBRANCH   7   8
ENDBRANCH   1   7
BRANCH   4  19
HETATM   19  C   UNL     1     -41.010  54.417 -53.496  1.00  0.00     0.127 C 
BRANCH  19  20
HETATM   20  N   UNL     1     -40.211  53.434 -54.232  1.00  0.00    -0.376 N 
HETATM   21  H   UNL     1     -40.314  53.469 -55.244  1.00  0.00     0.161 HD
BRANCH  20  22
HETATM   22  C   UNL     1     -40.000  52.175 -53.681  1.00  0.00     0.100 A 
HETATM   23  N   UNL     1     -39.736  52.083 -52.365  1.00  0.00    -0.353 N 
HETATM   24  H   UNL     1     -39.703  52.940 -51.819  1.00  0.00     0.166 HD
HETATM   25  C   UNL     1     -39.523  50.922 -51.724  1.00  0.00     0.089 A 
HETATM   26  C   UNL     1     -39.584  49.724 -52.415  1.00  0.00     0.017 A 
HETATM   27  C   UNL     1     -39.883  49.751 -53.769  1.00  0.00     0.005 A 
HETATM   28  C   UNL     1     -40.100  50.975 -54.401  1.00  0.00     0.048 A 
ENDBRANCH  20  22
ENDBRANCH  19  20
ENDBRANCH   4  19
TORSDOF 7
ENDMDL
MODEL 8
REMARK VINA RESULT:      -6.9      2.502      5.226
REMARK  7 active torsions:
REMARK  status: ('A' for Active; 'I' for Inactive)
REMARK    1  A    between atoms: O_2  and  C_3 
REMARK    2  A    between atoms: C_4  and  O_5 
REMARK    3  A    between atoms: C_9  and  C_10 
REMARK    4  A    between atoms: C_10  and  N_11 
REMARK    5  A    between atoms: C_14  and  C_15 
REMARK    6  A    between atoms: C_15  and  N_16 
REMARK    7  A    between atoms: N_16  and  C_17 
ROOT
HETATM    1  N   UNL     1     -42.187  55.246 -56.213  1.00  0.00    -0.067 N 
HETATM    2  H   UNL     1     -41.336  54.770 -56.549  1.00  0.00     0.280 HD
HETATM    3  C   UNL     1     -41.723  56.558 -55.610  1.00  0.00     0.241 C 
HETATM    4  C   UNL     1     -42.574  57.639 -56.273  1.00  0.00     0.031 C 
HETATM    5  C   UNL     1     -42.820  57.053 -57.661  1.00  0.00     0.035 C 
HETATM    6  C   UNL     1     -43.029  55.566 -57.431  1.00  0.00     0.235 C 
ENDROOT
BRANCH   1   7
HETATM    7  C   UNL     1     -42.851  54.256 -55.281  1.00  0.00     0.273 C 
BRANCH   7   8
HETATM    8  C   UNL     1     -41.947  53.723 -54.203  1.00  0.00    -0.028 A 
HETATM    9  C   UNL     1     -42.076  54.167 -52.879  1.00  0.00     0.031 A 
HETATM   10  C   UNL     1     -41.270  53.626 -51.872  1.00  0.00     0.047 A 
HETATM   11  C   UNL     1     -40.331  52.645 -52.186  1.00  0.00     0.116 A 
HETATM   12 BR   UNL     1     -41.507  54.250 -50.100  1.00  0.00    -0.048 Br
HETATM   13  C   UNL     1     -40.167  52.208 -53.505  1.00  0.00     0.103 A 
HETATM   14  C   UNL     1     -40.975  52.748 -54.510  1.00  0.00     0.048 A 
BRANCH  11  15
HETATM   15  O   UNL     1     -39.553  52.096 -51.202  1.00  0.00    -0.357 OA
HETATM   16  H   UNL     1     -39.371  51.172 -51.462  1.00  0.00     0.218 HD
ENDBRANCH  11  15
BRANCH  13  17
HETATM   17  O   UNL     1     -39.217  51.237 -53.680  1.00  0.00    -0.353 OA
HETATM   18  C   UNL     1     -39.628  50.005 -54.260  1.00  0.00     0.210 C 
ENDBRANCH  13  17
ENDBRANCH   7   8
ENDBRANCH   1   7
BRANCH   4  19
HETATM   19  C   UNL     1     -43.850  57.920 -55.458  1.00  0.00     0.127 C 
BRANCH  19  20
HETATM   20  N   UNL     1     -43.654  59.029 -54.522  1.00  0.00    -0.376 N 
HETATM   21  H   UNL     1     -43.509  59.936 -54.958  1.00  0.00     0.161 HD
BRANCH  20  22
HETATM   22  C   UNL     1     -42.971  58.804 -53.331  1.00  0.00     0.100 A 
HETATM   23  N   UNL     1     -41.959  59.628 -53.004  1.00  0.00    -0.353 N 
HETATM   24  H   UNL     1     -41.731  60.388 -53.638  1.00  0.00     0.166 HD
HETATM   25  C   UNL     1     -41.235  59.512 -51.878  1.00  0.00     0.089 A 
HETATM   26  C   UNL     1     -41.521  58.510 -50.966  1.00  0.00     0.017 A 
HETATM   27  C   UNL     1     -42.574  57.647 -51.233  1.00  0.00     0.005 A 
HETATM   28  C   UNL     1     -43.305  57.799 -52.411  1.00  0.00     0.048 A 
ENDBRANCH  20  22
ENDBRANCH  19  20
ENDBRANCH   4  19
TORSDOF 7
ENDMDL
MODEL 9
REMARK VINA RESULT:      -6.7      4.440      7.674
REMARK  7 active torsions:
REMARK  status: ('A' for Active; 'I' for Inactive)
REMARK    1  A    between atoms: O_2  and  C_3 
REMARK    2  A    between atoms: C_4  and  O_5 
REMARK    3  A    between atoms: C_9  and  C_10 
REMARK    4  A    between atoms: C_10  and  N_11 
REMARK    5  A    between atoms: C_14  and  C_15 
REMARK    6  A    between atoms: C_15  and  N_16 
REMARK    7  A    between atoms: N_16  and  C_17 
ROOT
HETATM    1  N   UNL     1     -41.901  56.150 -51.546  1.00  0.00    -0.067 N 
HETATM    2  H   UNL     1     -42.587  56.913 -51.439  1.00  0.00     0.280 HD
HETATM    3  C   UNL     1     -40.956  56.268 -50.365  1.00  0.00     0.241 C 
HETATM    4  C   UNL     1     -40.918  54.880 -49.729  1.00  0.00     0.031 C 
HETATM    5  C   UNL     1     -42.325  54.357 -50.007  1.00  0.00     0.035 C 
HETATM    6  C   UNL     1     -42.660  54.846 -51.407  1.00  0.00     0.235 C 
ENDROOT
BRANCH   1   7
HETATM    7  C   UNL     1     -41.308  56.343 -52.925  1.00  0.00     0.273 C 
BRANCH   7   8
HETATM    8  C   UNL     1     -42.308  56.751 -53.973  1.00  0.00    -0.028 A 
HETATM    9  C   UNL     1     -42.242  56.219 -55.269  1.00  0.00     0.031 A 
HETATM   10  C   UNL     1     -43.207  56.559 -56.221  1.00  0.00     0.047 A 
HETATM   11  C   UNL     1     -44.238  57.434 -55.883  1.00  0.00     0.116 A 
HETATM   12 BR   UNL     1     -43.077  55.790 -57.946  1.00  0.00    -0.048 Br
HETATM   13  C   UNL     1     -44.307  57.998 -54.605  1.00  0.00     0.103 A 
HETATM   14  C   UNL     1     -43.342  57.655 -53.653  1.00  0.00     0.048 A 
BRANCH  11  15
HETATM   15  O   UNL     1     -45.198  57.755 -56.804  1.00  0.00    -0.357 OA
HETATM   16  H   UNL     1     -46.063  57.681 -56.356  1.00  0.00     0.218 HD
ENDBRANCH  11  15
BRANCH  13  17
HETATM   17  O   UNL     1     -45.370  58.837 -54.398  1.00  0.00    -0.353 OA
HETATM   18  C   UNL     1     -45.152  59.999 -53.606  1.00  0.00     0.210 C 
ENDBRANCH  13  17
ENDBRANCH   7   8
ENDBRANCH   1   7
BRANCH   4  19
HETATM   19  C   UNL     1     -39.785  54.025 -50.325  1.00  0.00     0.127 C 
BRANCH  19  20
HETATM   20  N   UNL     1     -40.124  52.600 -50.307  1.00  0.00    -0.376 N 
HETATM   21  H   UNL     1     -39.899  52.118 -49.440  1.00  0.00     0.161 HD
BRANCH  20  22
HETATM   22  C   UNL     1     -40.000  51.854 -51.474  1.00  0.00     0.100 A 
HETATM   23  N   UNL     1     -40.169  52.475 -52.656  1.00  0.00    -0.353 N 
HETATM   24  H   UNL     1     -40.377  53.469 -52.654  1.00  0.00     0.166 HD
HETATM   25  C   UNL     1     -40.066  51.858 -53.845  1.00  0.00     0.089 A 
HETATM   26  C   UNL     1     -39.756  50.510 -53.906  1.00  0.00     0.017 A 
HETATM   27  C   UNL     1     -39.541  49.821 -52.721  1.00  0.00     0.005 A 
HETATM   28  C   UNL     1     -39.654  50.495 -51.505  1.00  0.00     0.048 A 
ENDBRANCH  20  22
ENDBRANCH  19  20
ENDBRANCH   4  19
TORSDOF 7
ENDMDL
MODEL 10
REMARK VINA RESULT:      -6.6     15.212     18.143
REMARK  7 active torsions:
REMARK  status: ('A' for Active; 'I' for Inactive)
REMARK    1  A    between atoms: O_2  and  C_3 
REMARK    2  A    between atoms: C_4  and  O_5 
REMARK    3  A    between atoms: C_9  and  C_10 
REMARK    4  A    between atoms: C_10  and  N_11 
REMARK    5  A    between atoms: C_14  and  C_15 
REMARK    6  A    between atoms: C_15  and  N_16 
REMARK    7  A    between atoms: N_16  and  C_17 
ROOT
HETATM    1  N   UNL     1     -37.933  40.499 -58.143  1.00  0.00    -0.067 N 
HETATM    2  H   UNL     1     -38.876  40.656 -58.528  1.00  0.00     0.280 HD
HETATM    3  C   UNL     1     -37.083  41.657 -58.631  1.00  0.00     0.241 C 
HETATM    4  C   UNL     1     -36.420  42.237 -57.383  1.00  0.00     0.031 C 
HETATM    5  C   UNL     1     -37.472  41.977 -56.308  1.00  0.00     0.035 C 
HETATM    6  C   UNL     1     -38.044  40.608 -56.635  1.00  0.00     0.235 C 
ENDROOT
BRANCH   1   7
HETATM    7  C   UNL     1     -37.541  39.113 -58.606  1.00  0.00     0.273 C 
BRANCH   7   8
HETATM    8  C   UNL     1     -38.114  38.726 -59.942  1.00  0.00    -0.028 A 
HETATM    9  C   UNL     1     -39.433  38.258 -60.044  1.00  0.00     0.031 A 
HETATM   10  C   UNL     1     -39.979  37.954 -61.295  1.00  0.00     0.047 A 
HETATM   11  C   UNL     1     -39.208  38.112 -62.445  1.00  0.00     0.116 A 
HETATM   12 BR   UNL     1     -41.771  37.349 -61.369  1.00  0.00    -0.048 Br
HETATM   13  C   UNL     1     -37.882  38.552 -62.364  1.00  0.00     0.103 A 
HETATM   14  C   UNL     1     -37.339  38.857 -61.112  1.00  0.00     0.048 A 
BRANCH  11  15
HETATM   15  O   UNL     1     -39.743  37.837 -63.675  1.00  0.00    -0.357 OA
HETATM   16  H   UNL     1     -39.426  38.529 -64.288  1.00  0.00     0.218 HD
ENDBRANCH  11  15
BRANCH  13  17
HETATM   17  O   UNL     1     -37.236  38.671 -63.566  1.00  0.00    -0.353 OA
HETATM   18  C   UNL     1     -36.234  37.710 -63.877  1.00  0.00     0.210 C 
ENDBRANCH  13  17
ENDBRANCH   7   8
ENDBRANCH   1   7
BRANCH   4  19
HETATM   19  C   UNL     1     -35.055  41.576 -57.121  1.00  0.00     0.127 C 
BRANCH  19  20
HETATM   20  N   UNL     1     -34.546  41.911 -55.789  1.00  0.00    -0.376 N 
HETATM   21  H   UNL     1     -34.449  42.907 -55.606  1.00  0.00     0.161 HD
BRANCH  20  22
HETATM   22  C   UNL     1     -33.603  41.083 -55.190  1.00  0.00     0.100 A 
HETATM   23  N   UNL     1     -33.662  40.896 -53.859  1.00  0.00    -0.353 N 
HETATM   24  H   UNL     1     -34.398  41.365 -53.338  1.00  0.00     0.166 HD
HETATM   25  C   UNL     1     -32.810  40.114 -53.175  1.00  0.00     0.089 A 
HETATM   26  C   UNL     1     -31.806  39.431 -53.840  1.00  0.00     0.017 A 
HETATM   27  C   UNL     1     -31.712  39.559 -55.218  1.00  0.00     0.005 A 
HETATM   28  C   UNL     1     -32.615  40.378 -55.895  1.00  0.00     0.048 A 
ENDBRANCH  20  22
ENDBRANCH  19  20
ENDBRANCH   4  19
TORSDOF 7
ENDMDL
