MODEL 1
REMARK VINA RESULT:      -7.9      0.000      0.000
REMARK  12 active torsions:
REMARK  status: ('A' for Active; 'I' for Inactive)
REMARK    1  A    between atoms: C_2  and  N_3 
REMARK    2  A    between atoms: N_3  and  C_5 
REMARK    3  A    between atoms: N_3  and  C_37 
REMARK    4  A    between atoms: C_5  and  C_6 
REMARK    5  A    between atoms: C_6  and  C_7 
REMARK    6  A    between atoms: C_7  and  N_8 
REMARK    7  A    between atoms: N_8  and  C_9 
REMARK    8  A    between atoms: C_9  and  N_10 
REMARK    9  A    between atoms: N_10  and  C_11 
REMARK   10  A    between atoms: N_10  and  C_26 
REMARK   11  A    between atoms: C_11  and  C_12 
REMARK   12  A    between atoms: C_26  and  C_27 
ROOT
HETATM    1  N   UNL     1     -41.844  55.300 -52.002  1.00  0.00    -0.350 N 
ENDROOT
BRANCH   1   2
HETATM    2  C   UNL     1     -41.842  55.824 -50.695  1.00  0.00     0.170 C 
HETATM    3  S   UNL     1     -41.353  54.980 -49.324  1.00  0.00    -0.041 SA
BRANCH   2   4
HETATM    4  N   UNL     1     -42.248  57.148 -50.619  1.00  0.00    -0.367 N 
HETATM    5  H   UNL     1     -42.809  57.387 -49.810  1.00  0.00     0.161 HD
BRANCH   4   6
HETATM    6  C   UNL     1     -41.618  58.262 -51.310  1.00  0.00     0.123 C 
BRANCH   6   7
HETATM    7  C   UNL     1     -41.759  59.560 -50.521  1.00  0.00     0.047 C 
BRANCH   7   8
HETATM    8  C   UNL     1     -43.054  60.262 -50.902  1.00  0.00     0.236 C 
BRANCH   8   9
HETATM    9  N   UNL     1     -44.124  60.165 -49.824  1.00  0.00    -0.072 N 
HETATM   10  H   UNL     1     -43.781  59.453 -49.165  1.00  0.00     0.279 HD
BRANCH   9  11
HETATM   11  C   UNL     1     -45.469  59.645 -50.311  1.00  0.00     0.230 C 
HETATM   12  C   UNL     1     -45.919  60.358 -51.573  1.00  0.00     0.034 C 
ENDBRANCH   9  11
BRANCH   9  13
HETATM   13  C   UNL     1     -44.315  61.424 -48.993  1.00  0.00     0.230 C 
HETATM   14  C   UNL     1     -45.291  61.201 -47.852  1.00  0.00     0.034 C 
ENDBRANCH   9  13
ENDBRANCH   8   9
ENDBRANCH   7   8
ENDBRANCH   6   7
ENDBRANCH   4   6
ENDBRANCH   2   4
ENDBRANCH   1   2
BRANCH   1  15
HETATM   15  C   UNL     1     -43.069  54.830 -52.677  1.00  0.00     0.169 C 
BRANCH  15  16
HETATM   16  C   UNL     1     -43.382  55.607 -53.930  1.00  0.00     0.029 A 
HETATM   17  C   UNL     1     -44.231  56.826 -53.755  1.00  0.00     0.253 A 
HETATM   18  O   UNL     1     -44.520  57.261 -52.641  1.00  0.00    -0.268 OA
HETATM   19  N   UNL     1     -44.639  57.483 -54.884  1.00  0.00    -0.322 N 
HETATM   20  C   UNL     1     -44.208  57.148 -56.172  1.00  0.00     0.048 A 
HETATM   21  H   UNL     1     -45.264  58.264 -54.748  1.00  0.00     0.169 HD
HETATM   22  C   UNL     1     -43.335  56.051 -56.338  1.00  0.00    -0.006 A 
HETATM   23  C   UNL     1     -44.626  57.918 -57.259  1.00  0.00     0.070 A 
HETATM   24  C   UNL     1     -42.868  55.718 -57.613  1.00  0.00     0.053 A 
HETATM   25  C   UNL     1     -42.953  55.271 -55.160  1.00  0.00     0.028 A 
HETATM   26  C   UNL     1     -43.288  56.497 -58.672  1.00  0.00     0.106 A 
HETATM   27  C   UNL     1     -44.142  57.563 -58.500  1.00  0.00     0.107 A 
HETATM   28  O   UNL     1     -42.933  56.327 -59.973  1.00  0.00    -0.323 OA
HETATM   29  O   UNL     1     -44.423  58.198 -59.668  1.00  0.00    -0.323 OA
HETATM   30  C   UNL     1     -43.671  57.394 -60.605  1.00  0.00     0.352 A 
ENDBRANCH  15  16
ENDBRANCH   1  15
BRANCH   1  31
HETATM   31  C   UNL     1     -40.580  54.951 -52.688  1.00  0.00     0.164 C 
BRANCH  31  32
HETATM   32  C   UNL     1     -40.355  53.468 -52.883  1.00  0.00    -0.037 A 
HETATM   33  C   UNL     1     -40.028  52.633 -51.801  1.00  0.00     0.048 A 
HETATM   34  C   UNL     1     -39.823  51.290 -52.046  1.00  0.00     0.105 A 
HETATM   35  C   UNL     1     -39.916  50.758 -53.309  1.00  0.00     0.105 A 
HETATM   36  O   UNL     1     -39.511  50.353 -51.112  1.00  0.00    -0.323 OA
HETATM   37  O   UNL     1     -39.671  49.421 -53.331  1.00  0.00    -0.323 OA
HETATM   38  C   UNL     1     -40.217  51.539 -54.400  1.00  0.00     0.040 A 
HETATM   39  C   UNL     1     -39.393  49.174 -51.938  1.00  0.00     0.352 A 
HETATM   40  C   UNL     1     -40.435  52.903 -54.180  1.00  0.00     0.012 A 
ENDBRANCH  31  32
ENDBRANCH   1  31
TORSDOF 12
ENDMDL
MODEL 2
REMARK VINA RESULT:      -7.9      1.920      2.770
REMARK  12 active torsions:
REMARK  status: ('A' for Active; 'I' for Inactive)
REMARK    1  A    between atoms: C_2  and  N_3 
REMARK    2  A    between atoms: N_3  and  C_5 
REMARK    3  A    between atoms: N_3  and  C_37 
REMARK    4  A    between atoms: C_5  and  C_6 
REMARK    5  A    between atoms: C_6  and  C_7 
REMARK    6  A    between atoms: C_7  and  N_8 
REMARK    7  A    between atoms: N_8  and  C_9 
REMARK    8  A    between atoms: C_9  and  N_10 
REMARK    9  A    between atoms: N_10  and  C_11 
REMARK   10  A    between atoms: N_10  and  C_26 
REMARK   11  A    between atoms: C_11  and  C_12 
REMARK   12  A    between atoms: C_26  and  C_27 
ROOT
HETATM    1  N   UNL     1     -42.167  55.516 -52.774  1.00  0.00    -0.350 N 
ENDROOT
BRANCH   1   2
HETATM    2  C   UNL     1     -42.418  56.061 -51.499  1.00  0.00     0.170 C 
HETATM    3  S   UNL     1     -41.247  56.318 -50.319  1.00  0.00    -0.041 SA
BRANCH   2   4
HETATM    4  N   UNL     1     -43.740  56.424 -51.293  1.00  0.00    -0.367 N 
HETATM    5  H   UNL     1     -44.322  55.722 -50.850  1.00  0.00     0.161 HD
BRANCH   4   6
HETATM    6  C   UNL     1     -44.241  57.788 -51.246  1.00  0.00     0.123 C 
BRANCH   6   7
HETATM    7  C   UNL     1     -44.990  58.153 -52.524  1.00  0.00     0.047 C 
BRANCH   7   8
HETATM    8  C   UNL     1     -44.290  59.309 -53.224  1.00  0.00     0.236 C 
BRANCH   8   9
HETATM    9  N   UNL     1     -43.008  59.741 -52.527  1.00  0.00    -0.072 N 
HETATM   10  H   UNL     1     -42.760  58.958 -51.907  1.00  0.00     0.279 HD
BRANCH   9  11
HETATM   11  C   UNL     1     -43.160  60.947 -51.611  1.00  0.00     0.230 C 
HETATM   12  C   UNL     1     -42.243  60.851 -50.406  1.00  0.00     0.034 C 
ENDBRANCH   9  11
BRANCH   9  13
HETATM   13  C   UNL     1     -41.809  59.923 -53.444  1.00  0.00     0.230 C 
HETATM   14  C   UNL     1     -40.725  58.899 -53.159  1.00  0.00     0.034 C 
ENDBRANCH   9  13
ENDBRANCH   8   9
ENDBRANCH   7   8
ENDBRANCH   6   7
ENDBRANCH   4   6
ENDBRANCH   2   4
ENDBRANCH   1   2
BRANCH   1  15
HETATM   15  C   UNL     1     -43.239  55.044 -53.670  1.00  0.00     0.169 C 
BRANCH  15  16
HETATM   16  C   UNL     1     -43.127  55.604 -55.064  1.00  0.00     0.029 A 
HETATM   17  C   UNL     1     -43.332  54.634 -56.183  1.00  0.00     0.253 A 
HETATM   18  O   UNL     1     -43.729  53.487 -55.983  1.00  0.00    -0.268 OA
HETATM   19  N   UNL     1     -43.113  55.079 -57.459  1.00  0.00    -0.322 N 
HETATM   20  C   UNL     1     -42.828  56.412 -57.775  1.00  0.00     0.048 A 
HETATM   21  H   UNL     1     -43.193  54.392 -58.194  1.00  0.00     0.169 HD
HETATM   22  C   UNL     1     -42.719  57.354 -56.728  1.00  0.00    -0.006 A 
HETATM   23  C   UNL     1     -42.684  56.787 -59.111  1.00  0.00     0.070 A 
HETATM   24  C   UNL     1     -42.465  58.697 -57.024  1.00  0.00     0.053 A 
HETATM   25  C   UNL     1     -42.857  56.892 -55.347  1.00  0.00     0.028 A 
HETATM   26  C   UNL     1     -42.334  59.046 -58.353  1.00  0.00     0.106 A 
HETATM   27  C   UNL     1     -42.440  58.119 -59.365  1.00  0.00     0.107 A 
HETATM   28  O   UNL     1     -42.095  60.298 -58.825  1.00  0.00    -0.323 OA
HETATM   29  O   UNL     1     -42.286  58.674 -60.596  1.00  0.00    -0.323 OA
HETATM   30  C   UNL     1     -42.043  60.055 -60.247  1.00  0.00     0.352 A 
ENDBRANCH  15  16
ENDBRANCH   1  15
BRANCH   1  31
HETATM   31  C   UNL     1     -40.796  55.150 -53.192  1.00  0.00     0.164 C 
BRANCH  31  32
HETATM   32  C   UNL     1     -40.489  53.670 -53.123  1.00  0.00    -0.037 A 
HETATM   33  C   UNL     1     -40.267  53.030 -51.891  1.00  0.00     0.048 A 
HETATM   34  C   UNL     1     -39.978  51.680 -51.895  1.00  0.00     0.105 A 
HETATM   35  C   UNL     1     -39.890  50.958 -53.061  1.00  0.00     0.105 A 
HETATM   36  O   UNL     1     -39.748  50.916 -50.794  1.00  0.00    -0.323 OA
HETATM   37  O   UNL     1     -39.591  49.650 -52.842  1.00  0.00    -0.323 OA
HETATM   38  C   UNL     1     -40.084  51.545 -54.289  1.00  0.00     0.040 A 
HETATM   39  C   UNL     1     -39.480  49.634 -51.405  1.00  0.00     0.352 A 
HETATM   40  C   UNL     1     -40.382  52.911 -54.314  1.00  0.00     0.012 A 
ENDBRANCH  31  32
ENDBRANCH   1  31
TORSDOF 12
ENDMDL
MODEL 3
REMARK VINA RESULT:      -7.9      3.123      8.635
REMARK  12 active torsions:
REMARK  status: ('A' for Active; 'I' for Inactive)
REMARK    1  A    between atoms: C_2  and  N_3 
REMARK    2  A    between atoms: N_3  and  C_5 
REMARK    3  A    between atoms: N_3  and  C_37 
REMARK    4  A    between atoms: C_5  and  C_6 
REMARK    5  A    between atoms: C_6  and  C_7 
REMARK    6  A    between atoms: C_7  and  N_8 
REMARK    7  A    between atoms: N_8  and  C_9 
REMARK    8  A    between atoms: C_9  and  N_10 
REMARK    9  A    between atoms: N_10  and  C_11 
REMARK   10  A    between atoms: N_10  and  C_26 
REMARK   11  A    between atoms: C_11  and  C_12 
REMARK   12  A    between atoms: C_26  and  C_27 
ROOT
HETATM    1  N   UNL     1     -42.589  57.557 -54.706  1.00  0.00    -0.350 N 
ENDROOT
BRANCH   1   2
HETATM    2  C   UNL     1     -42.446  57.814 -56.083  1.00  0.00     0.170 C 
HETATM    3  S   UNL     1     -42.586  59.332 -56.795  1.00  0.00    -0.041 SA
BRANCH   2   4
HETATM    4  N   UNL     1     -42.127  56.693 -56.835  1.00  0.00    -0.367 N 
HETATM    5  H   UNL     1     -41.206  56.304 -56.671  1.00  0.00     0.161 HD
BRANCH   4   6
HETATM    6  C   UNL     1     -43.088  55.808 -57.474  1.00  0.00     0.123 C 
BRANCH   6   7
HETATM    7  C   UNL     1     -43.028  55.922 -58.994  1.00  0.00     0.047 C 
BRANCH   7   8
HETATM    8  C   UNL     1     -44.013  56.978 -59.475  1.00  0.00     0.236 C 
BRANCH   8   9
HETATM    9  N   UNL     1     -45.461  56.625 -59.170  1.00  0.00    -0.072 N 
HETATM   10  H   UNL     1     -45.420  55.977 -58.371  1.00  0.00     0.279 HD
BRANCH   9  11
HETATM   11  C   UNL     1     -46.173  55.857 -60.274  1.00  0.00     0.230 C 
HETATM   12  C   UNL     1     -45.186  55.199 -61.221  1.00  0.00     0.034 C 
ENDBRANCH   9  11
BRANCH   9  13
HETATM   13  C   UNL     1     -46.321  57.788 -58.699  1.00  0.00     0.230 C 
HETATM   14  C   UNL     1     -46.102  58.088 -57.228  1.00  0.00     0.034 C 
ENDBRANCH   9  13
ENDBRANCH   8   9
ENDBRANCH   7   8
ENDBRANCH   6   7
ENDBRANCH   4   6
ENDBRANCH   2   4
ENDBRANCH   1   2
BRANCH   1  15
HETATM   15  C   UNL     1     -41.447  57.529 -53.772  1.00  0.00     0.169 C 
BRANCH  15  16
HETATM   16  C   UNL     1     -41.145  56.145 -53.257  1.00  0.00     0.029 A 
HETATM   17  C   UNL     1     -41.184  55.971 -51.772  1.00  0.00     0.253 A 
HETATM   18  O   UNL     1     -41.594  56.858 -51.025  1.00  0.00    -0.268 OA
HETATM   19  N   UNL     1     -40.792  54.763 -51.263  1.00  0.00    -0.322 N 
HETATM   20  C   UNL     1     -40.478  53.654 -52.058  1.00  0.00     0.048 A 
HETATM   21  H   UNL     1     -40.762  54.687 -50.257  1.00  0.00     0.169 HD
HETATM   22  C   UNL     1     -40.525  53.785 -53.463  1.00  0.00    -0.006 A 
HETATM   23  C   UNL     1     -40.152  52.442 -51.449  1.00  0.00     0.070 A 
HETATM   24  C   UNL     1     -40.244  52.682 -54.275  1.00  0.00     0.053 A 
HETATM   25  C   UNL     1     -40.850  55.091 -54.039  1.00  0.00     0.028 A 
HETATM   26  C   UNL     1     -39.932  51.492 -53.652  1.00  0.00     0.106 A 
HETATM   27  C   UNL     1     -39.886  51.375 -52.281  1.00  0.00     0.107 A 
HETATM   28  O   UNL     1     -39.640  50.320 -54.277  1.00  0.00    -0.323 OA
HETATM   29  O   UNL     1     -39.567  50.118 -51.876  1.00  0.00    -0.323 OA
HETATM   30  C   UNL     1     -39.387  49.457 -53.148  1.00  0.00     0.352 A 
ENDBRANCH  15  16
ENDBRANCH   1  15
BRANCH   1  31
HETATM   31  C   UNL     1     -43.863  57.048 -54.152  1.00  0.00     0.164 C 
BRANCH  31  32
HETATM   32  C   UNL     1     -44.573  58.005 -53.220  1.00  0.00    -0.037 A 
HETATM   33  C   UNL     1     -45.052  59.244 -53.678  1.00  0.00     0.048 A 
HETATM   34  C   UNL     1     -45.681  60.080 -52.775  1.00  0.00     0.105 A 
HETATM   35  C   UNL     1     -45.835  59.739 -51.454  1.00  0.00     0.105 A 
HETATM   36  O   UNL     1     -46.206  61.301 -53.059  1.00  0.00    -0.323 OA
HETATM   37  O   UNL     1     -46.473  60.702 -50.738  1.00  0.00    -0.323 OA
HETATM   38  C   UNL     1     -45.368  58.544 -50.958  1.00  0.00     0.040 A 
HETATM   39  C   UNL     1     -46.686  61.700 -51.757  1.00  0.00     0.352 A 
HETATM   40  C   UNL     1     -44.731  57.677 -51.851  1.00  0.00     0.012 A 
ENDBRANCH  31  32
ENDBRANCH   1  31
TORSDOF 12
ENDMDL
MODEL 4
REMARK VINA RESULT:      -7.8      2.984      8.008
REMARK  12 active torsions:
REMARK  status: ('A' for Active; 'I' for Inactive)
REMARK    1  A    between atoms: C_2  and  N_3 
REMARK    2  A    between atoms: N_3  and  C_5 
REMARK    3  A    between atoms: N_3  and  C_37 
REMARK    4  A    between atoms: C_5  and  C_6 
REMARK    5  A    between atoms: C_6  and  C_7 
REMARK    6  A    between atoms: C_7  and  N_8 
REMARK    7  A    between atoms: N_8  and  C_9 
REMARK    8  A    between atoms: C_9  and  N_10 
REMARK    9  A    between atoms: N_10  and  C_11 
REMARK   10  A    between atoms: N_10  and  C_26 
REMARK   11  A    between atoms: C_11  and  C_12 
REMARK   12  A    between atoms: C_26  and  C_27 
ROOT
HETATM    1  N   UNL     1     -44.233  58.266 -54.857  1.00  0.00    -0.350 N 
ENDROOT
BRANCH   1   2
HETATM    2  C   UNL     1     -44.027  58.035 -56.231  1.00  0.00     0.170 C 
HETATM    3  S   UNL     1     -42.568  58.268 -57.035  1.00  0.00    -0.041 SA
BRANCH   2   4
HETATM    4  N   UNL     1     -45.143  57.543 -56.892  1.00  0.00    -0.367 N 
HETATM    5  H   UNL     1     -45.267  56.538 -56.850  1.00  0.00     0.161 HD
BRANCH   4   6
HETATM    6  C   UNL     1     -46.322  58.317 -57.243  1.00  0.00     0.123 C 
BRANCH   6   7
HETATM    7  C   UNL     1     -46.678  58.156 -58.717  1.00  0.00     0.047 C 
BRANCH   7   8
HETATM    8  C   UNL     1     -45.843  57.044 -59.335  1.00  0.00     0.236 C 
BRANCH   8   9
HETATM    9  N   UNL     1     -44.869  57.546 -60.391  1.00  0.00    -0.072 N 
HETATM   10  H   UNL     1     -45.305  57.313 -61.294  1.00  0.00     0.279 HD
BRANCH   9  11
HETATM   11  C   UNL     1     -43.523  56.837 -60.400  1.00  0.00     0.230 C 
HETATM   12  C   UNL     1     -43.569  55.541 -59.611  1.00  0.00     0.034 C 
ENDBRANCH   9  11
BRANCH   9  13
HETATM   13  C   UNL     1     -44.671  59.053 -60.417  1.00  0.00     0.230 C 
HETATM   14  C   UNL     1     -43.230  59.424 -60.718  1.00  0.00     0.034 C 
ENDBRANCH   9  13
ENDBRANCH   8   9
ENDBRANCH   7   8
ENDBRANCH   6   7
ENDBRANCH   4   6
ENDBRANCH   2   4
ENDBRANCH   1   2
BRANCH   1  15
HETATM   15  C   UNL     1     -44.850  57.271 -53.959  1.00  0.00     0.169 C 
BRANCH  15  16
HETATM   16  C   UNL     1     -43.869  56.238 -53.468  1.00  0.00     0.029 A 
HETATM   17  C   UNL     1     -43.547  56.276 -52.008  1.00  0.00     0.253 A 
HETATM   18  O   UNL     1     -44.165  56.997 -51.226  1.00  0.00    -0.268 OA
HETATM   19  N   UNL     1     -42.567  55.437 -51.550  1.00  0.00    -0.322 N 
HETATM   20  C   UNL     1     -41.944  54.470 -52.347  1.00  0.00     0.048 A 
HETATM   21  H   UNL     1     -42.320  55.524 -50.576  1.00  0.00     0.169 HD
HETATM   22  C   UNL     1     -42.305  54.368 -53.708  1.00  0.00    -0.006 A 
HETATM   23  C   UNL     1     -41.001  53.613 -51.777  1.00  0.00     0.070 A 
HETATM   24  C   UNL     1     -41.716  53.389 -54.514  1.00  0.00     0.053 A 
HETATM   25  C   UNL     1     -43.283  55.312 -54.250  1.00  0.00     0.028 A 
HETATM   26  C   UNL     1     -40.793  52.548 -53.928  1.00  0.00     0.106 A 
HETATM   27  C   UNL     1     -40.445  52.657 -52.600  1.00  0.00     0.107 A 
HETATM   28  O   UNL     1     -40.128  51.539 -54.552  1.00  0.00    -0.323 OA
HETATM   29  O   UNL     1     -39.526  51.729 -52.225  1.00  0.00    -0.323 OA
HETATM   30  C   UNL     1     -39.310  51.036 -53.474  1.00  0.00     0.352 A 
ENDBRANCH  15  16
ENDBRANCH   1  15
BRANCH   1  31
HETATM   31  C   UNL     1     -44.075  59.618 -54.277  1.00  0.00     0.164 C 
BRANCH  31  32
HETATM   32  C   UNL     1     -43.074  59.706 -53.145  1.00  0.00    -0.037 A 
HETATM   33  C   UNL     1     -41.738  59.310 -53.324  1.00  0.00     0.048 A 
HETATM   34  C   UNL     1     -40.876  59.402 -52.248  1.00  0.00     0.105 A 
HETATM   35  C   UNL     1     -41.292  59.854 -51.019  1.00  0.00     0.105 A 
HETATM   36  O   UNL     1     -39.558  59.070 -52.258  1.00  0.00    -0.323 OA
HETATM   37  O   UNL     1     -40.291  59.860 -50.100  1.00  0.00    -0.323 OA
HETATM   38  C   UNL     1     -42.593  60.237 -50.795  1.00  0.00     0.040 A 
HETATM   39  C   UNL     1     -39.199  59.341 -50.886  1.00  0.00     0.352 A 
HETATM   40  C   UNL     1     -43.487  60.158 -51.867  1.00  0.00     0.012 A 
ENDBRANCH  31  32
ENDBRANCH   1  31
TORSDOF 12
ENDMDL
MODEL 5
REMARK VINA RESULT:      -7.7      2.662      8.552
REMARK  12 active torsions:
REMARK  status: ('A' for Active; 'I' for Inactive)
REMARK    1  A    between atoms: C_2  and  N_3 
REMARK    2  A    between atoms: N_3  and  C_5 
REMARK    3  A    between atoms: N_3  and  C_37 
REMARK    4  A    between atoms: C_5  and  C_6 
REMARK    5  A    between atoms: C_6  and  C_7 
REMARK    6  A    between atoms: C_7  and  N_8 
REMARK    7  A    between atoms: N_8  and  C_9 
REMARK    8  A    between atoms: C_9  and  N_10 
REMARK    9  A    between atoms: N_10  and  C_11 
REMARK   10  A    between atoms: N_10  and  C_26 
REMARK   11  A    between atoms: C_11  and  C_12 
REMARK   12  A    between atoms: C_26  and  C_27 
ROOT
HETATM    1  N   UNL     1     -41.788  57.269 -51.380  1.00  0.00    -0.350 N 
ENDROOT
BRANCH   1   2
HETATM    2  C   UNL     1     -43.059  57.028 -51.936  1.00  0.00     0.170 C 
HETATM    3  S   UNL     1     -44.502  57.047 -51.072  1.00  0.00    -0.041 SA
BRANCH   2   4
HETATM    4  N   UNL     1     -43.042  56.809 -53.305  1.00  0.00    -0.367 N 
HETATM    5  H   UNL     1     -42.440  57.426 -53.839  1.00  0.00     0.161 HD
BRANCH   4   6
HETATM    6  C   UNL     1     -43.433  55.573 -53.964  1.00  0.00     0.123 C 
BRANCH   6   7
HETATM    7  C   UNL     1     -42.492  55.232 -55.116  1.00  0.00     0.047 C 
BRANCH   7   8
HETATM    8  C   UNL     1     -43.170  55.529 -56.446  1.00  0.00     0.236 C 
BRANCH   8   9
HETATM    9  N   UNL     1     -42.400  56.528 -57.297  1.00  0.00    -0.072 N 
HETATM   10  H   UNL     1     -41.410  56.269 -57.191  1.00  0.00     0.279 HD
BRANCH   9  11
HETATM   11  C   UNL     1     -42.491  57.970 -56.820  1.00  0.00     0.230 C 
HETATM   12  C   UNL     1     -43.926  58.377 -56.541  1.00  0.00     0.034 C 
ENDBRANCH   9  11
BRANCH   9  13
HETATM   13  C   UNL     1     -42.678  56.449 -58.790  1.00  0.00     0.230 C 
HETATM   14  C   UNL     1     -43.740  55.413 -59.109  1.00  0.00     0.034 C 
ENDBRANCH   9  13
ENDBRANCH   8   9
ENDBRANCH   7   8
ENDBRANCH   6   7
ENDBRANCH   4   6
ENDBRANCH   2   4
ENDBRANCH   1   2
BRANCH   1  15
HETATM   15  C   UNL     1     -41.259  56.511 -50.229  1.00  0.00     0.169 C 
BRANCH  15  16
HETATM   16  C   UNL     1     -40.937  55.079 -50.568  1.00  0.00     0.029 A 
HETATM   17  C   UNL     1     -40.774  54.147 -49.410  1.00  0.00     0.253 A 
HETATM   18  O   UNL     1     -41.046  54.488 -48.260  1.00  0.00    -0.268 OA
HETATM   19  N   UNL     1     -40.358  52.871 -49.675  1.00  0.00    -0.322 N 
HETATM   20  C   UNL     1     -40.196  52.363 -50.969  1.00  0.00     0.048 A 
HETATM   21  H   UNL     1     -40.191  52.278 -48.875  1.00  0.00     0.169 HD
HETATM   22  C   UNL     1     -40.433  53.213 -52.072  1.00  0.00    -0.006 A 
HETATM   23  C   UNL     1     -39.830  51.027 -51.143  1.00  0.00     0.070 A 
HETATM   24  C   UNL     1     -40.306  52.717 -53.373  1.00  0.00     0.053 A 
HETATM   25  C   UNL     1     -40.790  54.609 -51.821  1.00  0.00     0.028 A 
HETATM   26  C   UNL     1     -39.951  51.391 -53.521  1.00  0.00     0.106 A 
HETATM   27  C   UNL     1     -39.720  50.572 -52.439  1.00  0.00     0.107 A 
HETATM   28  O   UNL     1     -39.789  50.740 -54.703  1.00  0.00    -0.323 OA
HETATM   29  O   UNL     1     -39.391  49.306 -52.807  1.00  0.00    -0.323 OA
HETATM   30  C   UNL     1     -39.413  49.423 -54.246  1.00  0.00     0.352 A 
ENDBRANCH  15  16
ENDBRANCH   1  15
BRANCH   1  31
HETATM   31  C   UNL     1     -41.003  58.467 -51.753  1.00  0.00     0.164 C 
BRANCH  31  32
HETATM   32  C   UNL     1     -41.800  59.752 -51.805  1.00  0.00    -0.037 A 
HETATM   33  C   UNL     1     -42.163  60.333 -53.032  1.00  0.00     0.048 A 
HETATM   34  C   UNL     1     -42.879  61.514 -53.012  1.00  0.00     0.105 A 
HETATM   35  C   UNL     1     -43.228  62.134 -51.837  1.00  0.00     0.105 A 
HETATM   36  O   UNL     1     -43.313  62.195 -54.106  1.00  0.00    -0.323 OA
HETATM   37  O   UNL     1     -43.923  63.285 -52.042  1.00  0.00    -0.323 OA
HETATM   38  C   UNL     1     -42.880  61.610 -50.615  1.00  0.00     0.040 A 
HETATM   39  C   UNL     1     -43.954  63.330 -53.482  1.00  0.00     0.352 A 
HETATM   40  C   UNL     1     -42.158  60.413 -50.604  1.00  0.00     0.012 A 
ENDBRANCH  31  32
ENDBRANCH   1  31
TORSDOF 12
ENDMDL
MODEL 6
REMARK VINA RESULT:      -7.7      3.379      8.555
REMARK  12 active torsions:
REMARK  status: ('A' for Active; 'I' for Inactive)
REMARK    1  A    between atoms: C_2  and  N_3 
REMARK    2  A    between atoms: N_3  and  C_5 
REMARK    3  A    between atoms: N_3  and  C_37 
REMARK    4  A    between atoms: C_5  and  C_6 
REMARK    5  A    between atoms: C_6  and  C_7 
REMARK    6  A    between atoms: C_7  and  N_8 
REMARK    7  A    between atoms: N_8  and  C_9 
REMARK    8  A    between atoms: C_9  and  N_10 
REMARK    9  A    between atoms: N_10  and  C_11 
REMARK   10  A    between atoms: N_10  and  C_26 
REMARK   11  A    between atoms: C_11  and  C_12 
REMARK   12  A    between atoms: C_26  and  C_27 
ROOT
HETATM    1  N   UNL     1     -43.809  57.690 -55.365  1.00  0.00    -0.350 N 
ENDROOT
BRANCH   1   2
HETATM    2  C   UNL     1     -43.459  57.592 -56.726  1.00  0.00     0.170 C 
HETATM    3  S   UNL     1     -42.464  58.676 -57.542  1.00  0.00    -0.041 SA
BRANCH   2   4
HETATM    4  N   UNL     1     -43.978  56.473 -57.360  1.00  0.00    -0.367 N 
HETATM    5  H   UNL     1     -44.985  56.368 -57.308  1.00  0.00     0.161 HD
BRANCH   4   6
HETATM    6  C   UNL     1     -43.312  55.715 -58.408  1.00  0.00     0.123 C 
BRANCH   6   7
HETATM    7  C   UNL     1     -44.193  55.580 -59.646  1.00  0.00     0.047 C 
BRANCH   7   8
HETATM    8  C   UNL     1     -44.035  56.807 -60.533  1.00  0.00     0.236 C 
BRANCH   8   9
HETATM    9  N   UNL     1     -45.298  57.651 -60.614  1.00  0.00    -0.072 N 
HETATM   10  H   UNL     1     -45.507  57.730 -61.619  1.00  0.00     0.279 HD
BRANCH   9  11
HETATM   11  C   UNL     1     -45.136  59.082 -60.124  1.00  0.00     0.230 C 
HETATM   12  C   UNL     1     -44.110  59.842 -60.945  1.00  0.00     0.034 C 
ENDBRANCH   9  11
BRANCH   9  13
HETATM   13  C   UNL     1     -46.534  57.018 -59.995  1.00  0.00     0.230 C 
HETATM   14  C   UNL     1     -47.451  56.428 -61.050  1.00  0.00     0.034 C 
ENDBRANCH   9  13
ENDBRANCH   8   9
ENDBRANCH   7   8
ENDBRANCH   6   7
ENDBRANCH   4   6
ENDBRANCH   2   4
ENDBRANCH   1   2
BRANCH   1  15
HETATM   15  C   UNL     1     -44.537  56.629 -54.645  1.00  0.00     0.169 C 
BRANCH  15  16
HETATM   16  C   UNL     1     -43.652  55.838 -53.716  1.00  0.00     0.029 A 
HETATM   17  C   UNL     1     -43.044  54.596 -54.284  1.00  0.00     0.253 A 
HETATM   18  O   UNL     1     -43.126  54.321 -55.480  1.00  0.00    -0.268 OA
HETATM   19  N   UNL     1     -42.338  53.787 -53.434  1.00  0.00    -0.322 N 
HETATM   20  C   UNL     1     -42.057  54.122 -52.104  1.00  0.00     0.048 A 
HETATM   21  H   UNL     1     -41.992  52.922 -53.821  1.00  0.00     0.169 HD
HETATM   22  C   UNL     1     -42.555  55.337 -51.585  1.00  0.00    -0.006 A 
HETATM   23  C   UNL     1     -41.274  53.264 -51.331  1.00  0.00     0.070 A 
HETATM   24  C   UNL     1     -42.260  55.704 -50.268  1.00  0.00     0.053 A 
HETATM   25  C   UNL     1     -43.390  56.179 -52.441  1.00  0.00     0.028 A 
HETATM   26  C   UNL     1     -41.478  54.845 -49.524  1.00  0.00     0.106 A 
HETATM   27  C   UNL     1     -41.000  53.661 -50.039  1.00  0.00     0.107 A 
HETATM   28  O   UNL     1     -41.087  55.040 -48.237  1.00  0.00    -0.323 OA
HETATM   29  O   UNL     1     -40.246  52.971 -49.144  1.00  0.00    -0.323 OA
HETATM   30  C   UNL     1     -40.324  53.840 -47.992  1.00  0.00     0.352 A 
ENDBRANCH  15  16
ENDBRANCH   1  15
BRANCH   1  31
HETATM   31  C   UNL     1     -43.691  58.973 -54.637  1.00  0.00     0.164 C 
BRANCH  31  32
HETATM   32  C   UNL     1     -42.551  59.032 -53.643  1.00  0.00    -0.037 A 
HETATM   33  C   UNL     1     -42.736  59.566 -52.356  1.00  0.00     0.048 A 
HETATM   34  C   UNL     1     -41.653  59.604 -51.500  1.00  0.00     0.105 A 
HETATM   35  C   UNL     1     -40.412  59.152 -51.875  1.00  0.00     0.105 A 
HETATM   36  O   UNL     1     -41.668  60.078 -50.225  1.00  0.00    -0.323 OA
HETATM   37  O   UNL     1     -39.488  59.287 -50.888  1.00  0.00    -0.323 OA
HETATM   38  C   UNL     1     -40.181  58.638 -53.129  1.00  0.00     0.040 A 
HETATM   39  C   UNL     1     -40.285  59.894 -49.852  1.00  0.00     0.352 A 
HETATM   40  C   UNL     1     -41.261  58.583 -54.016  1.00  0.00     0.012 A 
ENDBRANCH  31  32
ENDBRANCH   1  31
TORSDOF 12
ENDMDL
MODEL 7
REMARK VINA RESULT:      -7.6      3.003      6.831
REMARK  12 active torsions:
REMARK  status: ('A' for Active; 'I' for Inactive)
REMARK    1  A    between atoms: C_2  and  N_3 
REMARK    2  A    between atoms: N_3  and  C_5 
REMARK    3  A    between atoms: N_3  and  C_37 
REMARK    4  A    between atoms: C_5  and  C_6 
REMARK    5  A    between atoms: C_6  and  C_7 
REMARK    6  A    between atoms: C_7  and  N_8 
REMARK    7  A    between atoms: N_8  and  C_9 
REMARK    8  A    between atoms: C_9  and  N_10 
REMARK    9  A    between atoms: N_10  and  C_11 
REMARK   10  A    between atoms: N_10  and  C_26 
REMARK   11  A    between atoms: C_11  and  C_12 
REMARK   12  A    between atoms: C_26  and  C_27 
ROOT
HETATM    1  N   UNL     1     -42.382  56.062 -54.709  1.00  0.00    -0.350 N 
ENDROOT
BRANCH   1   2
HETATM    2  C   UNL     1     -42.364  56.705 -55.962  1.00  0.00     0.170 C 
HETATM    3  S   UNL     1     -42.433  58.371 -56.186  1.00  0.00    -0.041 SA
BRANCH   2   4
HETATM    4  N   UNL     1     -42.237  55.839 -57.037  1.00  0.00    -0.367 N 
HETATM    5  H   UNL     1     -41.503  55.145 -56.955  1.00  0.00     0.161 HD
BRANCH   4   6
HETATM    6  C   UNL     1     -43.274  55.557 -58.017  1.00  0.00     0.123 C 
BRANCH   6   7
HETATM    7  C   UNL     1     -42.945  56.176 -59.372  1.00  0.00     0.047 C 
BRANCH   7   8
HETATM    8  C   UNL     1     -44.119  55.997 -60.324  1.00  0.00     0.236 C 
BRANCH   8   9
HETATM    9  N   UNL     1     -44.866  57.294 -60.599  1.00  0.00    -0.072 N 
HETATM   10  H   UNL     1     -44.769  57.454 -61.611  1.00  0.00     0.279 HD
BRANCH   9  11
HETATM   11  C   UNL     1     -44.263  58.525 -59.938  1.00  0.00     0.230 C 
HETATM   12  C   UNL     1     -43.993  59.626 -60.949  1.00  0.00     0.034 C 
ENDBRANCH   9  11
BRANCH   9  13
HETATM   13  C   UNL     1     -46.364  57.240 -60.343  1.00  0.00     0.230 C 
HETATM   14  C   UNL     1     -46.697  57.551 -58.895  1.00  0.00     0.034 C 
ENDBRANCH   9  13
ENDBRANCH   8   9
ENDBRANCH   7   8
ENDBRANCH   6   7
ENDBRANCH   4   6
ENDBRANCH   2   4
ENDBRANCH   1   2
BRANCH   1  15
HETATM   15  C   UNL     1     -43.631  55.720 -54.002  1.00  0.00     0.169 C 
BRANCH  15  16
HETATM   16  C   UNL     1     -44.096  56.811 -53.073  1.00  0.00     0.029 A 
HETATM   17  C   UNL     1     -43.927  56.549 -51.610  1.00  0.00     0.253 A 
HETATM   18  O   UNL     1     -43.300  55.576 -51.193  1.00  0.00    -0.268 OA
HETATM   19  N   UNL     1     -44.453  57.462 -50.736  1.00  0.00    -0.322 N 
HETATM   20  C   UNL     1     -45.026  58.674 -51.136  1.00  0.00     0.048 A 
HETATM   21  H   UNL     1     -44.386  57.234 -49.755  1.00  0.00     0.169 HD
HETATM   22  C   UNL     1     -45.110  58.969 -52.514  1.00  0.00    -0.006 A 
HETATM   23  C   UNL     1     -45.478  59.573 -50.169  1.00  0.00     0.070 A 
HETATM   24  C   UNL     1     -45.652  60.188 -52.934  1.00  0.00     0.053 A 
HETATM   25  C   UNL     1     -44.640  57.973 -53.478  1.00  0.00     0.028 A 
HETATM   26  C   UNL     1     -46.084  61.065 -51.960  1.00  0.00     0.106 A 
HETATM   27  C   UNL     1     -46.000  60.766 -50.619  1.00  0.00     0.107 A 
HETATM   28  O   UNL     1     -46.628  62.292 -52.181  1.00  0.00    -0.323 OA
HETATM   29  O   UNL     1     -46.474  61.769 -49.833  1.00  0.00    -0.323 OA
HETATM   30  C   UNL     1     -46.894  62.725 -50.831  1.00  0.00     0.352 A 
ENDBRANCH  15  16
ENDBRANCH   1  15
BRANCH   1  31
HETATM   31  C   UNL     1     -41.148  55.917 -53.906  1.00  0.00     0.164 C 
BRANCH  31  32
HETATM   32  C   UNL     1     -40.738  54.487 -53.631  1.00  0.00    -0.037 A 
HETATM   33  C   UNL     1     -40.570  54.019 -52.316  1.00  0.00     0.048 A 
HETATM   34  C   UNL     1     -40.182  52.707 -52.131  1.00  0.00     0.105 A 
HETATM   35  C   UNL     1     -39.946  51.861 -53.187  1.00  0.00     0.105 A 
HETATM   36  O   UNL     1     -39.987  52.101 -50.929  1.00  0.00    -0.323 OA
HETATM   37  O   UNL     1     -39.569  50.619 -52.786  1.00  0.00    -0.323 OA
HETATM   38  C   UNL     1     -40.083  52.280 -54.490  1.00  0.00     0.040 A 
HETATM   39  C   UNL     1     -39.575  50.783 -51.354  1.00  0.00     0.352 A 
HETATM   40  C   UNL     1     -40.479  53.603 -54.707  1.00  0.00     0.012 A 
ENDBRANCH  31  32
ENDBRANCH   1  31
TORSDOF 12
ENDMDL
MODEL 8
REMARK VINA RESULT:      -7.5      1.728      2.448
REMARK  12 active torsions:
REMARK  status: ('A' for Active; 'I' for Inactive)
REMARK    1  A    between atoms: C_2  and  N_3 
REMARK    2  A    between atoms: N_3  and  C_5 
REMARK    3  A    between atoms: N_3  and  C_37 
REMARK    4  A    between atoms: C_5  and  C_6 
REMARK    5  A    between atoms: C_6  and  C_7 
REMARK    6  A    between atoms: C_7  and  N_8 
REMARK    7  A    between atoms: N_8  and  C_9 
REMARK    8  A    between atoms: C_9  and  N_10 
REMARK    9  A    between atoms: N_10  and  C_11 
REMARK   10  A    between atoms: N_10  and  C_26 
REMARK   11  A    between atoms: C_11  and  C_12 
REMARK   12  A    between atoms: C_26  and  C_27 
ROOT
HETATM    1  N   UNL     1     -41.848  56.914 -52.296  1.00  0.00    -0.350 N 
ENDROOT
BRANCH   1   2
HETATM    2  C   UNL     1     -42.174  57.890 -51.336  1.00  0.00     0.170 C 
HETATM    3  S   UNL     1     -41.064  58.913 -50.592  1.00  0.00    -0.041 SA
BRANCH   2   4
HETATM    4  N   UNL     1     -43.532  57.983 -51.067  1.00  0.00    -0.367 N 
HETATM    5  H   UNL     1     -43.786  57.948 -50.086  1.00  0.00     0.161 HD
BRANCH   4   6
HETATM    6  C   UNL     1     -44.532  58.537 -51.965  1.00  0.00     0.123 C 
BRANCH   6   7
HETATM    7  C   UNL     1     -44.929  59.951 -51.555  1.00  0.00     0.047 C 
BRANCH   7   8
HETATM    8  C   UNL     1     -45.267  59.988 -50.072  1.00  0.00     0.236 C 
BRANCH   8   9
HETATM    9  N   UNL     1     -44.273  60.799 -49.253  1.00  0.00    -0.072 N 
HETATM   10  H   UNL     1     -43.608  60.111 -48.874  1.00  0.00     0.279 HD
BRANCH   9  11
HETATM   11  C   UNL     1     -44.871  61.491 -48.037  1.00  0.00     0.230 C 
HETATM   12  C   UNL     1     -45.735  60.545 -47.224  1.00  0.00     0.034 C 
ENDBRANCH   9  11
BRANCH   9  13
HETATM   13  C   UNL     1     -43.428  61.777 -50.054  1.00  0.00     0.230 C 
HETATM   14  C   UNL     1     -43.853  63.214 -49.813  1.00  0.00     0.034 C 
ENDBRANCH   9  13
ENDBRANCH   8   9
ENDBRANCH   7   8
ENDBRANCH   6   7
ENDBRANCH   4   6
ENDBRANCH   2   4
ENDBRANCH   1   2
BRANCH   1  15
HETATM   15  C   UNL     1     -41.000  57.196 -53.471  1.00  0.00     0.169 C 
BRANCH  15  16
HETATM   16  C   UNL     1     -41.792  57.333 -54.745  1.00  0.00     0.029 A 
HETATM   17  C   UNL     1     -42.369  58.685 -55.020  1.00  0.00     0.253 A 
HETATM   18  O   UNL     1     -42.082  59.665 -54.335  1.00  0.00    -0.268 OA
HETATM   19  N   UNL     1     -43.198  58.814 -56.102  1.00  0.00    -0.322 N 
HETATM   20  C   UNL     1     -43.433  57.787 -57.023  1.00  0.00     0.048 A 
HETATM   21  H   UNL     1     -43.629  59.718 -56.232  1.00  0.00     0.169 HD
HETATM   22  C   UNL     1     -42.820  56.532 -56.819  1.00  0.00    -0.006 A 
HETATM   23  C   UNL     1     -44.243  58.032 -58.133  1.00  0.00     0.070 A 
HETATM   24  C   UNL     1     -43.017  55.502 -57.744  1.00  0.00     0.053 A 
HETATM   25  C   UNL     1     -42.002  56.334 -55.622  1.00  0.00     0.028 A 
HETATM   26  C   UNL     1     -43.815  55.768 -58.837  1.00  0.00     0.106 A 
HETATM   27  C   UNL     1     -44.410  56.995 -59.026  1.00  0.00     0.107 A 
HETATM   28  O   UNL     1     -44.110  54.894 -59.837  1.00  0.00    -0.323 OA
HETATM   29  O   UNL     1     -45.145  57.046 -60.168  1.00  0.00    -0.323 OA
HETATM   30  C   UNL     1     -44.972  55.701 -60.667  1.00  0.00     0.352 A 
ENDBRANCH  15  16
ENDBRANCH   1  15
BRANCH   1  31
HETATM   31  C   UNL     1     -42.541  55.607 -52.325  1.00  0.00     0.164 C 
BRANCH  31  32
HETATM   32  C   UNL     1     -41.623  54.405 -52.333  1.00  0.00    -0.037 A 
HETATM   33  C   UNL     1     -41.568  53.540 -53.439  1.00  0.00     0.048 A 
HETATM   34  C   UNL     1     -40.719  52.452 -53.381  1.00  0.00     0.105 A 
HETATM   35  C   UNL     1     -39.947  52.190 -52.275  1.00  0.00     0.105 A 
HETATM   36  O   UNL     1     -40.542  51.531 -54.365  1.00  0.00    -0.323 OA
HETATM   37  O   UNL     1     -39.190  51.071 -52.421  1.00  0.00    -0.323 OA
HETATM   38  C   UNL     1     -39.981  53.000 -51.164  1.00  0.00     0.040 A 
HETATM   39  C   UNL     1     -39.588  50.645 -53.739  1.00  0.00     0.352 A 
HETATM   40  C   UNL     1     -40.829  54.111 -51.197  1.00  0.00     0.012 A 
ENDBRANCH  31  32
ENDBRANCH   1  31
TORSDOF 12
ENDMDL
MODEL 9
REMARK VINA RESULT:      -7.4      1.889      6.768
REMARK  12 active torsions:
REMARK  status: ('A' for Active; 'I' for Inactive)
REMARK    1  A    between atoms: C_2  and  N_3 
REMARK    2  A    between atoms: N_3  and  C_5 
REMARK    3  A    between atoms: N_3  and  C_37 
REMARK    4  A    between atoms: C_5  and  C_6 
REMARK    5  A    between atoms: C_6  and  C_7 
REMARK    6  A    between atoms: C_7  and  N_8 
REMARK    7  A    between atoms: N_8  and  C_9 
REMARK    8  A    between atoms: C_9  and  N_10 
REMARK    9  A    between atoms: N_10  and  C_11 
REMARK   10  A    between atoms: N_10  and  C_26 
REMARK   11  A    between atoms: C_11  and  C_12 
REMARK   12  A    between atoms: C_26  and  C_27 
ROOT
HETATM    1  N   UNL     1     -44.076  58.195 -54.838  1.00  0.00    -0.350 N 
ENDROOT
BRANCH   1   2
HETATM    2  C   UNL     1     -44.078  59.410 -54.126  1.00  0.00     0.170 C 
HETATM    3  S   UNL     1     -43.080  60.721 -54.467  1.00  0.00    -0.041 SA
BRANCH   2   4
HETATM    4  N   UNL     1     -45.024  59.469 -53.115  1.00  0.00    -0.367 N 
HETATM    5  H   UNL     1     -44.880  58.826 -52.344  1.00  0.00     0.161 HD
BRANCH   4   6
HETATM    6  C   UNL     1     -45.902  60.597 -52.847  1.00  0.00     0.123 C 
BRANCH   6   7
HETATM    7  C   UNL     1     -46.079  60.824 -51.350  1.00  0.00     0.047 C 
BRANCH   7   8
HETATM    8  C   UNL     1     -45.195  59.862 -50.569  1.00  0.00     0.236 C 
BRANCH   8   9
HETATM    9  N   UNL     1     -44.126  60.568 -49.747  1.00  0.00    -0.072 N 
HETATM   10  H   UNL     1     -43.766  59.853 -49.100  1.00  0.00     0.279 HD
BRANCH   9  11
HETATM   11  C   UNL     1     -44.648  61.688 -48.859  1.00  0.00     0.230 C 
HETATM   12  C   UNL     1     -44.833  61.223 -47.425  1.00  0.00     0.034 C 
ENDBRANCH   9  11
BRANCH   9  13
HETATM   13  C   UNL     1     -42.917  61.042 -50.537  1.00  0.00     0.230 C 
HETATM   14  C   UNL     1     -41.727  60.119 -50.349  1.00  0.00     0.034 C 
ENDBRANCH   9  13
ENDBRANCH   8   9
ENDBRANCH   7   8
ENDBRANCH   6   7
ENDBRANCH   4   6
ENDBRANCH   2   4
ENDBRANCH   1   2
BRANCH   1  15
HETATM   15  C   UNL     1     -44.697  56.961 -54.319  1.00  0.00     0.169 C 
BRANCH  15  16
HETATM   16  C   UNL     1     -43.688  55.978 -53.783  1.00  0.00     0.029 A 
HETATM   17  C   UNL     1     -43.223  56.209 -52.381  1.00  0.00     0.253 A 
HETATM   18  O   UNL     1     -43.750  57.049 -51.653  1.00  0.00    -0.268 OA
HETATM   19  N   UNL     1     -42.216  55.413 -51.905  1.00  0.00    -0.322 N 
HETATM   20  C   UNL     1     -41.689  54.327 -52.614  1.00  0.00     0.048 A 
HETATM   21  H   UNL     1     -41.872  55.628 -50.981  1.00  0.00     0.169 HD
HETATM   22  C   UNL     1     -42.185  54.048 -53.906  1.00  0.00    -0.006 A 
HETATM   23  C   UNL     1     -40.708  53.531 -52.022  1.00  0.00     0.070 A 
HETATM   24  C   UNL     1     -41.694  52.950 -54.618  1.00  0.00     0.053 A 
HETATM   25  C   UNL     1     -43.197  54.936 -54.479  1.00  0.00     0.028 A 
HETATM   26  C   UNL     1     -40.730  52.172 -54.011  1.00  0.00     0.106 A 
HETATM   27  C   UNL     1     -40.251  52.455 -52.751  1.00  0.00     0.107 A 
HETATM   28  O   UNL     1     -40.146  51.068 -54.547  1.00  0.00    -0.323 OA
HETATM   29  O   UNL     1     -39.314  51.561 -52.339  1.00  0.00    -0.323 OA
HETATM   30  C   UNL     1     -39.233  50.696 -53.493  1.00  0.00     0.352 A 
ENDBRANCH  15  16
ENDBRANCH   1  15
BRANCH   1  31
HETATM   31  C   UNL     1     -43.231  58.012 -56.038  1.00  0.00     0.164 C 
BRANCH  31  32
HETATM   32  C   UNL     1     -43.966  57.494 -57.255  1.00  0.00    -0.037 A 
HETATM   33  C   UNL     1     -43.478  56.397 -57.986  1.00  0.00     0.048 A 
HETATM   34  C   UNL     1     -44.187  55.979 -59.095  1.00  0.00     0.105 A 
HETATM   35  C   UNL     1     -45.336  56.611 -59.504  1.00  0.00     0.105 A 
HETATM   36  O   UNL     1     -43.857  54.934 -59.899  1.00  0.00    -0.323 OA
HETATM   37  O   UNL     1     -45.873  56.046 -60.618  1.00  0.00    -0.323 OA
HETATM   38  C   UNL     1     -45.841  57.697 -58.829  1.00  0.00     0.040 A 
HETATM   39  C   UNL     1     -44.918  54.997 -60.876  1.00  0.00     0.352 A 
HETATM   40  C   UNL     1     -45.146  58.139 -57.700  1.00  0.00     0.012 A 
ENDBRANCH  31  32
ENDBRANCH   1  31
TORSDOF 12
ENDMDL
MODEL 10
REMARK VINA RESULT:      -7.4      2.864      7.963
REMARK  12 active torsions:
REMARK  status: ('A' for Active; 'I' for Inactive)
REMARK    1  A    between atoms: C_2  and  N_3 
REMARK    2  A    between atoms: N_3  and  C_5 
REMARK    3  A    between atoms: N_3  and  C_37 
REMARK    4  A    between atoms: C_5  and  C_6 
REMARK    5  A    between atoms: C_6  and  C_7 
REMARK    6  A    between atoms: C_7  and  N_8 
REMARK    7  A    between atoms: N_8  and  C_9 
REMARK    8  A    between atoms: C_9  and  N_10 
REMARK    9  A    between atoms: N_10  and  C_11 
REMARK   10  A    between atoms: N_10  and  C_26 
REMARK   11  A    between atoms: C_11  and  C_12 
REMARK   12  A    between atoms: C_26  and  C_27 
ROOT
HETATM    1  N   UNL     1     -43.315  56.007 -56.408  1.00  0.00    -0.350 N 
ENDROOT
BRANCH   1   2
HETATM    2  C   UNL     1     -43.455  57.182 -55.644  1.00  0.00     0.170 C 
HETATM    3  S   UNL     1     -44.790  57.550 -54.687  1.00  0.00    -0.041 SA
BRANCH   2   4
HETATM    4  N   UNL     1     -42.357  58.026 -55.704  1.00  0.00    -0.367 N 
HETATM    5  H   UNL     1     -42.131  58.384 -56.625  1.00  0.00     0.161 HD
BRANCH   4   6
HETATM    6  C   UNL     1     -41.797  58.760 -54.580  1.00  0.00     0.123 C 
BRANCH   6   7
HETATM    7  C   UNL     1     -40.980  57.849 -53.670  1.00  0.00     0.047 C 
BRANCH   7   8
HETATM    8  C   UNL     1     -40.301  58.672 -52.584  1.00  0.00     0.236 C 
BRANCH   8   9
HETATM    9  N   UNL     1     -41.276  59.212 -51.548  1.00  0.00    -0.072 N 
HETATM   10  H   UNL     1     -41.715  60.032 -51.989  1.00  0.00     0.279 HD
BRANCH   9  11
HETATM   11  C   UNL     1     -40.624  59.741 -50.279  1.00  0.00     0.230 C 
HETATM   12  C   UNL     1     -39.109  59.723 -50.381  1.00  0.00     0.034 C 
ENDBRANCH   9  11
BRANCH   9  13
HETATM   13  C   UNL     1     -42.425  58.279 -51.200  1.00  0.00     0.230 C 
HETATM   14  C   UNL     1     -43.768  58.980 -51.304  1.00  0.00     0.034 C 
ENDBRANCH   9  13
ENDBRANCH   8   9
ENDBRANCH   7   8
ENDBRANCH   6   7
ENDBRANCH   4   6
ENDBRANCH   2   4
ENDBRANCH   1   2
BRANCH   1  15
HETATM   15  C   UNL     1     -43.388  54.655 -55.821  1.00  0.00     0.169 C 
BRANCH  15  16
HETATM   16  C   UNL     1     -42.508  54.495 -54.609  1.00  0.00     0.029 A 
HETATM   17  C   UNL     1     -41.072  54.173 -54.874  1.00  0.00     0.253 A 
HETATM   18  O   UNL     1     -40.600  54.199 -56.009  1.00  0.00    -0.268 OA
HETATM   19  N   UNL     1     -40.273  53.896 -53.797  1.00  0.00    -0.322 N 
HETATM   20  C   UNL     1     -40.697  54.017 -52.469  1.00  0.00     0.048 A 
HETATM   21  H   UNL     1     -39.325  53.618 -54.001  1.00  0.00     0.169 HD
HETATM   22  C   UNL     1     -42.029  54.406 -52.208  1.00  0.00    -0.006 A 
HETATM   23  C   UNL     1     -39.792  53.777 -51.434  1.00  0.00     0.070 A 
HETATM   24  C   UNL     1     -42.464  54.562 -50.888  1.00  0.00     0.053 A 
HETATM   25  C   UNL     1     -42.934  54.619 -53.338  1.00  0.00     0.028 A 
HETATM   26  C   UNL     1     -41.550  54.326 -49.882  1.00  0.00     0.106 A 
HETATM   27  C   UNL     1     -40.254  53.945 -50.146  1.00  0.00     0.107 A 
HETATM   28  O   UNL     1     -41.792  54.435 -48.548  1.00  0.00    -0.323 OA
HETATM   29  O   UNL     1     -39.522  53.773 -49.015  1.00  0.00    -0.323 OA
HETATM   30  C   UNL     1     -40.510  54.062 -48.001  1.00  0.00     0.352 A 
ENDBRANCH  15  16
ENDBRANCH   1  15
BRANCH   1  31
HETATM   31  C   UNL     1     -42.834  56.057 -57.806  1.00  0.00     0.164 C 
BRANCH  31  32
HETATM   32  C   UNL     1     -43.927  56.014 -58.852  1.00  0.00    -0.037 A 
HETATM   33  C   UNL     1     -44.877  57.045 -58.953  1.00  0.00     0.048 A 
HETATM   34  C   UNL     1     -45.858  56.941 -59.920  1.00  0.00     0.105 A 
HETATM   35  C   UNL     1     -45.935  55.861 -60.766  1.00  0.00     0.105 A 
HETATM   36  O   UNL     1     -46.840  57.852 -60.153  1.00  0.00    -0.323 OA
HETATM   37  O   UNL     1     -46.975  55.954 -61.635  1.00  0.00    -0.323 OA
HETATM   38  C   UNL     1     -45.037  54.823 -60.692  1.00  0.00     0.040 A 
HETATM   39  C   UNL     1     -47.558  57.207 -61.227  1.00  0.00     0.352 A 
HETATM   40  C   UNL     1     -44.030  54.903 -59.725  1.00  0.00     0.012 A 
ENDBRANCH  31  32
ENDBRANCH   1  31
TORSDOF 12
ENDMDL
