MODEL 1
REMARK VINA RESULT:      -8.3      0.000      0.000
REMARK  3 active torsions:
REMARK  status: ('A' for Active; 'I' for Inactive)
REMARK    1  A    between atoms: C_5  and  N_6 
REMARK       I    between atoms: N_6  and  C_7 
REMARK    2  A    between atoms: C_7  and  C_8 
REMARK    3  A    between atoms: C_8  and  N_9 
ROOT
HETATM    1  N   UNL     1     -42.609  54.558 -52.854  1.00  0.00    -0.367 N 
HETATM    2  C   UNL     1     -41.711  53.996 -52.065  1.00  0.00     0.108 C 
HETATM    3  C   UNL     1     -40.923  52.833 -52.546  1.00  0.00     0.014 A 
HETATM    4  C   UNL     1     -40.245  52.033 -51.604  1.00  0.00    -0.042 A 
HETATM    5  C   UNL     1     -39.502  50.918 -52.014  1.00  0.00     0.008 A 
HETATM    6  C   UNL     1     -39.397  50.611 -53.366  1.00  0.00     0.001 A 
HETATM    7  C   UNL     1     -40.034  51.408 -54.312  1.00  0.00     0.001 A 
HETATM    8  C   UNL     1     -40.791  52.512 -53.907  1.00  0.00     0.016 A 
HETATM    9  C   UNL     1     -40.361  52.369 -50.139  1.00  0.00     0.069 C 
HETATM   10  C   UNL     1     -40.474  53.889 -49.916  1.00  0.00     0.028 C 
HETATM   11  C   UNL     1     -40.956  54.169 -48.487  1.00  0.00     0.038 C 
HETATM   12  C   UNL     1     -39.151  54.622 -50.166  1.00  0.00     0.038 C 
HETATM   13  N   UNL     1     -41.489  54.464 -50.842  1.00  0.00    -0.367 N 
HETATM   14  H   UNL     1     -42.038  55.241 -50.508  1.00  0.00     0.162 HD
HETATM   15  H   UNL     1     -42.823  54.111 -53.747  1.00  0.00     0.161 HD
ENDROOT
BRANCH   1  16
HETATM   16  C   UNL     1     -43.384  55.781 -52.600  1.00  0.00     0.224 C 
BRANCH  16  17
HETATM   17  C   UNL     1     -43.685  56.417 -53.955  1.00  0.00     0.239 C 
HETATM   18  N   UNL     1     -42.786  56.061 -54.942  1.00  0.00    -0.326 N 
HETATM   19  H   UNL     1     -42.125  55.317 -54.752  1.00  0.00     0.169 HD
HETATM   20  O   UNL     1     -44.676  57.138 -54.066  1.00  0.00    -0.271 OA
BRANCH  18  21
HETATM   21  C   UNL     1     -42.724  56.568 -56.258  1.00  0.00     0.034 A 
HETATM   22  C   UNL     1     -42.367  57.878 -56.574  1.00  0.00     0.030 A 
HETATM   23  C   UNL     1     -42.287  58.286 -57.912  1.00  0.00     0.009 A 
HETATM   24  C   UNL     1     -42.569  57.393 -58.950  1.00  0.00    -0.062 A 
HETATM   25  C   UNL     1     -42.481  57.817 -60.386  1.00  0.00     0.048 C 
HETATM   26  C   UNL     1     -42.937  56.083 -58.631  1.00  0.00     0.009 A 
HETATM   27  C   UNL     1     -43.007  55.673 -57.298  1.00  0.00     0.030 A 
ENDBRANCH  18  21
ENDBRANCH  16  17
ENDBRANCH   1  16
TORSDOF 3
ENDMDL
MODEL 2
REMARK VINA RESULT:      -8.1      1.581      1.929
REMARK  3 active torsions:
REMARK  status: ('A' for Active; 'I' for Inactive)
REMARK    1  A    between atoms: C_5  and  N_6 
REMARK       I    between atoms: N_6  and  C_7 
REMARK    2  A    between atoms: C_7  and  C_8 
REMARK    3  A    between atoms: C_8  and  N_9 
ROOT
HETATM    1  N   UNL     1     -40.960  54.298 -53.730  1.00  0.00    -0.367 N 
HETATM    2  C   UNL     1     -40.665  53.817 -52.537  1.00  0.00     0.108 C 
HETATM    3  C   UNL     1     -40.245  52.399 -52.392  1.00  0.00     0.014 A 
HETATM    4  C   UNL     1     -40.281  51.806 -51.113  1.00  0.00    -0.042 A 
HETATM    5  C   UNL     1     -39.907  50.468 -50.933  1.00  0.00     0.008 A 
HETATM    6  C   UNL     1     -39.460  49.719 -52.017  1.00  0.00     0.001 A 
HETATM    7  C   UNL     1     -39.390  50.298 -53.281  1.00  0.00     0.001 A 
HETATM    8  C   UNL     1     -39.777  51.628 -53.468  1.00  0.00     0.016 A 
HETATM    9  C   UNL     1     -40.765  52.621 -49.941  1.00  0.00     0.069 C 
HETATM   10  C   UNL     1     -40.381  54.106 -50.089  1.00  0.00     0.028 C 
HETATM   11  C   UNL     1     -41.189  54.951 -49.097  1.00  0.00     0.038 C 
HETATM   12  C   UNL     1     -38.884  54.352 -49.874  1.00  0.00     0.038 C 
HETATM   13  N   UNL     1     -40.725  54.585 -51.456  1.00  0.00    -0.367 N 
HETATM   14  H   UNL     1     -41.029  55.542 -51.552  1.00  0.00     0.162 HD
HETATM   15  H   UNL     1     -41.000  53.655 -54.523  1.00  0.00     0.161 HD
ENDROOT
BRANCH   1  16
HETATM   16  C   UNL     1     -41.268  55.693 -54.081  1.00  0.00     0.224 C 
BRANCH  16  17
HETATM   17  C   UNL     1     -42.473  55.669 -55.019  1.00  0.00     0.239 C 
HETATM   18  N   UNL     1     -42.194  56.144 -56.286  1.00  0.00    -0.326 N 
HETATM   19  H   UNL     1     -41.228  56.309 -56.541  1.00  0.00     0.169 HD
HETATM   20  O   UNL     1     -43.541  55.223 -54.603  1.00  0.00    -0.271 OA
BRANCH  18  21
HETATM   21  C   UNL     1     -43.114  56.358 -57.336  1.00  0.00     0.034 A 
HETATM   22  C   UNL     1     -43.262  55.507 -58.430  1.00  0.00     0.030 A 
HETATM   23  C   UNL     1     -44.232  55.771 -59.405  1.00  0.00     0.009 A 
HETATM   24  C   UNL     1     -45.062  56.891 -59.302  1.00  0.00    -0.062 A 
HETATM   25  C   UNL     1     -46.109  57.181 -60.337  1.00  0.00     0.048 C 
HETATM   26  C   UNL     1     -44.905  57.749 -58.210  1.00  0.00     0.009 A 
HETATM   27  C   UNL     1     -43.946  57.481 -57.232  1.00  0.00     0.030 A 
ENDBRANCH  18  21
ENDBRANCH  16  17
ENDBRANCH   1  16
TORSDOF 3
ENDMDL
MODEL 3
REMARK VINA RESULT:      -8.1      2.110      8.239
REMARK  3 active torsions:
REMARK  status: ('A' for Active; 'I' for Inactive)
REMARK    1  A    between atoms: C_5  and  N_6 
REMARK       I    between atoms: N_6  and  C_7 
REMARK    2  A    between atoms: C_7  and  C_8 
REMARK    3  A    between atoms: C_8  and  N_9 
ROOT
HETATM    1  N   UNL     1     -42.222  55.860 -56.568  1.00  0.00    -0.367 N 
HETATM    2  C   UNL     1     -43.102  56.654 -57.149  1.00  0.00     0.108 C 
HETATM    3  C   UNL     1     -43.771  56.229 -58.405  1.00  0.00     0.014 A 
HETATM    4  C   UNL     1     -44.419  57.201 -59.195  1.00  0.00    -0.042 A 
HETATM    5  C   UNL     1     -45.050  56.845 -60.394  1.00  0.00     0.008 A 
HETATM    6  C   UNL     1     -45.073  55.515 -60.799  1.00  0.00     0.001 A 
HETATM    7  C   UNL     1     -44.465  54.538 -60.017  1.00  0.00     0.001 A 
HETATM    8  C   UNL     1     -43.820  54.890 -58.827  1.00  0.00     0.016 A 
HETATM    9  C   UNL     1     -44.392  58.641 -58.751  1.00  0.00     0.069 C 
HETATM   10  C   UNL     1     -44.414  58.759 -57.215  1.00  0.00     0.028 C 
HETATM   11  C   UNL     1     -44.017  60.181 -56.799  1.00  0.00     0.038 C 
HETATM   12  C   UNL     1     -45.782  58.411 -56.617  1.00  0.00     0.038 C 
HETATM   13  N   UNL     1     -43.413  57.832 -56.620  1.00  0.00    -0.367 N 
HETATM   14  H   UNL     1     -42.944  58.129 -55.778  1.00  0.00     0.162 HD
HETATM   15  H   UNL     1     -41.935  55.008 -57.054  1.00  0.00     0.161 HD
ENDROOT
BRANCH   1  16
HETATM   16  C   UNL     1     -41.562  56.054 -55.268  1.00  0.00     0.224 C 
BRANCH  16  17
HETATM   17  C   UNL     1     -41.611  54.718 -54.531  1.00  0.00     0.239 C 
HETATM   18  N   UNL     1     -40.606  54.569 -53.593  1.00  0.00    -0.326 N 
HETATM   19  H   UNL     1     -40.040  55.375 -53.356  1.00  0.00     0.169 HD
HETATM   20  O   UNL     1     -42.515  53.926 -54.793  1.00  0.00    -0.271 OA
BRANCH  18  21
HETATM   21  C   UNL     1     -40.312  53.413 -52.838  1.00  0.00     0.034 A 
HETATM   22  C   UNL     1     -40.421  53.338 -51.451  1.00  0.00     0.030 A 
HETATM   23  C   UNL     1     -40.152  52.136 -50.784  1.00  0.00     0.009 A 
HETATM   24  C   UNL     1     -39.764  50.996 -51.495  1.00  0.00    -0.062 A 
HETATM   25  C   UNL     1     -39.479  49.702 -50.792  1.00  0.00     0.048 C 
HETATM   26  C   UNL     1     -39.645  51.076 -52.885  1.00  0.00     0.009 A 
HETATM   27  C   UNL     1     -39.923  52.271 -53.551  1.00  0.00     0.030 A 
ENDBRANCH  18  21
ENDBRANCH  16  17
ENDBRANCH   1  16
TORSDOF 3
ENDMDL
MODEL 4
REMARK VINA RESULT:      -8.0      3.010      4.755
REMARK  3 active torsions:
REMARK  status: ('A' for Active; 'I' for Inactive)
REMARK    1  A    between atoms: C_5  and  N_6 
REMARK       I    between atoms: N_6  and  C_7 
REMARK    2  A    between atoms: C_7  and  C_8 
REMARK    3  A    between atoms: C_8  and  N_9 
ROOT
HETATM    1  N   UNL     1     -39.910  53.760 -50.337  1.00  0.00    -0.367 N 
HETATM    2  C   UNL     1     -40.127  53.416 -51.592  1.00  0.00     0.108 C 
HETATM    3  C   UNL     1     -39.930  52.008 -52.021  1.00  0.00     0.014 A 
HETATM    4  C   UNL     1     -39.815  51.725 -53.398  1.00  0.00    -0.042 A 
HETATM    5  C   UNL     1     -39.614  50.412 -53.845  1.00  0.00     0.008 A 
HETATM    6  C   UNL     1     -39.563  49.366 -52.929  1.00  0.00     0.001 A 
HETATM    7  C   UNL     1     -39.706  49.624 -51.569  1.00  0.00     0.001 A 
HETATM    8  C   UNL     1     -39.890  50.934 -51.117  1.00  0.00     0.016 A 
HETATM    9  C   UNL     1     -39.872  52.861 -54.386  1.00  0.00     0.069 C 
HETATM   10  C   UNL     1     -40.819  53.979 -53.908  1.00  0.00     0.028 C 
HETATM   11  C   UNL     1     -40.573  55.251 -54.728  1.00  0.00     0.038 C 
HETATM   12  C   UNL     1     -42.296  53.580 -54.005  1.00  0.00     0.038 C 
HETATM   13  N   UNL     1     -40.534  54.311 -52.485  1.00  0.00    -0.367 N 
HETATM   14  H   UNL     1     -40.648  55.271 -52.199  1.00  0.00     0.162 HD
HETATM   15  H   UNL     1     -39.503  53.070 -49.703  1.00  0.00     0.161 HD
ENDROOT
BRANCH   1  16
HETATM   16  C   UNL     1     -40.171  55.063 -49.707  1.00  0.00     0.224 C 
BRANCH  16  17
HETATM   17  C   UNL     1     -41.512  55.563 -50.240  1.00  0.00     0.239 C 
HETATM   18  N   UNL     1     -41.410  56.712 -51.000  1.00  0.00    -0.326 N 
HETATM   19  H   UNL     1     -40.489  57.033 -51.274  1.00  0.00     0.169 HD
HETATM   20  O   UNL     1     -42.529  54.917 -49.989  1.00  0.00    -0.271 OA
BRANCH  18  21
HETATM   21  C   UNL     1     -42.471  57.479 -51.529  1.00  0.00     0.034 A 
HETATM   22  C   UNL     1     -43.424  56.984 -52.417  1.00  0.00     0.030 A 
HETATM   23  C   UNL     1     -44.471  57.803 -52.859  1.00  0.00     0.009 A 
HETATM   24  C   UNL     1     -44.576  59.128 -52.423  1.00  0.00    -0.062 A 
HETATM   25  C   UNL     1     -45.696  60.012 -52.885  1.00  0.00     0.048 C 
HETATM   26  C   UNL     1     -43.613  59.625 -51.541  1.00  0.00     0.009 A 
HETATM   27  C   UNL     1     -42.575  58.806 -51.092  1.00  0.00     0.030 A 
ENDBRANCH  18  21
ENDBRANCH  16  17
ENDBRANCH   1  16
TORSDOF 3
ENDMDL
MODEL 5
REMARK VINA RESULT:      -8.0      3.152      7.182
REMARK  3 active torsions:
REMARK  status: ('A' for Active; 'I' for Inactive)
REMARK    1  A    between atoms: C_5  and  N_6 
REMARK       I    between atoms: N_6  and  C_7 
REMARK    2  A    between atoms: C_7  and  C_8 
REMARK    3  A    between atoms: C_8  and  N_9 
ROOT
HETATM    1  N   UNL     1     -42.195  56.962 -51.488  1.00  0.00    -0.367 N 
HETATM    2  C   UNL     1     -43.026  57.976 -51.642  1.00  0.00     0.108 C 
HETATM    3  C   UNL     1     -43.790  58.125 -52.907  1.00  0.00     0.014 A 
HETATM    4  C   UNL     1     -44.383  59.370 -53.202  1.00  0.00    -0.042 A 
HETATM    5  C   UNL     1     -45.101  59.557 -54.390  1.00  0.00     0.008 A 
HETATM    6  C   UNL     1     -45.265  58.499 -55.278  1.00  0.00     0.001 A 
HETATM    7  C   UNL     1     -44.713  57.255 -54.987  1.00  0.00     0.001 A 
HETATM    8  C   UNL     1     -43.981  57.067 -53.810  1.00  0.00     0.016 A 
HETATM    9  C   UNL     1     -44.203  60.514 -52.237  1.00  0.00     0.069 C 
HETATM   10  C   UNL     1     -44.141  60.019 -50.779  1.00  0.00     0.028 C 
HETATM   11  C   UNL     1     -43.596  61.132 -49.877  1.00  0.00     0.038 C 
HETATM   12  C   UNL     1     -45.505  59.553 -50.256  1.00  0.00     0.038 C 
HETATM   13  N   UNL     1     -43.201  58.868 -50.674  1.00  0.00    -0.367 N 
HETATM   14  H   UNL     1     -42.668  58.779 -49.823  1.00  0.00     0.162 HD
HETATM   15  H   UNL     1     -42.011  56.354 -52.288  1.00  0.00     0.161 HD
ENDROOT
BRANCH   1  16
HETATM   16  C   UNL     1     -41.459  56.585 -50.272  1.00  0.00     0.224 C 
BRANCH  16  17
HETATM   17  C   UNL     1     -40.698  55.298 -50.584  1.00  0.00     0.239 C 
HETATM   18  N   UNL     1     -40.993  54.771 -51.827  1.00  0.00    -0.326 N 
HETATM   19  H   UNL     1     -41.536  55.329 -52.475  1.00  0.00     0.169 HD
HETATM   20  O   UNL     1     -39.895  54.866 -49.757  1.00  0.00    -0.271 OA
BRANCH  18  21
HETATM   21  C   UNL     1     -40.548  53.540 -52.356  1.00  0.00     0.034 A 
HETATM   22  C   UNL     1     -40.103  52.472 -51.579  1.00  0.00     0.030 A 
HETATM   23  C   UNL     1     -39.721  51.268 -52.184  1.00  0.00     0.009 A 
HETATM   24  C   UNL     1     -39.774  51.118 -53.573  1.00  0.00    -0.062 A 
HETATM   25  C   UNL     1     -39.373  49.831 -54.232  1.00  0.00     0.048 C 
HETATM   26  C   UNL     1     -40.210  52.193 -54.352  1.00  0.00     0.009 A 
HETATM   27  C   UNL     1     -40.601  53.390 -53.748  1.00  0.00     0.030 A 
ENDBRANCH  18  21
ENDBRANCH  16  17
ENDBRANCH   1  16
TORSDOF 3
ENDMDL
MODEL 6
REMARK VINA RESULT:      -7.9      1.644      2.579
REMARK  3 active torsions:
REMARK  status: ('A' for Active; 'I' for Inactive)
REMARK    1  A    between atoms: C_5  and  N_6 
REMARK       I    between atoms: N_6  and  C_7 
REMARK    2  A    between atoms: C_7  and  C_8 
REMARK    3  A    between atoms: C_8  and  N_9 
ROOT
HETATM    1  N   UNL     1     -42.719  53.758 -54.972  1.00  0.00    -0.367 N 
HETATM    2  C   UNL     1     -42.298  53.994 -53.744  1.00  0.00     0.108 C 
HETATM    3  C   UNL     1     -41.210  53.169 -53.160  1.00  0.00     0.014 A 
HETATM    4  C   UNL     1     -41.017  53.185 -51.763  1.00  0.00    -0.042 A 
HETATM    5  C   UNL     1     -40.012  52.410 -51.170  1.00  0.00     0.008 A 
HETATM    6  C   UNL     1     -39.166  51.641 -51.964  1.00  0.00     0.001 A 
HETATM    7  C   UNL     1     -39.323  51.638 -53.346  1.00  0.00     0.001 A 
HETATM    8  C   UNL     1     -40.335  52.396 -53.942  1.00  0.00     0.016 A 
HETATM    9  C   UNL     1     -41.934  54.020 -50.907  1.00  0.00     0.069 C 
HETATM   10  C   UNL     1     -42.375  55.303 -51.636  1.00  0.00     0.028 C 
HETATM   11  C   UNL     1     -43.571  55.928 -50.908  1.00  0.00     0.038 C 
HETATM   12  C   UNL     1     -41.245  56.333 -51.750  1.00  0.00     0.038 C 
HETATM   13  N   UNL     1     -42.824  54.973 -53.017  1.00  0.00    -0.367 N 
HETATM   14  H   UNL     1     -43.577  55.520 -53.406  1.00  0.00     0.162 HD
HETATM   15  H   UNL     1     -42.362  52.936 -55.463  1.00  0.00     0.161 HD
ENDROOT
BRANCH   1  16
HETATM   16  C   UNL     1     -43.686  54.544 -55.753  1.00  0.00     0.224 C 
BRANCH  16  17
HETATM   17  C   UNL     1     -42.915  55.685 -56.412  1.00  0.00     0.239 C 
HETATM   18  N   UNL     1     -43.560  56.225 -57.509  1.00  0.00    -0.326 N 
HETATM   19  H   UNL     1     -44.519  55.953 -57.690  1.00  0.00     0.169 HD
HETATM   20  O   UNL     1     -41.845  56.041 -55.922  1.00  0.00    -0.271 OA
BRANCH  18  21
HETATM   21  C   UNL     1     -43.058  57.203 -58.395  1.00  0.00     0.034 A 
HETATM   22  C   UNL     1     -42.406  56.911 -59.591  1.00  0.00     0.030 A 
HETATM   23  C   UNL     1     -41.979  57.946 -60.434  1.00  0.00     0.009 A 
HETATM   24  C   UNL     1     -42.194  59.284 -60.089  1.00  0.00    -0.062 A 
HETATM   25  C   UNL     1     -41.746  60.400 -60.986  1.00  0.00     0.048 C 
HETATM   26  C   UNL     1     -42.838  59.574 -58.883  1.00  0.00     0.009 A 
HETATM   27  C   UNL     1     -43.274  58.543 -58.048  1.00  0.00     0.030 A 
ENDBRANCH  18  21
ENDBRANCH  16  17
ENDBRANCH   1  16
TORSDOF 3
ENDMDL
MODEL 7
REMARK VINA RESULT:      -7.8      2.112      2.909
REMARK  3 active torsions:
REMARK  status: ('A' for Active; 'I' for Inactive)
REMARK    1  A    between atoms: C_5  and  N_6 
REMARK       I    between atoms: N_6  and  C_7 
REMARK    2  A    between atoms: C_7  and  C_8 
REMARK    3  A    between atoms: C_8  and  N_9 
ROOT
HETATM    1  N   UNL     1     -43.974  56.011 -54.741  1.00  0.00    -0.367 N 
HETATM    2  C   UNL     1     -43.378  55.448 -53.707  1.00  0.00     0.108 C 
HETATM    3  C   UNL     1     -42.190  54.582 -53.916  1.00  0.00     0.014 A 
HETATM    4  C   UNL     1     -41.787  53.716 -52.878  1.00  0.00    -0.042 A 
HETATM    5  C   UNL     1     -40.681  52.872 -53.039  1.00  0.00     0.008 A 
HETATM    6  C   UNL     1     -39.944  52.908 -54.218  1.00  0.00     0.001 A 
HETATM    7  C   UNL     1     -40.309  53.778 -55.241  1.00  0.00     0.001 A 
HETATM    8  C   UNL     1     -41.422  54.611 -55.092  1.00  0.00     0.016 A 
HETATM    9  C   UNL     1     -42.588  53.681 -51.602  1.00  0.00     0.069 C 
HETATM   10  C   UNL     1     -43.172  55.065 -51.263  1.00  0.00     0.028 C 
HETATM   11  C   UNL     1     -44.262  54.920 -50.194  1.00  0.00     0.038 C 
HETATM   12  C   UNL     1     -42.105  56.054 -50.780  1.00  0.00     0.038 C 
HETATM   13  N   UNL     1     -43.817  55.653 -52.470  1.00  0.00    -0.367 N 
HETATM   14  H   UNL     1     -44.636  56.224 -52.330  1.00  0.00     0.162 HD
HETATM   15  H   UNL     1     -43.672  55.752 -55.682  1.00  0.00     0.161 HD
ENDROOT
BRANCH   1  16
HETATM   16  C   UNL     1     -45.072  56.990 -54.718  1.00  0.00     0.224 C 
BRANCH  16  17
HETATM   17  C   UNL     1     -44.834  57.965 -55.868  1.00  0.00     0.239 C 
HETATM   18  N   UNL     1     -44.207  57.390 -56.957  1.00  0.00    -0.326 N 
HETATM   19  H   UNL     1     -44.104  56.383 -56.982  1.00  0.00     0.169 HD
HETATM   20  O   UNL     1     -45.228  59.125 -55.755  1.00  0.00    -0.271 OA
BRANCH  18  21
HETATM   21  C   UNL     1     -43.747  58.048 -58.119  1.00  0.00     0.034 A 
HETATM   22  C   UNL     1     -44.447  58.083 -59.324  1.00  0.00     0.030 A 
HETATM   23  C   UNL     1     -43.938  58.798 -60.416  1.00  0.00     0.009 A 
HETATM   24  C   UNL     1     -42.722  59.481 -60.319  1.00  0.00    -0.062 A 
HETATM   25  C   UNL     1     -42.170  60.254 -61.480  1.00  0.00     0.048 C 
HETATM   26  C   UNL     1     -42.016  59.436 -59.113  1.00  0.00     0.009 A 
HETATM   27  C   UNL     1     -42.528  58.732 -58.021  1.00  0.00     0.030 A 
ENDBRANCH  18  21
ENDBRANCH  16  17
ENDBRANCH   1  16
TORSDOF 3
ENDMDL
MODEL 8
REMARK VINA RESULT:      -7.7      2.964      4.139
REMARK  3 active torsions:
REMARK  status: ('A' for Active; 'I' for Inactive)
REMARK    1  A    between atoms: C_5  and  N_6 
REMARK       I    between atoms: N_6  and  C_7 
REMARK    2  A    between atoms: C_7  and  C_8 
REMARK    3  A    between atoms: C_8  and  N_9 
ROOT
HETATM    1  N   UNL     1     -42.349  56.601 -55.824  1.00  0.00    -0.367 N 
HETATM    2  C   UNL     1     -42.291  56.180 -54.574  1.00  0.00     0.108 C 
HETATM    3  C   UNL     1     -41.587  54.913 -54.249  1.00  0.00     0.014 A 
HETATM    4  C   UNL     1     -41.832  54.298 -53.004  1.00  0.00    -0.042 A 
HETATM    5  C   UNL     1     -41.199  53.095 -52.663  1.00  0.00     0.008 A 
HETATM    6  C   UNL     1     -40.291  52.514 -53.542  1.00  0.00     0.001 A 
HETATM    7  C   UNL     1     -40.015  53.124 -54.761  1.00  0.00     0.001 A 
HETATM    8  C   UNL     1     -40.655  54.315 -55.114  1.00  0.00     0.016 A 
HETATM    9  C   UNL     1     -42.816  54.932 -52.055  1.00  0.00     0.069 C 
HETATM   10  C   UNL     1     -42.793  56.469 -52.161  1.00  0.00     0.028 C 
HETATM   11  C   UNL     1     -44.034  57.054 -51.476  1.00  0.00     0.038 C 
HETATM   12  C   UNL     1     -41.529  57.083 -51.549  1.00  0.00     0.038 C 
HETATM   13  N   UNL     1     -42.846  56.880 -53.591  1.00  0.00    -0.367 N 
HETATM   14  H   UNL     1     -43.341  57.729 -53.814  1.00  0.00     0.162 HD
HETATM   15  H   UNL     1     -41.999  55.989 -56.564  1.00  0.00     0.161 HD
ENDROOT
BRANCH   1  16
HETATM   16  C   UNL     1     -42.886  57.880 -56.314  1.00  0.00     0.224 C 
BRANCH  16  17
HETATM   17  C   UNL     1     -43.432  57.634 -57.718  1.00  0.00     0.239 C 
HETATM   18  N   UNL     1     -44.811  57.692 -57.791  1.00  0.00    -0.326 N 
HETATM   19  H   UNL     1     -45.325  58.037 -56.990  1.00  0.00     0.169 HD
HETATM   20  O   UNL     1     -42.639  57.442 -58.640  1.00  0.00    -0.271 OA
BRANCH  18  21
HETATM   21  C   UNL     1     -45.616  57.395 -58.912  1.00  0.00     0.034 A 
HETATM   22  C   UNL     1     -45.634  56.158 -59.555  1.00  0.00     0.030 A 
HETATM   23  C   UNL     1     -46.498  55.935 -60.634  1.00  0.00     0.009 A 
HETATM   24  C   UNL     1     -47.351  56.946 -61.088  1.00  0.00    -0.062 A 
HETATM   25  C   UNL     1     -48.285  56.717 -62.240  1.00  0.00     0.048 C 
HETATM   26  C   UNL     1     -47.324  58.189 -60.449  1.00  0.00     0.009 A 
HETATM   27  C   UNL     1     -46.470  58.408 -59.366  1.00  0.00     0.030 A 
ENDBRANCH  18  21
ENDBRANCH  16  17
ENDBRANCH   1  16
TORSDOF 3
ENDMDL
MODEL 9
REMARK VINA RESULT:      -7.5      2.253      8.705
REMARK  3 active torsions:
REMARK  status: ('A' for Active; 'I' for Inactive)
REMARK    1  A    between atoms: C_5  and  N_6 
REMARK       I    between atoms: N_6  and  C_7 
REMARK    2  A    between atoms: C_7  and  C_8 
REMARK    3  A    between atoms: C_8  and  N_9 
ROOT
HETATM    1  N   UNL     1     -43.252  58.848 -56.417  1.00  0.00    -0.367 N 
HETATM    2  C   UNL     1     -43.069  58.765 -57.721  1.00  0.00     0.108 C 
HETATM    3  C   UNL     1     -42.346  59.844 -58.440  1.00  0.00     0.014 A 
HETATM    4  C   UNL     1     -42.467  59.928 -59.843  1.00  0.00    -0.042 A 
HETATM    5  C   UNL     1     -41.812  60.939 -60.559  1.00  0.00     0.008 A 
HETATM    6  C   UNL     1     -41.004  61.853 -59.891  1.00  0.00     0.001 A 
HETATM    7  C   UNL     1     -40.849  61.766 -58.511  1.00  0.00     0.001 A 
HETATM    8  C   UNL     1     -41.513  60.769 -57.789  1.00  0.00     0.016 A 
HETATM    9  C   UNL     1     -43.342  58.935 -60.563  1.00  0.00     0.069 C 
HETATM   10  C   UNL     1     -43.318  57.557 -59.875  1.00  0.00     0.028 C 
HETATM   11  C   UNL     1     -44.477  56.698 -60.395  1.00  0.00     0.038 C 
HETATM   12  C   UNL     1     -41.992  56.816 -60.087  1.00  0.00     0.038 C 
HETATM   13  N   UNL     1     -43.514  57.719 -58.408  1.00  0.00    -0.367 N 
HETATM   14  H   UNL     1     -44.023  56.996 -57.923  1.00  0.00     0.162 HD
HETATM   15  H   UNL     1     -42.985  59.711 -55.939  1.00  0.00     0.161 HD
ENDROOT
BRANCH   1  16
HETATM   16  C   UNL     1     -43.825  57.828 -55.526  1.00  0.00     0.224 C 
BRANCH  16  17
HETATM   17  C   UNL     1     -42.660  57.060 -54.906  1.00  0.00     0.239 C 
HETATM   18  N   UNL     1     -42.858  55.693 -54.870  1.00  0.00    -0.326 N 
HETATM   19  H   UNL     1     -43.643  55.302 -55.378  1.00  0.00     0.169 HD
HETATM   20  O   UNL     1     -41.669  57.684 -54.531  1.00  0.00    -0.271 OA
BRANCH  18  21
HETATM   21  C   UNL     1     -42.028  54.729 -54.259  1.00  0.00     0.034 A 
HETATM   22  C   UNL     1     -42.122  54.354 -52.920  1.00  0.00     0.030 A 
HETATM   23  C   UNL     1     -41.286  53.355 -52.405  1.00  0.00     0.009 A 
HETATM   24  C   UNL     1     -40.342  52.723 -53.219  1.00  0.00    -0.062 A 
HETATM   25  C   UNL     1     -39.445  51.648 -52.680  1.00  0.00     0.048 C 
HETATM   26  C   UNL     1     -40.241  53.108 -54.559  1.00  0.00     0.009 A 
HETATM   27  C   UNL     1     -41.081  54.096 -55.075  1.00  0.00     0.030 A 
ENDBRANCH  18  21
ENDBRANCH  16  17
ENDBRANCH   1  16
TORSDOF 3
ENDMDL
MODEL 10
REMARK VINA RESULT:      -7.5      2.320      8.624
REMARK  3 active torsions:
REMARK  status: ('A' for Active; 'I' for Inactive)
REMARK    1  A    between atoms: C_5  and  N_6 
REMARK       I    between atoms: N_6  and  C_7 
REMARK    2  A    between atoms: C_7  and  C_8 
REMARK    3  A    between atoms: C_8  and  N_9 
ROOT
HETATM    1  N   UNL     1     -43.094  56.981 -55.962  1.00  0.00    -0.367 N 
HETATM    2  C   UNL     1     -43.278  57.294 -57.231  1.00  0.00     0.108 C 
HETATM    3  C   UNL     1     -44.639  57.629 -57.724  1.00  0.00     0.014 A 
HETATM    4  C   UNL     1     -44.884  57.608 -59.113  1.00  0.00    -0.042 A 
HETATM    5  C   UNL     1     -46.157  57.905 -59.619  1.00  0.00     0.008 A 
HETATM    6  C   UNL     1     -47.185  58.259 -58.752  1.00  0.00     0.001 A 
HETATM    7  C   UNL     1     -46.952  58.314 -57.381  1.00  0.00     0.001 A 
HETATM    8  C   UNL     1     -45.688  58.004 -56.869  1.00  0.00     0.016 A 
HETATM    9  C   UNL     1     -43.767  57.225 -60.049  1.00  0.00     0.069 C 
HETATM   10  C   UNL     1     -42.399  57.695 -59.517  1.00  0.00     0.028 C 
HETATM   11  C   UNL     1     -41.275  56.983 -60.280  1.00  0.00     0.038 C 
HETATM   12  C   UNL     1     -42.214  59.213 -59.627  1.00  0.00     0.038 C 
HETATM   13  N   UNL     1     -42.258  57.326 -58.082  1.00  0.00    -0.367 N 
HETATM   14  H   UNL     1     -41.339  57.079 -57.752  1.00  0.00     0.162 HD
HETATM   15  H   UNL     1     -43.913  56.869 -55.362  1.00  0.00     0.161 HD
ENDROOT
BRANCH   1  16
HETATM   16  C   UNL     1     -41.816  56.748 -55.274  1.00  0.00     0.224 C 
BRANCH  16  17
HETATM   17  C   UNL     1     -41.895  55.367 -54.628  1.00  0.00     0.239 C 
HETATM   18  N   UNL     1     -40.720  54.978 -54.012  1.00  0.00    -0.326 N 
HETATM   19  H   UNL     1     -39.984  55.664 -53.895  1.00  0.00     0.169 HD
HETATM   20  O   UNL     1     -42.956  54.747 -54.675  1.00  0.00    -0.271 OA
BRANCH  18  21
HETATM   21  C   UNL     1     -40.438  53.722 -53.433  1.00  0.00     0.034 A 
HETATM   22  C   UNL     1     -40.140  52.575 -54.166  1.00  0.00     0.030 A 
HETATM   23  C   UNL     1     -39.827  51.377 -53.509  1.00  0.00     0.009 A 
HETATM   24  C   UNL     1     -39.815  51.311 -52.112  1.00  0.00    -0.062 A 
HETATM   25  C   UNL     1     -39.476  50.036 -51.398  1.00  0.00     0.048 C 
HETATM   26  C   UNL     1     -40.125  52.460 -51.379  1.00  0.00     0.009 A 
HETATM   27  C   UNL     1     -40.426  53.656 -52.034  1.00  0.00     0.030 A 
ENDBRANCH  18  21
ENDBRANCH  16  17
ENDBRANCH   1  16
TORSDOF 3
ENDMDL
