MODEL 1
REMARK VINA RESULT:      -8.6      0.000      0.000
REMARK  6 active torsions:
REMARK  status: ('A' for Active; 'I' for Inactive)
REMARK    1  A    between atoms: C_5  and  C_6 
REMARK    2  A    between atoms: C_6  and  N_7 
REMARK    3  A    between atoms: C_6  and  C_11 
REMARK       I    between atoms: N_7  and  C_8 
REMARK    4  A    between atoms: C_11  and  C_12 
REMARK       I    between atoms: C_12  and  N_13 
REMARK    5  A    between atoms: N_13  and  C_14 
REMARK    6  A    between atoms: C_16  and  C_17 
ROOT
HETATM    1  C   UNL     1     -42.108  56.261 -53.924  1.00  0.00     0.224 C 
HETATM    2  N   UNL     1     -41.747  56.584 -55.220  1.00  0.00    -0.327 N 
HETATM    3  O   UNL     1     -43.248  56.203 -53.474  1.00  0.00    -0.273 OA
HETATM    4  H   UNL     1     -40.774  56.446 -55.467  1.00  0.00     0.169 HD
ENDROOT
BRANCH   1   5
HETATM    5  C   UNL     1     -40.922  55.909 -53.049  1.00  0.00     0.133 C 
BRANCH   5   6
HETATM    6  C   UNL     1     -41.258  54.698 -52.171  1.00  0.00     0.126 C 
BRANCH   6   7
HETATM    7  C   UNL     1     -40.808  53.375 -52.775  1.00  0.00    -0.035 A 
HETATM    8  C   UNL     1     -41.217  53.026 -54.072  1.00  0.00     0.010 A 
HETATM    9  C   UNL     1     -40.793  51.832 -54.661  1.00  0.00     0.007 A 
HETATM   10  C   UNL     1     -39.946  50.962 -53.969  1.00  0.00    -0.062 A 
HETATM   11  C   UNL     1     -39.498  49.669 -54.585  1.00  0.00     0.048 C 
HETATM   12  C   UNL     1     -39.541  51.298 -52.674  1.00  0.00     0.007 A 
HETATM   13  C   UNL     1     -39.965  52.493 -52.085  1.00  0.00     0.010 A 
ENDBRANCH   6   7
BRANCH   6  14
HETATM   14  N   UNL     1     -40.814  54.813 -50.782  1.00  0.00    -0.352 N 
HETATM   15  C   UNL     1     -41.622  54.685 -49.677  1.00  0.00     0.214 C 
HETATM   16  C   UNL     1     -40.920  54.956 -48.373  1.00  0.00     0.117 C 
HETATM   17  O   UNL     1     -42.811  54.388 -49.718  1.00  0.00    -0.274 OA
HETATM   18  H   UNL     1     -39.908  55.242 -50.648  1.00  0.00     0.163 HD
ENDBRANCH   6  14
ENDBRANCH   5   6
ENDBRANCH   1   5
BRANCH   2  19
HETATM   19  C   UNL     1     -42.590  57.006 -56.270  1.00  0.00     0.035 A 
HETATM   20  C   UNL     1     -42.998  56.184 -57.324  1.00  0.00     0.042 A 
HETATM   21  C   UNL     1     -43.852  56.662 -58.333  1.00  0.00    -0.021 A 
HETATM   22  C   UNL     1     -44.298  57.989 -58.263  1.00  0.00     0.012 A 
HETATM   23  C   UNL     1     -43.900  58.817 -57.213  1.00  0.00     0.003 A 
HETATM   24  C   UNL     1     -43.051  58.326 -56.222  1.00  0.00     0.029 A 
BRANCH  21  25
HETATM   25  C   UNL     1     -44.280  55.805 -59.431  1.00  0.00     0.010 A 
HETATM   26  C   UNL     1     -44.707  56.122 -60.743  1.00  0.00     0.152 A 
HETATM   27  N   UNL     1     -45.010  55.041 -61.468  1.00  0.00    -0.187 NA
HETATM   28  N   UNL     1     -44.785  54.025 -60.621  1.00  0.00    -0.289 N 
HETATM   29  H   UNL     1     -44.951  53.079 -60.947  1.00  0.00     0.188 HD
HETATM   30  C   UNL     1     -44.342  54.428 -59.395  1.00  0.00     0.123 A 
ENDBRANCH  21  25
ENDBRANCH   2  19
TORSDOF 6
ENDMDL
MODEL 2
REMARK VINA RESULT:      -8.5      2.605      8.197
REMARK  6 active torsions:
REMARK  status: ('A' for Active; 'I' for Inactive)
REMARK    1  A    between atoms: C_5  and  C_6 
REMARK    2  A    between atoms: C_6  and  N_7 
REMARK    3  A    between atoms: C_6  and  C_11 
REMARK       I    between atoms: N_7  and  C_8 
REMARK    4  A    between atoms: C_11  and  C_12 
REMARK       I    between atoms: C_12  and  N_13 
REMARK    5  A    between atoms: N_13  and  C_14 
REMARK    6  A    between atoms: C_16  and  C_17 
ROOT
HETATM    1  C   UNL     1     -42.702  55.060 -56.456  1.00  0.00     0.224 C 
HETATM    2  N   UNL     1     -41.509  55.200 -55.770  1.00  0.00    -0.327 N 
HETATM    3  O   UNL     1     -43.693  54.438 -56.084  1.00  0.00    -0.273 OA
HETATM    4  H   UNL     1     -40.844  55.864 -56.150  1.00  0.00     0.169 HD
ENDROOT
BRANCH   1   5
HETATM    5  C   UNL     1     -42.725  55.821 -57.766  1.00  0.00     0.133 C 
BRANCH   5   6
HETATM    6  C   UNL     1     -43.728  56.978 -57.684  1.00  0.00     0.126 C 
BRANCH   6   7
HETATM    7  C   UNL     1     -44.818  56.904 -58.745  1.00  0.00    -0.035 A 
HETATM    8  C   UNL     1     -44.762  55.907 -59.732  1.00  0.00     0.010 A 
HETATM    9  C   UNL     1     -45.767  55.799 -60.698  1.00  0.00     0.007 A 
HETATM   10  C   UNL     1     -46.850  56.681 -60.696  1.00  0.00    -0.062 A 
HETATM   11  C   UNL     1     -47.925  56.583 -61.738  1.00  0.00     0.048 C 
HETATM   12  C   UNL     1     -46.908  57.681 -59.721  1.00  0.00     0.007 A 
HETATM   13  C   UNL     1     -45.905  57.789 -58.755  1.00  0.00     0.010 A 
ENDBRANCH   6   7
BRANCH   6  14
HETATM   14  N   UNL     1     -44.306  57.188 -56.357  1.00  0.00    -0.352 N 
HETATM   15  C   UNL     1     -44.149  58.320 -55.593  1.00  0.00     0.214 C 
HETATM   16  C   UNL     1     -44.768  58.222 -54.224  1.00  0.00     0.117 C 
HETATM   17  O   UNL     1     -43.555  59.328 -55.960  1.00  0.00    -0.274 OA
HETATM   18  H   UNL     1     -44.643  56.355 -55.892  1.00  0.00     0.163 HD
ENDBRANCH   6  14
ENDBRANCH   5   6
ENDBRANCH   1   5
BRANCH   2  19
HETATM   19  C   UNL     1     -41.137  54.589 -54.555  1.00  0.00     0.035 A 
HETATM   20  C   UNL     1     -40.744  53.252 -54.439  1.00  0.00     0.042 A 
HETATM   21  C   UNL     1     -40.371  52.707 -53.198  1.00  0.00    -0.021 A 
HETATM   22  C   UNL     1     -40.393  53.534 -52.066  1.00  0.00     0.012 A 
HETATM   23  C   UNL     1     -40.780  54.870 -52.171  1.00  0.00     0.003 A 
HETATM   24  C   UNL     1     -41.150  55.394 -53.410  1.00  0.00     0.029 A 
BRANCH  21  25
HETATM   25  C   UNL     1     -39.958  51.315 -53.076  1.00  0.00     0.010 A 
HETATM   26  C   UNL     1     -39.789  50.308 -54.056  1.00  0.00     0.152 A 
HETATM   27  N   UNL     1     -39.381  49.144 -53.543  1.00  0.00    -0.187 NA
HETATM   28  N   UNL     1     -39.292  49.398 -52.228  1.00  0.00    -0.289 N 
HETATM   29  H   UNL     1     -38.996  48.648 -51.611  1.00  0.00     0.188 HD
HETATM   30  C   UNL     1     -39.619  50.680 -51.899  1.00  0.00     0.123 A 
ENDBRANCH  21  25
ENDBRANCH   2  19
TORSDOF 6
ENDMDL
MODEL 3
REMARK VINA RESULT:      -8.4      2.611      8.368
REMARK  6 active torsions:
REMARK  status: ('A' for Active; 'I' for Inactive)
REMARK    1  A    between atoms: C_5  and  C_6 
REMARK    2  A    between atoms: C_6  and  N_7 
REMARK    3  A    between atoms: C_6  and  C_11 
REMARK       I    between atoms: N_7  and  C_8 
REMARK    4  A    between atoms: C_11  and  C_12 
REMARK       I    between atoms: C_12  and  N_13 
REMARK    5  A    between atoms: N_13  and  C_14 
REMARK    6  A    between atoms: C_16  and  C_17 
ROOT
HETATM    1  C   UNL     1     -42.683  54.623 -55.851  1.00  0.00     0.224 C 
HETATM    2  N   UNL     1     -41.433  54.709 -55.265  1.00  0.00    -0.327 N 
HETATM    3  O   UNL     1     -43.624  53.932 -55.472  1.00  0.00    -0.273 OA
HETATM    4  H   UNL     1     -40.817  55.434 -55.616  1.00  0.00     0.169 HD
ENDROOT
BRANCH   1   5
HETATM    5  C   UNL     1     -42.842  55.541 -57.047  1.00  0.00     0.133 C 
BRANCH   5   6
HETATM    6  C   UNL     1     -42.465  56.976 -56.661  1.00  0.00     0.126 C 
BRANCH   6   7
HETATM    7  C   UNL     1     -42.293  57.895 -57.863  1.00  0.00    -0.035 A 
HETATM    8  C   UNL     1     -42.378  57.367 -59.160  1.00  0.00     0.010 A 
HETATM    9  C   UNL     1     -42.255  58.195 -60.280  1.00  0.00     0.007 A 
HETATM   10  C   UNL     1     -42.047  59.568 -60.128  1.00  0.00    -0.062 A 
HETATM   11  C   UNL     1     -41.897  60.463 -61.322  1.00  0.00     0.048 C 
HETATM   12  C   UNL     1     -41.953  60.100 -58.838  1.00  0.00     0.007 A 
HETATM   13  C   UNL     1     -42.077  59.273 -57.718  1.00  0.00     0.010 A 
ENDBRANCH   6   7
BRANCH   6  14
HETATM   14  N   UNL     1     -43.341  57.586 -55.660  1.00  0.00    -0.352 N 
HETATM   15  C   UNL     1     -43.002  57.824 -54.349  1.00  0.00     0.214 C 
HETATM   16  C   UNL     1     -44.133  58.366 -53.517  1.00  0.00     0.117 C 
HETATM   17  O   UNL     1     -41.893  57.615 -53.869  1.00  0.00    -0.274 OA
HETATM   18  H   UNL     1     -44.323  57.615 -55.900  1.00  0.00     0.163 HD
ENDBRANCH   6  14
ENDBRANCH   5   6
ENDBRANCH   1   5
BRANCH   2  19
HETATM   19  C   UNL     1     -40.939  53.962 -54.176  1.00  0.00     0.035 A 
HETATM   20  C   UNL     1     -41.059  54.353 -52.839  1.00  0.00     0.042 A 
HETATM   21  C   UNL     1     -40.556  53.555 -51.798  1.00  0.00    -0.021 A 
HETATM   22  C   UNL     1     -39.930  52.343 -52.121  1.00  0.00     0.012 A 
HETATM   23  C   UNL     1     -39.808  51.941 -53.452  1.00  0.00     0.003 A 
HETATM   24  C   UNL     1     -40.311  52.747 -54.473  1.00  0.00     0.029 A 
BRANCH  21  25
HETATM   25  C   UNL     1     -40.684  53.960 -50.404  1.00  0.00     0.010 A 
HETATM   26  C   UNL     1     -41.154  55.164 -49.827  1.00  0.00     0.152 A 
HETATM   27  N   UNL     1     -41.126  55.148 -48.491  1.00  0.00    -0.187 NA
HETATM   28  N   UNL     1     -40.632  53.933 -48.205  1.00  0.00    -0.289 N 
HETATM   29  H   UNL     1     -40.511  53.679 -47.230  1.00  0.00     0.188 HD
HETATM   30  C   UNL     1     -40.359  53.184 -49.311  1.00  0.00     0.123 A 
ENDBRANCH  21  25
ENDBRANCH   2  19
TORSDOF 6
ENDMDL
MODEL 4
REMARK VINA RESULT:      -8.4      2.465      8.403
REMARK  6 active torsions:
REMARK  status: ('A' for Active; 'I' for Inactive)
REMARK    1  A    between atoms: C_5  and  C_6 
REMARK    2  A    between atoms: C_6  and  N_7 
REMARK    3  A    between atoms: C_6  and  C_11 
REMARK       I    between atoms: N_7  and  C_8 
REMARK    4  A    between atoms: C_11  and  C_12 
REMARK       I    between atoms: C_12  and  N_13 
REMARK    5  A    between atoms: N_13  and  C_14 
REMARK    6  A    between atoms: C_16  and  C_17 
ROOT
HETATM    1  C   UNL     1     -42.344  55.142 -56.208  1.00  0.00     0.224 C 
HETATM    2  N   UNL     1     -41.198  55.185 -55.435  1.00  0.00    -0.327 N 
HETATM    3  O   UNL     1     -43.299  54.385 -56.062  1.00  0.00    -0.273 OA
HETATM    4  H   UNL     1     -40.570  55.964 -55.599  1.00  0.00     0.169 HD
ENDROOT
BRANCH   1   5
HETATM    5  C   UNL     1     -42.367  56.200 -57.293  1.00  0.00     0.133 C 
BRANCH   5   6
HETATM    6  C   UNL     1     -43.569  57.131 -57.094  1.00  0.00     0.126 C 
BRANCH   6   7
HETATM    7  C   UNL     1     -44.615  57.003 -58.193  1.00  0.00    -0.035 A 
HETATM    8  C   UNL     1     -44.416  56.091 -59.241  1.00  0.00     0.010 A 
HETATM    9  C   UNL     1     -45.376  55.933 -60.246  1.00  0.00     0.007 A 
HETATM   10  C   UNL     1     -46.556  56.681 -60.223  1.00  0.00    -0.062 A 
HETATM   11  C   UNL     1     -47.584  56.532 -61.304  1.00  0.00     0.048 C 
HETATM   12  C   UNL     1     -46.757  57.598 -59.186  1.00  0.00     0.007 A 
HETATM   13  C   UNL     1     -45.798  57.755 -58.182  1.00  0.00     0.010 A 
ENDBRANCH   6   7
BRANCH   6  14
HETATM   14  N   UNL     1     -44.190  57.046 -55.772  1.00  0.00    -0.352 N 
HETATM   15  C   UNL     1     -43.933  57.892 -54.719  1.00  0.00     0.214 C 
HETATM   16  C   UNL     1     -44.636  57.509 -53.444  1.00  0.00     0.117 C 
HETATM   17  O   UNL     1     -43.197  58.871 -54.779  1.00  0.00    -0.274 OA
HETATM   18  H   UNL     1     -44.656  56.173 -55.565  1.00  0.00     0.163 HD
ENDBRANCH   6  14
ENDBRANCH   5   6
ENDBRANCH   1   5
BRANCH   2  19
HETATM   19  C   UNL     1     -40.835  54.318 -54.384  1.00  0.00     0.035 A 
HETATM   20  C   UNL     1     -40.983  54.627 -53.028  1.00  0.00     0.042 A 
HETATM   21  C   UNL     1     -40.614  53.712 -52.027  1.00  0.00    -0.021 A 
HETATM   22  C   UNL     1     -40.095  52.468 -52.412  1.00  0.00     0.012 A 
HETATM   23  C   UNL     1     -39.946  52.148 -53.762  1.00  0.00     0.003 A 
HETATM   24  C   UNL     1     -40.315  53.069 -54.741  1.00  0.00     0.029 A 
BRANCH  21  25
HETATM   25  C   UNL     1     -40.771  54.031 -50.615  1.00  0.00     0.010 A 
HETATM   26  C   UNL     1     -40.569  53.242 -49.457  1.00  0.00     0.152 A 
HETATM   27  N   UNL     1     -40.812  53.906 -48.323  1.00  0.00    -0.187 NA
HETATM   28  N   UNL     1     -41.176  55.126 -48.750  1.00  0.00    -0.289 N 
HETATM   29  H   UNL     1     -41.419  55.827 -48.058  1.00  0.00     0.188 HD
HETATM   30  C   UNL     1     -41.162  55.253 -50.108  1.00  0.00     0.123 A 
ENDBRANCH  21  25
ENDBRANCH   2  19
TORSDOF 6
ENDMDL
MODEL 5
REMARK VINA RESULT:      -8.3      2.467      3.802
REMARK  6 active torsions:
REMARK  status: ('A' for Active; 'I' for Inactive)
REMARK    1  A    between atoms: C_5  and  C_6 
REMARK    2  A    between atoms: C_6  and  N_7 
REMARK    3  A    between atoms: C_6  and  C_11 
REMARK       I    between atoms: N_7  and  C_8 
REMARK    4  A    between atoms: C_11  and  C_12 
REMARK       I    between atoms: C_12  and  N_13 
REMARK    5  A    between atoms: N_13  and  C_14 
REMARK    6  A    between atoms: C_16  and  C_17 
ROOT
HETATM    1  C   UNL     1     -43.600  56.074 -54.972  1.00  0.00     0.224 C 
HETATM    2  N   UNL     1     -43.234  55.524 -56.187  1.00  0.00    -0.327 N 
HETATM    3  O   UNL     1     -43.941  57.235 -54.766  1.00  0.00    -0.273 OA
HETATM    4  H   UNL     1     -43.120  54.517 -56.211  1.00  0.00     0.169 HD
ENDROOT
BRANCH   1   5
HETATM    5  C   UNL     1     -43.603  55.065 -53.841  1.00  0.00     0.133 C 
BRANCH   5   6
HETATM    6  C   UNL     1     -42.269  55.117 -53.087  1.00  0.00     0.126 C 
BRANCH   6   7
HETATM    7  C   UNL     1     -41.459  53.833 -53.213  1.00  0.00    -0.035 A 
HETATM    8  C   UNL     1     -40.672  53.399 -52.135  1.00  0.00     0.010 A 
HETATM    9  C   UNL     1     -39.943  52.208 -52.215  1.00  0.00     0.007 A 
HETATM   10  C   UNL     1     -39.989  51.424 -53.370  1.00  0.00    -0.062 A 
HETATM   11  C   UNL     1     -39.199  50.154 -53.472  1.00  0.00     0.048 C 
HETATM   12  C   UNL     1     -40.765  51.855 -54.451  1.00  0.00     0.007 A 
HETATM   13  C   UNL     1     -41.494  53.045 -54.372  1.00  0.00     0.010 A 
ENDBRANCH   6   7
BRANCH   6  14
HETATM   14  N   UNL     1     -41.444  56.285 -53.393  1.00  0.00    -0.352 N 
HETATM   15  C   UNL     1     -41.166  57.310 -52.520  1.00  0.00     0.214 C 
HETATM   16  C   UNL     1     -40.376  58.436 -53.133  1.00  0.00     0.117 C 
HETATM   17  O   UNL     1     -41.522  57.339 -51.346  1.00  0.00    -0.274 OA
HETATM   18  H   UNL     1     -41.268  56.450 -54.375  1.00  0.00     0.163 HD
ENDBRANCH   6  14
ENDBRANCH   5   6
ENDBRANCH   1   5
BRANCH   2  19
HETATM   19  C   UNL     1     -43.080  56.187 -57.422  1.00  0.00     0.035 A 
HETATM   20  C   UNL     1     -42.632  57.505 -57.551  1.00  0.00     0.042 A 
HETATM   21  C   UNL     1     -42.486  58.105 -58.815  1.00  0.00    -0.021 A 
HETATM   22  C   UNL     1     -42.794  57.351 -59.956  1.00  0.00     0.012 A 
HETATM   23  C   UNL     1     -43.239  56.034 -59.838  1.00  0.00     0.003 A 
HETATM   24  C   UNL     1     -43.380  55.456 -58.577  1.00  0.00     0.029 A 
BRANCH  21  25
HETATM   25  C   UNL     1     -42.017  59.477 -58.952  1.00  0.00     0.010 A 
HETATM   26  C   UNL     1     -41.510  60.385 -57.991  1.00  0.00     0.152 A 
HETATM   27  N   UNL     1     -41.169  61.565 -58.517  1.00  0.00    -0.187 NA
HETATM   28  N   UNL     1     -41.461  61.421 -59.819  1.00  0.00    -0.289 N 
HETATM   29  H   UNL     1     -41.289  62.203 -60.442  1.00  0.00     0.188 HD
HETATM   30  C   UNL     1     -41.963  60.191 -60.130  1.00  0.00     0.123 A 
ENDBRANCH  21  25
ENDBRANCH   2  19
TORSDOF 6
ENDMDL
MODEL 6
REMARK VINA RESULT:      -8.1      2.044      2.749
REMARK  6 active torsions:
REMARK  status: ('A' for Active; 'I' for Inactive)
REMARK    1  A    between atoms: C_5  and  C_6 
REMARK    2  A    between atoms: C_6  and  N_7 
REMARK    3  A    between atoms: C_6  and  C_11 
REMARK       I    between atoms: N_7  and  C_8 
REMARK    4  A    between atoms: C_11  and  C_12 
REMARK       I    between atoms: C_12  and  N_13 
REMARK    5  A    between atoms: N_13  and  C_14 
REMARK    6  A    between atoms: C_16  and  C_17 
ROOT
HETATM    1  C   UNL     1     -42.523  55.625 -56.039  1.00  0.00     0.224 C 
HETATM    2  N   UNL     1     -42.215  55.937 -57.351  1.00  0.00    -0.327 N 
HETATM    3  O   UNL     1     -43.475  56.047 -55.390  1.00  0.00    -0.273 OA
HETATM    4  H   UNL     1     -41.477  55.392 -57.785  1.00  0.00     0.169 HD
ENDROOT
BRANCH   1   5
HETATM    5  C   UNL     1     -41.569  54.617 -55.430  1.00  0.00     0.133 C 
BRANCH   5   6
HETATM    6  C   UNL     1     -41.539  54.776 -53.906  1.00  0.00     0.126 C 
BRANCH   6   7
HETATM    7  C   UNL     1     -40.941  53.574 -53.188  1.00  0.00    -0.035 A 
HETATM    8  C   UNL     1     -40.471  52.481 -53.934  1.00  0.00     0.010 A 
HETATM    9  C   UNL     1     -39.890  51.378 -53.301  1.00  0.00     0.007 A 
HETATM   10  C   UNL     1     -39.763  51.345 -51.910  1.00  0.00    -0.062 A 
HETATM   11  C   UNL     1     -39.156  50.160 -51.219  1.00  0.00     0.048 C 
HETATM   12  C   UNL     1     -40.236  52.426 -51.160  1.00  0.00     0.007 A 
HETATM   13  C   UNL     1     -40.817  53.529 -51.793  1.00  0.00     0.010 A 
ENDBRANCH   6   7
BRANCH   6  14
HETATM   14  N   UNL     1     -40.927  56.019 -53.436  1.00  0.00    -0.352 N 
HETATM   15  C   UNL     1     -41.552  56.970 -52.666  1.00  0.00     0.214 C 
HETATM   16  C   UNL     1     -40.718  58.199 -52.417  1.00  0.00     0.117 C 
HETATM   17  O   UNL     1     -42.688  56.862 -52.216  1.00  0.00    -0.274 OA
HETATM   18  H   UNL     1     -40.073  56.290 -53.907  1.00  0.00     0.163 HD
ENDBRANCH   6  14
ENDBRANCH   5   6
ENDBRANCH   1   5
BRANCH   2  19
HETATM   19  C   UNL     1     -42.861  56.868 -58.190  1.00  0.00     0.035 A 
HETATM   20  C   UNL     1     -44.090  56.638 -58.814  1.00  0.00     0.042 A 
HETATM   21  C   UNL     1     -44.689  57.615 -59.629  1.00  0.00    -0.021 A 
HETATM   22  C   UNL     1     -44.030  58.840 -59.804  1.00  0.00     0.012 A 
HETATM   23  C   UNL     1     -42.804  59.082 -59.183  1.00  0.00     0.003 A 
HETATM   24  C   UNL     1     -42.224  58.100 -58.380  1.00  0.00     0.029 A 
BRANCH  21  25
HETATM   25  C   UNL     1     -45.971  57.378 -60.277  1.00  0.00     0.010 A 
HETATM   26  C   UNL     1     -46.657  56.173 -60.567  1.00  0.00     0.152 A 
HETATM   27  N   UNL     1     -47.832  56.374 -61.170  1.00  0.00    -0.187 NA
HETATM   28  N   UNL     1     -47.904  57.710 -61.274  1.00  0.00    -0.289 N 
HETATM   29  H   UNL     1     -48.725  58.116 -61.712  1.00  0.00     0.188 HD
HETATM   30  C   UNL     1     -46.823  58.355 -60.751  1.00  0.00     0.123 A 
ENDBRANCH  21  25
ENDBRANCH   2  19
TORSDOF 6
ENDMDL
MODEL 7
REMARK VINA RESULT:      -7.9      2.222      3.137
REMARK  6 active torsions:
REMARK  status: ('A' for Active; 'I' for Inactive)
REMARK    1  A    between atoms: C_5  and  C_6 
REMARK    2  A    between atoms: C_6  and  N_7 
REMARK    3  A    between atoms: C_6  and  C_11 
REMARK       I    between atoms: N_7  and  C_8 
REMARK    4  A    between atoms: C_11  and  C_12 
REMARK       I    between atoms: C_12  and  N_13 
REMARK    5  A    between atoms: N_13  and  C_14 
REMARK    6  A    between atoms: C_16  and  C_17 
ROOT
HETATM    1  C   UNL     1     -42.461  55.848 -55.595  1.00  0.00     0.224 C 
HETATM    2  N   UNL     1     -42.266  55.970 -56.958  1.00  0.00    -0.327 N 
HETATM    3  O   UNL     1     -43.538  55.763 -55.013  1.00  0.00    -0.273 OA
HETATM    4  H   UNL     1     -41.312  55.882 -57.289  1.00  0.00     0.169 HD
ENDROOT
BRANCH   1   5
HETATM    5  C   UNL     1     -41.163  55.768 -54.815  1.00  0.00     0.133 C 
BRANCH   5   6
HETATM    6  C   UNL     1     -41.408  55.111 -53.452  1.00  0.00     0.126 C 
BRANCH   6   7
HETATM    7  C   UNL     1     -40.851  53.697 -53.359  1.00  0.00    -0.035 A 
HETATM    8  C   UNL     1     -40.338  53.230 -52.139  1.00  0.00     0.010 A 
HETATM    9  C   UNL     1     -39.849  51.925 -52.019  1.00  0.00     0.007 A 
HETATM   10  C   UNL     1     -39.865  51.059 -53.115  1.00  0.00    -0.062 A 
HETATM   11  C   UNL     1     -39.328  49.663 -53.003  1.00  0.00     0.048 C 
HETATM   12  C   UNL     1     -40.367  51.520 -54.336  1.00  0.00     0.007 A 
HETATM   13  C   UNL     1     -40.856  52.824 -54.456  1.00  0.00     0.010 A 
ENDBRANCH   6   7
BRANCH   6  14
HETATM   14  N   UNL     1     -40.984  55.914 -52.305  1.00  0.00    -0.352 N 
HETATM   15  C   UNL     1     -41.754  56.861 -51.672  1.00  0.00     0.214 C 
HETATM   16  C   UNL     1     -41.028  57.611 -50.587  1.00  0.00     0.117 C 
HETATM   17  O   UNL     1     -42.924  57.103 -51.948  1.00  0.00    -0.274 OA
HETATM   18  H   UNL     1     -39.989  55.929 -52.128  1.00  0.00     0.163 HD
ENDBRANCH   6  14
ENDBRANCH   5   6
ENDBRANCH   1   5
BRANCH   2  19
HETATM   19  C   UNL     1     -43.248  56.119 -57.959  1.00  0.00     0.035 A 
HETATM   20  C   UNL     1     -44.086  57.232 -58.074  1.00  0.00     0.042 A 
HETATM   21  C   UNL     1     -45.037  57.326 -59.104  1.00  0.00    -0.021 A 
HETATM   22  C   UNL     1     -45.130  56.279 -60.031  1.00  0.00     0.012 A 
HETATM   23  C   UNL     1     -44.296  55.165 -59.929  1.00  0.00     0.003 A 
HETATM   24  C   UNL     1     -43.360  55.087 -58.898  1.00  0.00     0.029 A 
BRANCH  21  25
HETATM   25  C   UNL     1     -45.909  58.487 -59.227  1.00  0.00     0.010 A 
HETATM   26  C   UNL     1     -46.937  58.782 -60.154  1.00  0.00     0.152 A 
HETATM   27  N   UNL     1     -47.523  59.961 -59.926  1.00  0.00    -0.187 NA
HETATM   28  N   UNL     1     -46.869  60.431 -58.852  1.00  0.00    -0.289 N 
HETATM   29  H   UNL     1     -47.138  61.336 -58.481  1.00  0.00     0.188 HD
HETATM   30  C   UNL     1     -45.902  59.586 -58.393  1.00  0.00     0.123 A 
ENDBRANCH  21  25
ENDBRANCH   2  19
TORSDOF 6
ENDMDL
MODEL 8
REMARK VINA RESULT:      -7.8      3.274      7.733
REMARK  6 active torsions:
REMARK  status: ('A' for Active; 'I' for Inactive)
REMARK    1  A    between atoms: C_5  and  C_6 
REMARK    2  A    between atoms: C_6  and  N_7 
REMARK    3  A    between atoms: C_6  and  C_11 
REMARK       I    between atoms: N_7  and  C_8 
REMARK    4  A    between atoms: C_11  and  C_12 
REMARK       I    between atoms: C_12  and  N_13 
REMARK    5  A    between atoms: N_13  and  C_14 
REMARK    6  A    between atoms: C_16  and  C_17 
ROOT
HETATM    1  C   UNL     1     -43.028  56.065 -52.947  1.00  0.00     0.224 C 
HETATM    2  N   UNL     1     -42.582  55.593 -51.726  1.00  0.00    -0.327 N 
HETATM    3  O   UNL     1     -42.675  55.675 -54.057  1.00  0.00    -0.273 OA
HETATM    4  H   UNL     1     -43.078  55.921 -50.905  1.00  0.00     0.169 HD
ENDROOT
BRANCH   1   5
HETATM    5  C   UNL     1     -44.092  57.136 -52.816  1.00  0.00     0.133 C 
BRANCH   5   6
HETATM    6  C   UNL     1     -43.511  58.504 -53.189  1.00  0.00     0.126 C 
BRANCH   6   7
HETATM    7  C   UNL     1     -42.230  58.837 -52.437  1.00  0.00    -0.035 A 
HETATM    8  C   UNL     1     -42.291  59.198 -51.082  1.00  0.00     0.010 A 
HETATM    9  C   UNL     1     -41.126  59.478 -50.362  1.00  0.00     0.007 A 
HETATM   10  C   UNL     1     -39.875  59.400 -50.978  1.00  0.00    -0.062 A 
HETATM   11  C   UNL     1     -38.620  59.714 -50.219  1.00  0.00     0.048 C 
HETATM   12  C   UNL     1     -39.807  59.048 -52.330  1.00  0.00     0.007 A 
HETATM   13  C   UNL     1     -40.971  58.768 -53.050  1.00  0.00     0.010 A 
ENDBRANCH   6   7
BRANCH   6  14
HETATM   14  N   UNL     1     -43.343  58.721 -54.626  1.00  0.00    -0.352 N 
HETATM   15  C   UNL     1     -44.227  59.394 -55.435  1.00  0.00     0.214 C 
HETATM   16  C   UNL     1     -43.853  59.377 -56.894  1.00  0.00     0.117 C 
HETATM   17  O   UNL     1     -45.240  59.959 -55.038  1.00  0.00    -0.274 OA
HETATM   18  H   UNL     1     -42.650  58.138 -55.077  1.00  0.00     0.163 HD
ENDBRANCH   6  14
ENDBRANCH   5   6
ENDBRANCH   1   5
BRANCH   2  19
HETATM   19  C   UNL     1     -41.568  54.641 -51.488  1.00  0.00     0.035 A 
HETATM   20  C   UNL     1     -41.339  53.524 -52.297  1.00  0.00     0.042 A 
HETATM   21  C   UNL     1     -40.302  52.619 -52.012  1.00  0.00    -0.021 A 
HETATM   22  C   UNL     1     -39.487  52.858 -50.896  1.00  0.00     0.012 A 
HETATM   23  C   UNL     1     -39.706  53.972 -50.085  1.00  0.00     0.003 A 
HETATM   24  C   UNL     1     -40.741  54.858 -50.381  1.00  0.00     0.029 A 
BRANCH  21  25
HETATM   25  C   UNL     1     -40.059  51.457 -52.856  1.00  0.00     0.010 A 
HETATM   26  C   UNL     1     -39.605  50.154 -52.534  1.00  0.00     0.152 A 
HETATM   27  N   UNL     1     -39.519  49.354 -53.600  1.00  0.00    -0.187 NA
HETATM   28  N   UNL     1     -39.913  50.141 -54.613  1.00  0.00    -0.289 N 
HETATM   29  H   UNL     1     -39.930  49.750 -55.550  1.00  0.00     0.188 HD
HETATM   30  C   UNL     1     -40.252  51.403 -54.221  1.00  0.00     0.123 A 
ENDBRANCH  21  25
ENDBRANCH   2  19
TORSDOF 6
ENDMDL
MODEL 9
REMARK VINA RESULT:      -7.7     14.709     18.095
REMARK  6 active torsions:
REMARK  status: ('A' for Active; 'I' for Inactive)
REMARK    1  A    between atoms: C_5  and  C_6 
REMARK    2  A    between atoms: C_6  and  N_7 
REMARK    3  A    between atoms: C_6  and  C_11 
REMARK       I    between atoms: N_7  and  C_8 
REMARK    4  A    between atoms: C_11  and  C_12 
REMARK       I    between atoms: C_12  and  N_13 
REMARK    5  A    between atoms: N_13  and  C_14 
REMARK    6  A    between atoms: C_16  and  C_17 
ROOT
HETATM    1  C   UNL     1     -33.943  40.243 -54.396  1.00  0.00     0.224 C 
HETATM    2  N   UNL     1     -33.537  40.927 -53.265  1.00  0.00    -0.327 N 
HETATM    3  O   UNL     1     -34.272  39.062 -54.460  1.00  0.00    -0.273 OA
HETATM    4  H   UNL     1     -33.440  41.932 -53.354  1.00  0.00     0.169 HD
ENDROOT
BRANCH   1   5
HETATM    5  C   UNL     1     -34.009  41.122 -55.629  1.00  0.00     0.133 C 
BRANCH   5   6
HETATM    6  C   UNL     1     -35.458  41.548 -55.894  1.00  0.00     0.126 C 
BRANCH   6   7
HETATM    7  C   UNL     1     -35.968  41.118 -57.263  1.00  0.00    -0.035 A 
HETATM    8  C   UNL     1     -35.735  39.810 -57.714  1.00  0.00     0.010 A 
HETATM    9  C   UNL     1     -36.220  39.382 -58.953  1.00  0.00     0.007 A 
HETATM   10  C   UNL     1     -36.951  40.251 -59.767  1.00  0.00    -0.062 A 
HETATM   11  C   UNL     1     -37.461  39.808 -61.106  1.00  0.00     0.048 C 
HETATM   12  C   UNL     1     -37.179  41.559 -59.328  1.00  0.00     0.007 A 
HETATM   13  C   UNL     1     -36.695  41.987 -58.089  1.00  0.00     0.010 A 
ENDBRANCH   6   7
BRANCH   6  14
HETATM   14  N   UNL     1     -36.404  41.170 -54.844  1.00  0.00    -0.352 N 
HETATM   15  C   UNL     1     -36.570  41.832 -53.651  1.00  0.00     0.214 C 
HETATM   16  C   UNL     1     -37.539  41.163 -52.712  1.00  0.00     0.117 C 
HETATM   17  O   UNL     1     -35.990  42.868 -53.344  1.00  0.00    -0.274 OA
HETATM   18  H   UNL     1     -36.783  40.235 -54.914  1.00  0.00     0.163 HD
ENDBRANCH   6  14
ENDBRANCH   5   6
ENDBRANCH   1   5
BRANCH   2  19
HETATM   19  C   UNL     1     -33.322  40.405 -51.972  1.00  0.00     0.035 A 
HETATM   20  C   UNL     1     -34.344  39.964 -51.126  1.00  0.00     0.042 A 
HETATM   21  C   UNL     1     -34.060  39.440 -49.853  1.00  0.00    -0.021 A 
HETATM   22  C   UNL     1     -32.723  39.358 -49.441  1.00  0.00     0.012 A 
HETATM   23  C   UNL     1     -31.695  39.792 -50.279  1.00  0.00     0.003 A 
HETATM   24  C   UNL     1     -31.995  40.311 -51.538  1.00  0.00     0.029 A 
BRANCH  21  25
HETATM   25  C   UNL     1     -35.124  38.977 -48.971  1.00  0.00     0.010 A 
HETATM   26  C   UNL     1     -36.513  39.251 -48.969  1.00  0.00     0.152 A 
HETATM   27  N   UNL     1     -37.168  38.619 -47.991  1.00  0.00    -0.187 NA
HETATM   28  N   UNL     1     -36.199  37.940 -47.356  1.00  0.00    -0.289 N 
HETATM   29  H   UNL     1     -36.454  37.372 -46.555  1.00  0.00     0.188 HD
HETATM   30  C   UNL     1     -34.964  38.115 -47.906  1.00  0.00     0.123 A 
ENDBRANCH  21  25
ENDBRANCH   2  19
TORSDOF 6
ENDMDL
MODEL 10
REMARK VINA RESULT:      -7.7      4.521      8.436
REMARK  6 active torsions:
REMARK  status: ('A' for Active; 'I' for Inactive)
REMARK    1  A    between atoms: C_5  and  C_6 
REMARK    2  A    between atoms: C_6  and  N_7 
REMARK    3  A    between atoms: C_6  and  C_11 
REMARK       I    between atoms: N_7  and  C_8 
REMARK    4  A    between atoms: C_11  and  C_12 
REMARK       I    between atoms: C_12  and  N_13 
REMARK    5  A    between atoms: N_13  and  C_14 
REMARK    6  A    between atoms: C_16  and  C_17 
ROOT
HETATM    1  C   UNL     1     -41.622  57.141 -52.339  1.00  0.00     0.224 C 
HETATM    2  N   UNL     1     -41.743  55.777 -52.140  1.00  0.00    -0.327 N 
HETATM    3  O   UNL     1     -41.045  57.697 -53.268  1.00  0.00    -0.273 OA
HETATM    4  H   UNL     1     -42.374  55.481 -51.403  1.00  0.00     0.169 HD
ENDROOT
BRANCH   1   5
HETATM    5  C   UNL     1     -42.344  57.959 -51.288  1.00  0.00     0.133 C 
BRANCH   5   6
HETATM    6  C   UNL     1     -41.775  59.382 -51.247  1.00  0.00     0.126 C 
BRANCH   6   7
HETATM    7  C   UNL     1     -42.811  60.432 -50.869  1.00  0.00    -0.035 A 
HETATM    8  C   UNL     1     -44.166  60.076 -50.787  1.00  0.00     0.010 A 
HETATM    9  C   UNL     1     -45.132  61.014 -50.413  1.00  0.00     0.007 A 
HETATM   10  C   UNL     1     -44.765  62.327 -50.109  1.00  0.00    -0.062 A 
HETATM   11  C   UNL     1     -45.796  63.347 -49.723  1.00  0.00     0.048 C 
HETATM   12  C   UNL     1     -43.418  62.692 -50.197  1.00  0.00     0.007 A 
HETATM   13  C   UNL     1     -42.452  61.754 -50.571  1.00  0.00     0.010 A 
ENDBRANCH   6   7
BRANCH   6  14
HETATM   14  N   UNL     1     -40.566  59.529 -50.436  1.00  0.00    -0.352 N 
HETATM   15  C   UNL     1     -39.280  59.523 -50.922  1.00  0.00     0.214 C 
HETATM   16  C   UNL     1     -38.223  59.588 -49.852  1.00  0.00     0.117 C 
HETATM   17  O   UNL     1     -38.987  59.461 -52.112  1.00  0.00    -0.274 OA
HETATM   18  H   UNL     1     -40.688  59.392 -49.442  1.00  0.00     0.163 HD
ENDBRANCH   6  14
ENDBRANCH   5   6
ENDBRANCH   1   5
BRANCH   2  19
HETATM   19  C   UNL     1     -41.158  54.741 -52.896  1.00  0.00     0.035 A 
HETATM   20  C   UNL     1     -40.797  53.497 -52.370  1.00  0.00     0.042 A 
HETATM   21  C   UNL     1     -40.229  52.499 -53.182  1.00  0.00    -0.021 A 
HETATM   22  C   UNL     1     -40.033  52.770 -54.543  1.00  0.00     0.012 A 
HETATM   23  C   UNL     1     -40.393  54.007 -55.079  1.00  0.00     0.003 A 
HETATM   24  C   UNL     1     -40.953  54.986 -54.259  1.00  0.00     0.029 A 
BRANCH  21  25
HETATM   25  C   UNL     1     -39.855  51.201 -52.636  1.00  0.00     0.010 A 
HETATM   26  C   UNL     1     -39.586  50.796 -51.306  1.00  0.00     0.152 A 
HETATM   27  N   UNL     1     -39.283  49.498 -51.207  1.00  0.00    -0.187 NA
HETATM   28  N   UNL     1     -39.351  49.066 -52.476  1.00  0.00    -0.289 N 
HETATM   29  H   UNL     1     -39.153  48.088 -52.664  1.00  0.00     0.188 HD
HETATM   30  C   UNL     1     -39.695  50.041 -53.365  1.00  0.00     0.123 A 
ENDBRANCH  21  25
ENDBRANCH   2  19
TORSDOF 6
ENDMDL
