MODEL 1
REMARK VINA RESULT:      -9.4      0.000      0.000
REMARK  7 active torsions:
REMARK  status: ('A' for Active; 'I' for Inactive)
REMARK    1  A    between atoms: C_4  and  C_5 
REMARK    2  A    between atoms: C_5  and  N_6 
REMARK    3  A    between atoms: C_14  and  C_15 
REMARK    4  A    between atoms: C_18  and  O_19 
REMARK    5  A    between atoms: O_19  and  C_20 
REMARK    6  A    between atoms: C_20  and  C_21 
REMARK    7  A    between atoms: C_22  and  C_23 
ROOT
HETATM    1  N   UNL     1     -40.533  53.645 -50.780  1.00  0.00    -0.063 N 
HETATM    2  H   UNL     1     -40.123  53.879 -51.692  1.00  0.00     0.280 HD
HETATM    3  C   UNL     1     -42.012  53.974 -50.918  1.00  0.00     0.282 C 
HETATM    4  C   UNL     1     -42.172  55.438 -51.150  1.00  0.00     0.018 A 
HETATM    5  C   UNL     1     -41.221  56.395 -50.843  1.00  0.00    -0.023 A 
HETATM    6  C   UNL     1     -41.677  57.706 -51.196  1.00  0.00     0.073 A 
HETATM    7  C   UNL     1     -42.932  57.677 -51.754  1.00  0.00     0.088 A 
HETATM    8  N   UNL     1     -43.570  58.772 -52.208  1.00  0.00    -0.358 N 
HETATM    9  C   UNL     1     -43.075  60.093 -51.886  1.00  0.00     0.219 C 
HETATM   10  N   UNL     1     -41.693  60.073 -51.477  1.00  0.00    -0.332 N 
HETATM   11  C   UNL     1     -40.995  58.977 -51.059  1.00  0.00     0.256 C 
HETATM   12  O   UNL     1     -39.860  59.072 -50.605  1.00  0.00    -0.267 OA
HETATM   13  S   UNL     1     -43.582  56.107 -51.824  1.00  0.00    -0.074 SA
HETATM   14  C   UNL     1     -39.888  56.025 -50.260  1.00  0.00     0.068 C 
HETATM   15  C   UNL     1     -39.862  54.565 -49.766  1.00  0.00     0.240 C 
HETATM   16  H   UNL     1     -44.566  58.727 -52.406  1.00  0.00     0.162 HD
HETATM   17  H   UNL     1     -41.232  60.958 -51.331  1.00  0.00     0.165 HD
ENDROOT
BRANCH   9  18
HETATM   18  C   UNL     1     -43.984  60.759 -50.871  1.00  0.00    -0.016 A 
HETATM   19  C   UNL     1     -45.383  60.781 -51.020  1.00  0.00     0.014 A 
HETATM   20  C   UNL     1     -46.194  61.442 -50.090  1.00  0.00     0.038 A 
HETATM   21  C   UNL     1     -45.607  62.111 -49.022  1.00  0.00     0.079 A 
HETATM   22  C   UNL     1     -44.224  62.088 -48.844  1.00  0.00     0.038 A 
HETATM   23  C   UNL     1     -43.418  61.423 -49.768  1.00  0.00     0.014 A 
BRANCH  21  24
HETATM   24  O   UNL     1     -46.333  62.797 -48.030  1.00  0.00    -0.276 OA
BRANCH  24  25
HETATM   25  C   UNL     1     -46.705  62.174 -46.847  1.00  0.00     0.288 C 
HETATM   26  O   UNL     1     -47.462  61.224 -46.716  1.00  0.00    -0.260 OA
BRANCH  25  27
HETATM   27  C   UNL     1     -46.058  62.827 -45.687  1.00  0.00     0.085 C 
HETATM   28  C   UNL     1     -45.047  62.290 -44.989  1.00  0.00     0.043 C 
BRANCH  28  29
HETATM   29  C   UNL     1     -44.447  63.002 -43.915  1.00  0.00     0.075 A 
HETATM   30  O   UNL     1     -44.822  64.268 -43.520  1.00  0.00    -0.323 OA
HETATM   31  C   UNL     1     -44.041  64.641 -42.476  1.00  0.00     0.142 A 
HETATM   32  C   UNL     1     -43.149  63.647 -42.168  1.00  0.00     0.027 A 
HETATM   33  C   UNL     1     -43.408  62.599 -43.082  1.00  0.00     0.039 A 
ENDBRANCH  28  29
ENDBRANCH  25  27
ENDBRANCH  24  25
ENDBRANCH  21  24
ENDBRANCH   9  18
BRANCH   1  34
HETATM   34  C   UNL     1     -40.254  52.178 -50.580  1.00  0.00     0.273 C 
BRANCH  34  35
HETATM   35  C   UNL     1     -39.984  51.385 -51.829  1.00  0.00    -0.033 A 
HETATM   36  C   UNL     1     -40.015  52.004 -53.089  1.00  0.00     0.009 A 
HETATM   37  C   UNL     1     -39.786  51.262 -54.248  1.00  0.00     0.001 A 
HETATM   38  C   UNL     1     -39.519  49.898 -54.163  1.00  0.00     0.000 A 
HETATM   39  C   UNL     1     -39.472  49.274 -52.919  1.00  0.00     0.001 A 
HETATM   40  C   UNL     1     -39.700  50.012 -51.758  1.00  0.00     0.009 A 
ENDBRANCH  34  35
ENDBRANCH   1  34
TORSDOF 7
ENDMDL
MODEL 2
REMARK VINA RESULT:      -9.1      4.371      6.857
REMARK  7 active torsions:
REMARK  status: ('A' for Active; 'I' for Inactive)
REMARK    1  A    between atoms: C_4  and  C_5 
REMARK    2  A    between atoms: C_5  and  N_6 
REMARK    3  A    between atoms: C_14  and  C_15 
REMARK    4  A    between atoms: C_18  and  O_19 
REMARK    5  A    between atoms: O_19  and  C_20 
REMARK    6  A    between atoms: C_20  and  C_21 
REMARK    7  A    between atoms: C_22  and  C_23 
ROOT
HETATM    1  N   UNL     1     -41.291  54.467 -53.755  1.00  0.00    -0.063 N 
HETATM    2  H   UNL     1     -40.864  54.481 -52.821  1.00  0.00     0.280 HD
HETATM    3  C   UNL     1     -41.094  55.874 -54.298  1.00  0.00     0.282 C 
HETATM    4  C   UNL     1     -41.844  56.841 -53.445  1.00  0.00     0.018 A 
HETATM    5  C   UNL     1     -42.890  56.507 -52.604  1.00  0.00    -0.023 A 
HETATM    6  C   UNL     1     -43.390  57.661 -51.920  1.00  0.00     0.073 A 
HETATM    7  C   UNL     1     -42.700  58.798 -52.266  1.00  0.00     0.088 A 
HETATM    8  N   UNL     1     -42.947  60.009 -51.733  1.00  0.00    -0.358 N 
HETATM    9  C   UNL     1     -44.145  60.236 -50.953  1.00  0.00     0.219 C 
HETATM   10  N   UNL     1     -44.720  59.006 -50.469  1.00  0.00    -0.332 N 
HETATM   11  C   UNL     1     -44.460  57.754 -50.947  1.00  0.00     0.256 C 
HETATM   12  O   UNL     1     -45.090  56.775 -50.565  1.00  0.00    -0.267 OA
HETATM   13  S   UNL     1     -41.491  58.505 -53.425  1.00  0.00    -0.074 SA
HETATM   14  C   UNL     1     -43.354  55.088 -52.447  1.00  0.00     0.068 C 
HETATM   15  C   UNL     1     -42.771  54.169 -53.538  1.00  0.00     0.240 C 
HETATM   16  H   UNL     1     -42.564  60.840 -52.176  1.00  0.00     0.162 HD
HETATM   17  H   UNL     1     -45.500  59.069 -49.832  1.00  0.00     0.165 HD
ENDROOT
BRANCH   9  18
HETATM   18  C   UNL     1     -45.129  61.081 -51.739  1.00  0.00    -0.016 A 
HETATM   19  C   UNL     1     -44.725  62.214 -52.469  1.00  0.00     0.014 A 
HETATM   20  C   UNL     1     -45.662  63.002 -53.148  1.00  0.00     0.038 A 
HETATM   21  C   UNL     1     -47.011  62.676 -53.077  1.00  0.00     0.079 A 
HETATM   22  C   UNL     1     -47.433  61.547 -52.375  1.00  0.00     0.038 A 
HETATM   23  C   UNL     1     -46.497  60.760 -51.704  1.00  0.00     0.014 A 
BRANCH  21  24
HETATM   24  O   UNL     1     -48.029  63.398 -53.730  1.00  0.00    -0.276 OA
BRANCH  24  25
HETATM   25  C   UNL     1     -49.012  64.067 -53.015  1.00  0.00     0.288 C 
HETATM   26  O   UNL     1     -48.859  64.782 -52.037  1.00  0.00    -0.260 OA
BRANCH  25  27
HETATM   27  C   UNL     1     -50.349  63.799 -53.588  1.00  0.00     0.085 C 
HETATM   28  C   UNL     1     -50.869  62.573 -53.745  1.00  0.00     0.043 C 
BRANCH  28  29
HETATM   29  C   UNL     1     -52.182  62.400 -54.260  1.00  0.00     0.075 A 
HETATM   30  O   UNL     1     -52.508  61.522 -55.271  1.00  0.00    -0.323 OA
HETATM   31  C   UNL     1     -53.838  61.619 -55.513  1.00  0.00     0.142 A 
HETATM   32  C   UNL     1     -54.408  62.549 -54.683  1.00  0.00     0.027 A 
HETATM   33  C   UNL     1     -53.354  63.047 -53.881  1.00  0.00     0.039 A 
ENDBRANCH  28  29
ENDBRANCH  25  27
ENDBRANCH  24  25
ENDBRANCH  21  24
ENDBRANCH   9  18
BRANCH   1  34
HETATM   34  C   UNL     1     -40.542  53.410 -54.523  1.00  0.00     0.273 C 
BRANCH  34  35
HETATM   35  C   UNL     1     -40.199  52.161 -53.757  1.00  0.00    -0.033 A 
HETATM   36  C   UNL     1     -39.850  52.230 -52.399  1.00  0.00     0.009 A 
HETATM   37  C   UNL     1     -39.510  51.074 -51.695  1.00  0.00     0.001 A 
HETATM   38  C   UNL     1     -39.521  49.838 -52.336  1.00  0.00     0.000 A 
HETATM   39  C   UNL     1     -39.879  49.753 -53.680  1.00  0.00     0.001 A 
HETATM   40  C   UNL     1     -40.219  50.907 -54.387  1.00  0.00     0.009 A 
ENDBRANCH  34  35
ENDBRANCH   1  34
TORSDOF 7
ENDMDL
MODEL 3
REMARK VINA RESULT:      -8.5      8.088     12.854
REMARK  7 active torsions:
REMARK  status: ('A' for Active; 'I' for Inactive)
REMARK    1  A    between atoms: C_4  and  C_5 
REMARK    2  A    between atoms: C_5  and  N_6 
REMARK    3  A    between atoms: C_14  and  C_15 
REMARK    4  A    between atoms: C_18  and  O_19 
REMARK    5  A    between atoms: O_19  and  C_20 
REMARK    6  A    between atoms: C_20  and  C_21 
REMARK    7  A    between atoms: C_22  and  C_23 
ROOT
HETATM    1  N   UNL     1     -47.816  58.693 -62.058  1.00  0.00    -0.063 N 
HETATM    2  H   UNL     1     -47.117  58.460 -62.773  1.00  0.00     0.280 HD
HETATM    3  C   UNL     1     -47.049  59.474 -61.001  1.00  0.00     0.282 C 
HETATM    4  C   UNL     1     -46.015  58.592 -60.388  1.00  0.00     0.018 A 
HETATM    5  C   UNL     1     -46.036  57.209 -60.423  1.00  0.00    -0.023 A 
HETATM    6  C   UNL     1     -44.897  56.659 -59.750  1.00  0.00     0.073 A 
HETATM    7  C   UNL     1     -44.076  57.642 -59.252  1.00  0.00     0.088 A 
HETATM    8  N   UNL     1     -42.919  57.390 -58.612  1.00  0.00    -0.358 N 
HETATM    9  C   UNL     1     -42.602  56.048 -58.172  1.00  0.00     0.219 C 
HETATM   10  N   UNL     1     -43.377  55.051 -58.866  1.00  0.00    -0.332 N 
HETATM   11  C   UNL     1     -44.526  55.271 -59.568  1.00  0.00     0.256 C 
HETATM   12  O   UNL     1     -45.192  54.346 -60.020  1.00  0.00    -0.267 OA
HETATM   13  S   UNL     1     -44.671  59.207 -59.547  1.00  0.00    -0.074 SA
HETATM   14  C   UNL     1     -47.120  56.453 -61.135  1.00  0.00     0.068 C 
HETATM   15  C   UNL     1     -48.310  57.363 -61.500  1.00  0.00     0.240 C 
HETATM   16  H   UNL     1     -42.468  58.130 -58.080  1.00  0.00     0.162 HD
HETATM   17  H   UNL     1     -43.153  54.081 -58.700  1.00  0.00     0.165 HD
ENDROOT
BRANCH   9  18
HETATM   18  C   UNL     1     -42.725  55.950 -56.663  1.00  0.00    -0.016 A 
HETATM   19  C   UNL     1     -42.314  56.990 -55.810  1.00  0.00     0.014 A 
HETATM   20  C   UNL     1     -42.397  56.854 -54.420  1.00  0.00     0.038 A 
HETATM   21  C   UNL     1     -42.865  55.663 -53.875  1.00  0.00     0.079 A 
HETATM   22  C   UNL     1     -43.295  54.626 -54.701  1.00  0.00     0.038 A 
HETATM   23  C   UNL     1     -43.217  54.766 -56.087  1.00  0.00     0.014 A 
BRANCH  21  24
HETATM   24  O   UNL     1     -42.995  55.430 -52.492  1.00  0.00    -0.276 OA
BRANCH  24  25
HETATM   25  C   UNL     1     -41.955  54.888 -51.751  1.00  0.00     0.288 C 
HETATM   26  O   UNL     1     -41.365  55.404 -50.814  1.00  0.00    -0.260 OA
BRANCH  25  27
HETATM   27  C   UNL     1     -41.604  53.540 -52.251  1.00  0.00     0.085 C 
HETATM   28  C   UNL     1     -40.361  53.159 -52.576  1.00  0.00     0.043 C 
BRANCH  28  29
HETATM   29  C   UNL     1     -40.097  51.830 -53.005  1.00  0.00     0.075 A 
HETATM   30  O   UNL     1     -39.621  50.831 -52.183  1.00  0.00    -0.323 OA
HETATM   31  C   UNL     1     -39.480  49.700 -52.918  1.00  0.00     0.142 A 
HETATM   32  C   UNL     1     -39.851  49.926 -54.218  1.00  0.00     0.027 A 
HETATM   33  C   UNL     1     -40.247  51.283 -54.276  1.00  0.00     0.039 A 
ENDBRANCH  28  29
ENDBRANCH  25  27
ENDBRANCH  24  25
ENDBRANCH  21  24
ENDBRANCH   9  18
BRANCH   1  34
HETATM   34  C   UNL     1     -48.864  59.505 -62.770  1.00  0.00     0.273 C 
BRANCH  34  35
HETATM   35  C   UNL     1     -50.196  59.611 -62.078  1.00  0.00    -0.033 A 
HETATM   36  C   UNL     1     -50.373  60.496 -61.002  1.00  0.00     0.009 A 
HETATM   37  C   UNL     1     -51.602  60.577 -60.347  1.00  0.00     0.001 A 
HETATM   38  C   UNL     1     -52.668  59.782 -60.760  1.00  0.00     0.000 A 
HETATM   39  C   UNL     1     -52.510  58.909 -61.833  1.00  0.00     0.001 A 
HETATM   40  C   UNL     1     -51.283  58.825 -62.492  1.00  0.00     0.009 A 
ENDBRANCH  34  35
ENDBRANCH   1  34
TORSDOF 7
ENDMDL
MODEL 4
REMARK VINA RESULT:      -8.5      5.934     12.088
REMARK  7 active torsions:
REMARK  status: ('A' for Active; 'I' for Inactive)
REMARK    1  A    between atoms: C_4  and  C_5 
REMARK    2  A    between atoms: C_5  and  N_6 
REMARK    3  A    between atoms: C_14  and  C_15 
REMARK    4  A    between atoms: C_18  and  O_19 
REMARK    5  A    between atoms: O_19  and  C_20 
REMARK    6  A    between atoms: C_20  and  C_21 
REMARK    7  A    between atoms: C_22  and  C_23 
ROOT
HETATM    1  N   UNL     1     -44.592  61.375 -49.403  1.00  0.00    -0.063 N 
HETATM    2  H   UNL     1     -43.905  60.958 -48.762  1.00  0.00     0.280 HD
HETATM    3  C   UNL     1     -45.375  60.195 -49.959  1.00  0.00     0.282 C 
HETATM    4  C   UNL     1     -44.459  59.320 -50.744  1.00  0.00     0.018 A 
HETATM    5  C   UNL     1     -43.241  59.718 -51.267  1.00  0.00    -0.023 A 
HETATM    6  C   UNL     1     -42.601  58.641 -51.962  1.00  0.00     0.073 A 
HETATM    7  C   UNL     1     -43.353  57.492 -51.923  1.00  0.00     0.088 A 
HETATM    8  N   UNL     1     -42.956  56.325 -52.466  1.00  0.00    -0.358 N 
HETATM    9  C   UNL     1     -41.822  56.284 -53.364  1.00  0.00     0.219 C 
HETATM   10  N   UNL     1     -40.975  57.441 -53.225  1.00  0.00    -0.332 N 
HETATM   11  C   UNL     1     -41.320  58.624 -52.638  1.00  0.00     0.256 C 
HETATM   12  O   UNL     1     -40.582  59.602 -52.677  1.00  0.00    -0.267 OA
HETATM   13  S   UNL     1     -44.827  57.698 -51.101  1.00  0.00    -0.074 SA
HETATM   14  C   UNL     1     -42.705  61.104 -51.053  1.00  0.00     0.068 C 
HETATM   15  C   UNL     1     -43.783  62.058 -50.501  1.00  0.00     0.240 C 
HETATM   16  H   UNL     1     -43.632  55.578 -52.599  1.00  0.00     0.162 HD
HETATM   17  H   UNL     1     -40.106  57.453 -53.737  1.00  0.00     0.165 HD
ENDROOT
BRANCH   9  18
HETATM   18  C   UNL     1     -42.292  56.060 -54.789  1.00  0.00    -0.016 A 
HETATM   19  C   UNL     1     -42.655  57.124 -55.633  1.00  0.00     0.014 A 
HETATM   20  C   UNL     1     -43.127  56.885 -56.928  1.00  0.00     0.038 A 
HETATM   21  C   UNL     1     -43.266  55.576 -57.376  1.00  0.00     0.079 A 
HETATM   22  C   UNL     1     -42.894  54.505 -56.564  1.00  0.00     0.038 A 
HETATM   23  C   UNL     1     -42.418  54.746 -55.275  1.00  0.00     0.014 A 
BRANCH  21  24
HETATM   24  O   UNL     1     -43.723  55.230 -58.662  1.00  0.00    -0.276 OA
BRANCH  24  25
HETATM   25  C   UNL     1     -43.364  55.971 -59.779  1.00  0.00     0.288 C 
HETATM   26  O   UNL     1     -42.241  56.327 -60.102  1.00  0.00    -0.260 OA
BRANCH  25  27
HETATM   27  C   UNL     1     -44.557  56.319 -60.581  1.00  0.00     0.085 C 
HETATM   28  C   UNL     1     -45.748  56.641 -60.057  1.00  0.00     0.043 C 
BRANCH  28  29
HETATM   29  C   UNL     1     -46.836  57.010 -60.895  1.00  0.00     0.075 A 
HETATM   30  O   UNL     1     -47.457  56.154 -61.778  1.00  0.00    -0.323 OA
HETATM   31  C   UNL     1     -48.443  56.834 -62.414  1.00  0.00     0.142 A 
HETATM   32  C   UNL     1     -48.489  58.131 -61.974  1.00  0.00     0.027 A 
HETATM   33  C   UNL     1     -47.466  58.246 -61.002  1.00  0.00     0.039 A 
ENDBRANCH  28  29
ENDBRANCH  25  27
ENDBRANCH  24  25
ENDBRANCH  21  24
ENDBRANCH   9  18
BRANCH   1  34
HETATM   34  C   UNL     1     -45.417  62.307 -48.557  1.00  0.00     0.273 C 
BRANCH  34  35
HETATM   35  C   UNL     1     -45.142  62.269 -47.078  1.00  0.00    -0.033 A 
HETATM   36  C   UNL     1     -45.245  63.435 -46.302  1.00  0.00     0.009 A 
HETATM   37  C   UNL     1     -44.968  63.403 -44.935  1.00  0.00     0.001 A 
HETATM   38  C   UNL     1     -44.591  62.208 -44.327  1.00  0.00     0.000 A 
HETATM   39  C   UNL     1     -44.498  61.041 -45.082  1.00  0.00     0.001 A 
HETATM   40  C   UNL     1     -44.774  61.069 -46.449  1.00  0.00     0.009 A 
ENDBRANCH  34  35
ENDBRANCH   1  34
TORSDOF 7
ENDMDL
MODEL 5
REMARK VINA RESULT:      -8.5      2.008      2.905
REMARK  7 active torsions:
REMARK  status: ('A' for Active; 'I' for Inactive)
REMARK    1  A    between atoms: C_4  and  C_5 
REMARK    2  A    between atoms: C_5  and  N_6 
REMARK    3  A    between atoms: C_14  and  C_15 
REMARK    4  A    between atoms: C_18  and  O_19 
REMARK    5  A    between atoms: O_19  and  C_20 
REMARK    6  A    between atoms: C_20  and  C_21 
REMARK    7  A    between atoms: C_22  and  C_23 
ROOT
HETATM    1  N   UNL     1     -40.819  54.154 -50.942  1.00  0.00    -0.063 N 
HETATM    2  H   UNL     1     -40.143  54.328 -51.696  1.00  0.00     0.280 HD
HETATM    3  C   UNL     1     -42.184  54.281 -51.603  1.00  0.00     0.282 C 
HETATM    4  C   UNL     1     -42.366  55.676 -52.095  1.00  0.00     0.018 A 
HETATM    5  C   UNL     1     -41.652  56.772 -51.645  1.00  0.00    -0.023 A 
HETATM    6  C   UNL     1     -42.060  57.966 -52.323  1.00  0.00     0.073 A 
HETATM    7  C   UNL     1     -43.045  57.717 -53.247  1.00  0.00     0.088 A 
HETATM    8  N   UNL     1     -43.572  58.664 -54.046  1.00  0.00    -0.358 N 
HETATM    9  C   UNL     1     -43.318  60.065 -53.787  1.00  0.00     0.219 C 
HETATM   10  N   UNL     1     -42.160  60.263 -52.952  1.00  0.00    -0.332 N 
HETATM   11  C   UNL     1     -41.564  59.319 -52.167  1.00  0.00     0.256 C 
HETATM   12  O   UNL     1     -40.661  59.605 -51.389  1.00  0.00    -0.267 OA
HETATM   13  S   UNL     1     -43.511  56.082 -53.285  1.00  0.00    -0.074 SA
HETATM   14  C   UNL     1     -40.571  56.640 -50.611  1.00  0.00     0.068 C 
HETATM   15  C   UNL     1     -40.604  55.264 -49.919  1.00  0.00     0.240 C 
HETATM   16  H   UNL     1     -44.435  58.474 -54.548  1.00  0.00     0.162 HD
HETATM   17  H   UNL     1     -41.845  61.209 -52.801  1.00  0.00     0.165 HD
ENDROOT
BRANCH   9  18
HETATM   18  C   UNL     1     -44.566  60.730 -53.237  1.00  0.00    -0.016 A 
HETATM   19  C   UNL     1     -45.491  60.038 -52.435  1.00  0.00     0.014 A 
HETATM   20  C   UNL     1     -46.656  60.664 -51.979  1.00  0.00     0.038 A 
HETATM   21  C   UNL     1     -46.916  61.979 -52.348  1.00  0.00     0.079 A 
HETATM   22  C   UNL     1     -46.005  62.691 -53.127  1.00  0.00     0.038 A 
HETATM   23  C   UNL     1     -44.841  62.067 -53.576  1.00  0.00     0.014 A 
BRANCH  21  24
HETATM   24  O   UNL     1     -48.053  62.701 -51.936  1.00  0.00    -0.276 OA
BRANCH  24  25
HETATM   25  C   UNL     1     -47.984  63.630 -50.907  1.00  0.00     0.288 C 
HETATM   26  O   UNL     1     -48.481  64.745 -50.883  1.00  0.00    -0.260 OA
BRANCH  25  27
HETATM   27  C   UNL     1     -47.187  63.102 -49.779  1.00  0.00     0.085 C 
HETATM   28  C   UNL     1     -47.618  63.054 -48.510  1.00  0.00     0.043 C 
BRANCH  28  29
HETATM   29  C   UNL     1     -46.809  62.488 -47.488  1.00  0.00     0.075 A 
HETATM   30  O   UNL     1     -46.965  61.210 -46.996  1.00  0.00    -0.323 OA
HETATM   31  C   UNL     1     -46.034  61.004 -46.033  1.00  0.00     0.142 A 
HETATM   32  C   UNL     1     -45.260  62.123 -45.869  1.00  0.00     0.027 A 
HETATM   33  C   UNL     1     -45.750  63.071 -46.798  1.00  0.00     0.039 A 
ENDBRANCH  28  29
ENDBRANCH  25  27
ENDBRANCH  24  25
ENDBRANCH  21  24
ENDBRANCH   9  18
BRANCH   1  34
HETATM   34  C   UNL     1     -40.514  52.767 -50.440  1.00  0.00     0.273 C 
BRANCH  34  35
HETATM   35  C   UNL     1     -40.134  51.759 -51.490  1.00  0.00    -0.033 A 
HETATM   36  C   UNL     1     -40.046  52.131 -52.841  1.00  0.00     0.009 A 
HETATM   37  C   UNL     1     -39.715  51.189 -53.815  1.00  0.00     0.001 A 
HETATM   38  C   UNL     1     -39.462  49.869 -53.453  1.00  0.00     0.000 A 
HETATM   39  C   UNL     1     -39.531  49.488 -52.115  1.00  0.00     0.001 A 
HETATM   40  C   UNL     1     -39.862  50.427 -51.138  1.00  0.00     0.009 A 
ENDBRANCH  34  35
ENDBRANCH   1  34
TORSDOF 7
ENDMDL
MODEL 6
REMARK VINA RESULT:      -8.5      4.425      7.248
REMARK  7 active torsions:
REMARK  status: ('A' for Active; 'I' for Inactive)
REMARK    1  A    between atoms: C_4  and  C_5 
REMARK    2  A    between atoms: C_5  and  N_6 
REMARK    3  A    between atoms: C_14  and  C_15 
REMARK    4  A    between atoms: C_18  and  O_19 
REMARK    5  A    between atoms: O_19  and  C_20 
REMARK    6  A    between atoms: C_20  and  C_21 
REMARK    7  A    between atoms: C_22  and  C_23 
ROOT
HETATM    1  N   UNL     1     -41.085  54.512 -53.679  1.00  0.00    -0.063 N 
HETATM    2  H   UNL     1     -40.702  54.500 -52.726  1.00  0.00     0.280 HD
HETATM    3  C   UNL     1     -40.859  55.932 -54.174  1.00  0.00     0.282 C 
HETATM    4  C   UNL     1     -41.643  56.880 -53.333  1.00  0.00     0.018 A 
HETATM    5  C   UNL     1     -42.728  56.529 -52.549  1.00  0.00    -0.023 A 
HETATM    6  C   UNL     1     -43.254  57.668 -51.858  1.00  0.00     0.073 A 
HETATM    7  C   UNL     1     -42.545  58.809 -52.142  1.00  0.00     0.088 A 
HETATM    8  N   UNL     1     -42.812  60.008 -51.589  1.00  0.00    -0.358 N 
HETATM    9  C   UNL     1     -44.044  60.220 -50.860  1.00  0.00     0.219 C 
HETATM   10  N   UNL     1     -44.645  58.980 -50.435  1.00  0.00    -0.332 N 
HETATM   11  C   UNL     1     -44.368  57.740 -50.933  1.00  0.00     0.256 C 
HETATM   12  O   UNL     1     -45.018  56.754 -50.606  1.00  0.00    -0.267 OA
HETATM   13  S   UNL     1     -41.285  58.541 -53.252  1.00  0.00    -0.074 SA
HETATM   14  C   UNL     1     -43.204  55.109 -52.451  1.00  0.00     0.068 C 
HETATM   15  C   UNL     1     -42.575  54.215 -53.537  1.00  0.00     0.240 C 
HETATM   16  H   UNL     1     -42.406  60.848 -51.992  1.00  0.00     0.162 HD
HETATM   17  H   UNL     1     -45.453  59.031 -49.833  1.00  0.00     0.165 HD
ENDROOT
BRANCH   9  18
HETATM   18  C   UNL     1     -44.987  61.090 -51.667  1.00  0.00    -0.016 A 
HETATM   19  C   UNL     1     -46.359  60.803 -51.780  1.00  0.00     0.014 A 
HETATM   20  C   UNL     1     -47.197  61.599 -52.569  1.00  0.00     0.038 A 
HETATM   21  C   UNL     1     -46.660  62.671 -53.274  1.00  0.00     0.079 A 
HETATM   22  C   UNL     1     -45.307  62.986 -53.163  1.00  0.00     0.038 A 
HETATM   23  C   UNL     1     -44.474  62.195 -52.371  1.00  0.00     0.014 A 
BRANCH  21  24
HETATM   24  O   UNL     1     -47.419  63.535 -54.086  1.00  0.00    -0.276 OA
BRANCH  24  25
HETATM   25  C   UNL     1     -47.316  63.501 -55.469  1.00  0.00     0.288 C 
HETATM   26  O   UNL     1     -47.241  64.454 -56.230  1.00  0.00    -0.260 OA
BRANCH  25  27
HETATM   27  C   UNL     1     -47.318  62.105 -55.959  1.00  0.00     0.085 C 
HETATM   28  C   UNL     1     -46.536  61.654 -56.950  1.00  0.00     0.043 C 
BRANCH  28  29
HETATM   29  C   UNL     1     -46.563  60.285 -57.333  1.00  0.00     0.075 A 
HETATM   30  O   UNL     1     -45.709  59.325 -56.834  1.00  0.00    -0.323 OA
HETATM   31  C   UNL     1     -46.010  58.139 -57.416  1.00  0.00     0.142 A 
HETATM   32  C   UNL     1     -47.049  58.289 -58.297  1.00  0.00     0.027 A 
HETATM   33  C   UNL     1     -47.406  59.657 -58.244  1.00  0.00     0.039 A 
ENDBRANCH  28  29
ENDBRANCH  25  27
ENDBRANCH  24  25
ENDBRANCH  21  24
ENDBRANCH   9  18
BRANCH   1  34
HETATM   34  C   UNL     1     -40.306  53.472 -54.439  1.00  0.00     0.273 C 
BRANCH  34  35
HETATM   35  C   UNL     1     -40.039  52.186 -53.706  1.00  0.00    -0.033 A 
HETATM   36  C   UNL     1     -40.017  50.962 -54.394  1.00  0.00     0.009 A 
HETATM   37  C   UNL     1     -39.791  49.768 -53.708  1.00  0.00     0.001 A 
HETATM   38  C   UNL     1     -39.579  49.782 -52.333  1.00  0.00     0.000 A 
HETATM   39  C   UNL     1     -39.584  50.990 -51.639  1.00  0.00     0.001 A 
HETATM   40  C   UNL     1     -39.809  52.186 -52.321  1.00  0.00     0.009 A 
ENDBRANCH  34  35
ENDBRANCH   1  34
TORSDOF 7
ENDMDL
MODEL 7
REMARK VINA RESULT:      -8.3      1.829      2.338
REMARK  7 active torsions:
REMARK  status: ('A' for Active; 'I' for Inactive)
REMARK    1  A    between atoms: C_4  and  C_5 
REMARK    2  A    between atoms: C_5  and  N_6 
REMARK    3  A    between atoms: C_14  and  C_15 
REMARK    4  A    between atoms: C_18  and  O_19 
REMARK    5  A    between atoms: O_19  and  C_20 
REMARK    6  A    between atoms: C_20  and  C_21 
REMARK    7  A    between atoms: C_22  and  C_23 
ROOT
HETATM    1  N   UNL     1     -42.064  54.847 -54.482  1.00  0.00    -0.063 N 
HETATM    2  H   UNL     1     -41.900  55.316 -55.381  1.00  0.00     0.280 HD
HETATM    3  C   UNL     1     -43.480  55.238 -54.088  1.00  0.00     0.282 C 
HETATM    4  C   UNL     1     -43.544  56.712 -53.876  1.00  0.00     0.018 A 
HETATM    5  C   UNL     1     -42.451  57.522 -53.625  1.00  0.00    -0.023 A 
HETATM    6  C   UNL     1     -42.848  58.891 -53.476  1.00  0.00     0.073 A 
HETATM    7  C   UNL     1     -44.204  59.048 -53.627  1.00  0.00     0.088 A 
HETATM    8  N   UNL     1     -44.825  60.241 -53.574  1.00  0.00    -0.358 N 
HETATM    9  C   UNL     1     -44.126  61.409 -53.081  1.00  0.00     0.219 C 
HETATM   10  N   UNL     1     -42.695  61.242 -53.118  1.00  0.00    -0.332 N 
HETATM   11  C   UNL     1     -42.026  60.057 -53.222  1.00  0.00     0.256 C 
HETATM   12  O   UNL     1     -40.807  59.993 -53.114  1.00  0.00    -0.267 OA
HETATM   13  S   UNL     1     -45.009  57.576 -53.907  1.00  0.00    -0.074 SA
HETATM   14  C   UNL     1     -41.055  56.972 -53.578  1.00  0.00     0.068 C 
HETATM   15  C   UNL     1     -41.046  55.433 -53.509  1.00  0.00     0.240 C 
HETATM   16  H   UNL     1     -45.836  60.277 -53.474  1.00  0.00     0.162 HD
HETATM   17  H   UNL     1     -42.122  62.040 -52.889  1.00  0.00     0.165 HD
ENDROOT
BRANCH   9  18
HETATM   18  C   UNL     1     -44.645  61.788 -51.708  1.00  0.00    -0.016 A 
HETATM   19  C   UNL     1     -46.018  61.808 -51.405  1.00  0.00     0.014 A 
HETATM   20  C   UNL     1     -46.470  62.206 -50.142  1.00  0.00     0.038 A 
HETATM   21  C   UNL     1     -45.550  62.614 -49.183  1.00  0.00     0.079 A 
HETATM   22  C   UNL     1     -44.182  62.585 -49.453  1.00  0.00     0.038 A 
HETATM   23  C   UNL     1     -43.733  62.182 -50.711  1.00  0.00     0.014 A 
BRANCH  21  24
HETATM   24  O   UNL     1     -45.901  63.023 -47.882  1.00  0.00    -0.276 OA
BRANCH  24  25
HETATM   25  C   UNL     1     -46.231  62.100 -46.900  1.00  0.00     0.288 C 
HETATM   26  O   UNL     1     -46.755  61.008 -47.056  1.00  0.00    -0.260 OA
BRANCH  25  27
HETATM   27  C   UNL     1     -45.872  62.613 -45.559  1.00  0.00     0.085 C 
HETATM   28  C   UNL     1     -44.674  62.436 -44.982  1.00  0.00     0.043 C 
BRANCH  28  29
HETATM   29  C   UNL     1     -44.390  63.000 -43.709  1.00  0.00     0.075 A 
HETATM   30  O   UNL     1     -45.164  63.963 -43.099  1.00  0.00    -0.323 OA
HETATM   31  C   UNL     1     -44.601  64.275 -41.906  1.00  0.00     0.142 A 
HETATM   32  C   UNL     1     -43.462  63.538 -41.708  1.00  0.00     0.027 A 
HETATM   33  C   UNL     1     -43.326  62.722 -42.856  1.00  0.00     0.039 A 
ENDBRANCH  28  29
ENDBRANCH  25  27
ENDBRANCH  24  25
ENDBRANCH  21  24
ENDBRANCH   9  18
BRANCH   1  34
HETATM   34  C   UNL     1     -41.894  53.376 -54.759  1.00  0.00     0.273 C 
BRANCH  34  35
HETATM   35  C   UNL     1     -41.010  52.625 -53.801  1.00  0.00    -0.033 A 
HETATM   36  C   UNL     1     -40.951  52.992 -52.447  1.00  0.00     0.009 A 
HETATM   37  C   UNL     1     -40.114  52.308 -51.564  1.00  0.00     0.001 A 
HETATM   38  C   UNL     1     -39.334  51.249 -52.020  1.00  0.00     0.000 A 
HETATM   39  C   UNL     1     -39.393  50.866 -53.358  1.00  0.00     0.001 A 
HETATM   40  C   UNL     1     -40.229  51.546 -54.244  1.00  0.00     0.009 A 
ENDBRANCH  34  35
ENDBRANCH   1  34
TORSDOF 7
ENDMDL
MODEL 8
REMARK VINA RESULT:      -8.2      4.514      7.163
REMARK  7 active torsions:
REMARK  status: ('A' for Active; 'I' for Inactive)
REMARK    1  A    between atoms: C_4  and  C_5 
REMARK    2  A    between atoms: C_5  and  N_6 
REMARK    3  A    between atoms: C_14  and  C_15 
REMARK    4  A    between atoms: C_18  and  O_19 
REMARK    5  A    between atoms: O_19  and  C_20 
REMARK    6  A    between atoms: C_20  and  C_21 
REMARK    7  A    between atoms: C_22  and  C_23 
ROOT
HETATM    1  N   UNL     1     -41.068  54.319 -53.768  1.00  0.00    -0.063 N 
HETATM    2  H   UNL     1     -40.800  54.210 -52.782  1.00  0.00     0.280 HD
HETATM    3  C   UNL     1     -40.551  55.693 -54.165  1.00  0.00     0.282 C 
HETATM    4  C   UNL     1     -41.253  56.735 -53.363  1.00  0.00     0.018 A 
HETATM    5  C   UNL     1     -42.462  56.553 -52.715  1.00  0.00    -0.023 A 
HETATM    6  C   UNL     1     -42.863  57.743 -52.026  1.00  0.00     0.073 A 
HETATM    7  C   UNL     1     -41.944  58.753 -52.178  1.00  0.00     0.088 A 
HETATM    8  N   UNL     1     -42.064  59.962 -51.597  1.00  0.00    -0.358 N 
HETATM    9  C   UNL     1     -43.316  60.360 -50.990  1.00  0.00     0.219 C 
HETATM   10  N   UNL     1     -44.161  59.231 -50.692  1.00  0.00    -0.332 N 
HETATM   11  C   UNL     1     -44.043  57.978 -51.220  1.00  0.00     0.256 C 
HETATM   12  O   UNL     1     -44.883  57.109 -51.012  1.00  0.00    -0.267 OA
HETATM   13  S   UNL     1     -40.632  58.306 -53.163  1.00  0.00    -0.074 SA
HETATM   14  C   UNL     1     -43.179  55.234 -52.738  1.00  0.00     0.068 C 
HETATM   15  C   UNL     1     -42.592  54.280 -53.797  1.00  0.00     0.240 C 
HETATM   16  H   UNL     1     -41.481  60.731 -51.912  1.00  0.00     0.162 HD
HETATM   17  H   UNL     1     -45.011  59.401 -50.175  1.00  0.00     0.165 HD
ENDROOT
BRANCH   9  18
HETATM   18  C   UNL     1     -44.004  61.406 -51.846  1.00  0.00    -0.016 A 
HETATM   19  C   UNL     1     -45.164  61.121 -52.588  1.00  0.00     0.014 A 
HETATM   20  C   UNL     1     -45.751  62.094 -53.405  1.00  0.00     0.038 A 
HETATM   21  C   UNL     1     -45.162  63.349 -53.508  1.00  0.00     0.079 A 
HETATM   22  C   UNL     1     -44.022  63.660 -52.768  1.00  0.00     0.038 A 
HETATM   23  C   UNL     1     -43.442  62.691 -51.949  1.00  0.00     0.014 A 
BRANCH  21  24
HETATM   24  O   UNL     1     -45.678  64.397 -54.294  1.00  0.00    -0.276 OA
BRANCH  24  25
HETATM   25  C   UNL     1     -45.756  64.292 -55.675  1.00  0.00     0.288 C 
HETATM   26  O   UNL     1     -46.757  64.381 -56.370  1.00  0.00    -0.260 OA
BRANCH  25  27
HETATM   27  C   UNL     1     -44.420  64.031 -56.255  1.00  0.00     0.085 C 
HETATM   28  C   UNL     1     -44.100  62.923 -56.940  1.00  0.00     0.043 C 
BRANCH  28  29
HETATM   29  C   UNL     1     -42.807  62.767 -57.508  1.00  0.00     0.075 A 
HETATM   30  O   UNL     1     -42.031  63.811 -57.966  1.00  0.00    -0.323 OA
HETATM   31  C   UNL     1     -40.868  63.305 -58.444  1.00  0.00     0.142 A 
HETATM   32  C   UNL     1     -40.854  61.940 -58.317  1.00  0.00     0.027 A 
HETATM   33  C   UNL     1     -42.088  61.595 -57.718  1.00  0.00     0.039 A 
ENDBRANCH  28  29
ENDBRANCH  25  27
ENDBRANCH  24  25
ENDBRANCH  21  24
ENDBRANCH   9  18
BRANCH   1  34
HETATM   34  C   UNL     1     -40.395  53.184 -54.494  1.00  0.00     0.273 C 
BRANCH  34  35
HETATM   35  C   UNL     1     -40.089  51.965 -53.667  1.00  0.00    -0.033 A 
HETATM   36  C   UNL     1     -39.896  52.072 -52.280  1.00  0.00     0.009 A 
HETATM   37  C   UNL     1     -39.591  50.944 -51.518  1.00  0.00     0.001 A 
HETATM   38  C   UNL     1     -39.480  49.698 -52.128  1.00  0.00     0.000 A 
HETATM   39  C   UNL     1     -39.682  49.574 -53.500  1.00  0.00     0.001 A 
HETATM   40  C   UNL     1     -39.988  50.700 -54.266  1.00  0.00     0.009 A 
ENDBRANCH  34  35
ENDBRANCH   1  34
TORSDOF 7
ENDMDL
MODEL 9
REMARK VINA RESULT:      -8.2      4.930      7.280
REMARK  7 active torsions:
REMARK  status: ('A' for Active; 'I' for Inactive)
REMARK    1  A    between atoms: C_4  and  C_5 
REMARK    2  A    between atoms: C_5  and  N_6 
REMARK    3  A    between atoms: C_14  and  C_15 
REMARK    4  A    between atoms: C_18  and  O_19 
REMARK    5  A    between atoms: O_19  and  C_20 
REMARK    6  A    between atoms: C_20  and  C_21 
REMARK    7  A    between atoms: C_22  and  C_23 
ROOT
HETATM    1  N   UNL     1     -41.614  55.408 -51.644  1.00  0.00    -0.063 N 
HETATM    2  H   UNL     1     -41.046  55.488 -52.496  1.00  0.00     0.280 HD
HETATM    3  C   UNL     1     -43.055  55.410 -52.133  1.00  0.00     0.282 C 
HETATM    4  C   UNL     1     -43.353  56.717 -52.785  1.00  0.00     0.018 A 
HETATM    5  C   UNL     1     -42.632  57.881 -52.588  1.00  0.00    -0.023 A 
HETATM    6  C   UNL     1     -43.169  58.958 -53.365  1.00  0.00     0.073 A 
HETATM    7  C   UNL     1     -44.252  58.558 -54.110  1.00  0.00     0.088 A 
HETATM    8  N   UNL     1     -44.913  59.370 -54.957  1.00  0.00    -0.358 N 
HETATM    9  C   UNL     1     -44.684  60.799 -54.929  1.00  0.00     0.219 C 
HETATM   10  N   UNL     1     -43.439  61.139 -54.288  1.00  0.00    -0.332 N 
HETATM   11  C   UNL     1     -42.712  60.329 -53.464  1.00  0.00     0.256 C 
HETATM   12  O   UNL     1     -41.730  60.742 -52.857  1.00  0.00    -0.267 OA
HETATM   13  S   UNL     1     -44.654  56.925 -53.861  1.00  0.00    -0.074 SA
HETATM   14  C   UNL     1     -41.426  57.921 -51.695  1.00  0.00     0.068 C 
HETATM   15  C   UNL     1     -41.316  56.657 -50.821  1.00  0.00     0.240 C 
HETATM   16  H   UNL     1     -45.824  59.092 -55.311  1.00  0.00     0.162 HD
HETATM   17  H   UNL     1     -43.145  62.104 -54.311  1.00  0.00     0.165 HD
ENDROOT
BRANCH   9  18
HETATM   18  C   UNL     1     -45.878  61.508 -54.319  1.00  0.00    -0.016 A 
HETATM   19  C   UNL     1     -46.365  61.187 -53.039  1.00  0.00     0.014 A 
HETATM   20  C   UNL     1     -47.496  61.827 -52.520  1.00  0.00     0.038 A 
HETATM   21  C   UNL     1     -48.164  62.771 -53.292  1.00  0.00     0.079 A 
HETATM   22  C   UNL     1     -47.689  63.119 -54.556  1.00  0.00     0.038 A 
HETATM   23  C   UNL     1     -46.558  62.485 -55.069  1.00  0.00     0.014 A 
BRANCH  21  24
HETATM   24  O   UNL     1     -49.304  63.476 -52.859  1.00  0.00    -0.276 OA
BRANCH  24  25
HETATM   25  C   UNL     1     -50.487  62.818 -52.557  1.00  0.00     0.288 C 
HETATM   26  O   UNL     1     -51.145  62.910 -51.531  1.00  0.00    -0.260 OA
BRANCH  25  27
HETATM   27  C   UNL     1     -50.889  61.929 -53.669  1.00  0.00     0.085 C 
HETATM   28  C   UNL     1     -52.107  61.930 -54.230  1.00  0.00     0.043 C 
BRANCH  28  29
HETATM   29  C   UNL     1     -52.402  61.077 -55.328  1.00  0.00     0.075 A 
HETATM   30  O   UNL     1     -53.656  60.576 -55.604  1.00  0.00    -0.323 OA
HETATM   31  C   UNL     1     -53.574  59.800 -56.713  1.00  0.00     0.142 A 
HETATM   32  C   UNL     1     -52.287  59.770 -57.181  1.00  0.00     0.027 A 
HETATM   33  C   UNL     1     -51.537  60.586 -56.301  1.00  0.00     0.039 A 
ENDBRANCH  28  29
ENDBRANCH  25  27
ENDBRANCH  24  25
ENDBRANCH  21  24
ENDBRANCH   9  18
BRANCH   1  34
HETATM   34  C   UNL     1     -41.194  54.114 -51.000  1.00  0.00     0.273 C 
BRANCH  34  35
HETATM   35  C   UNL     1     -40.614  53.078 -51.925  1.00  0.00    -0.033 A 
HETATM   36  C   UNL     1     -39.945  51.956 -51.410  1.00  0.00     0.009 A 
HETATM   37  C   UNL     1     -39.389  51.008 -52.270  1.00  0.00     0.001 A 
HETATM   38  C   UNL     1     -39.499  51.165 -53.649  1.00  0.00     0.000 A 
HETATM   39  C   UNL     1     -40.172  52.266 -54.173  1.00  0.00     0.001 A 
HETATM   40  C   UNL     1     -40.730  53.217 -53.317  1.00  0.00     0.009 A 
ENDBRANCH  34  35
ENDBRANCH   1  34
TORSDOF 7
ENDMDL
MODEL 10
REMARK VINA RESULT:      -8.2      4.987      7.862
REMARK  7 active torsions:
REMARK  status: ('A' for Active; 'I' for Inactive)
REMARK    1  A    between atoms: C_4  and  C_5 
REMARK    2  A    between atoms: C_5  and  N_6 
REMARK    3  A    between atoms: C_14  and  C_15 
REMARK    4  A    between atoms: C_18  and  O_19 
REMARK    5  A    between atoms: O_19  and  C_20 
REMARK    6  A    between atoms: C_20  and  C_21 
REMARK    7  A    between atoms: C_22  and  C_23 
ROOT
HETATM    1  N   UNL     1     -42.146  56.716 -53.906  1.00  0.00    -0.063 N 
HETATM    2  H   UNL     1     -41.564  56.924 -53.085  1.00  0.00     0.280 HD
HETATM    3  C   UNL     1     -42.416  58.069 -54.546  1.00  0.00     0.282 C 
HETATM    4  C   UNL     1     -43.204  58.914 -53.603  1.00  0.00     0.018 A 
HETATM    5  C   UNL     1     -43.951  58.428 -52.545  1.00  0.00    -0.023 A 
HETATM    6  C   UNL     1     -44.582  59.496 -51.827  1.00  0.00     0.073 A 
HETATM    7  C   UNL     1     -44.279  60.722 -52.367  1.00  0.00     0.088 A 
HETATM    8  N   UNL     1     -44.713  61.889 -51.854  1.00  0.00    -0.358 N 
HETATM    9  C   UNL     1     -45.756  61.904 -50.851  1.00  0.00     0.219 C 
HETATM   10  N   UNL     1     -45.901  60.628 -50.197  1.00  0.00    -0.332 N 
HETATM   11  C   UNL     1     -45.433  59.431 -50.657  1.00  0.00     0.256 C 
HETATM   12  O   UNL     1     -45.713  58.374 -50.102  1.00  0.00    -0.267 OA
HETATM   13  S   UNL     1     -43.282  60.607 -53.740  1.00  0.00    -0.074 SA
HETATM   14  C   UNL     1     -44.007  56.963 -52.223  1.00  0.00     0.068 C 
HETATM   15  C   UNL     1     -43.433  56.102 -53.366  1.00  0.00     0.240 C 
HETATM   16  H   UNL     1     -44.643  62.738 -52.408  1.00  0.00     0.162 HD
HETATM   17  H   UNL     1     -46.534  60.570 -49.413  1.00  0.00     0.165 HD
ENDROOT
BRANCH   9  18
HETATM   18  C   UNL     1     -47.052  62.413 -51.452  1.00  0.00    -0.016 A 
HETATM   19  C   UNL     1     -47.489  62.021 -52.731  1.00  0.00     0.014 A 
HETATM   20  C   UNL     1     -48.667  62.542 -53.278  1.00  0.00     0.038 A 
HETATM   21  C   UNL     1     -49.400  63.481 -52.560  1.00  0.00     0.079 A 
HETATM   22  C   UNL     1     -48.997  63.870 -51.284  1.00  0.00     0.038 A 
HETATM   23  C   UNL     1     -47.825  63.345 -50.737  1.00  0.00     0.014 A 
BRANCH  21  24
HETATM   24  O   UNL     1     -50.600  64.057 -53.018  1.00  0.00    -0.276 OA
BRANCH  24  25
HETATM   25  C   UNL     1     -51.805  63.373 -52.939  1.00  0.00     0.288 C 
HETATM   26  O   UNL     1     -52.586  63.354 -52.000  1.00  0.00    -0.260 OA
BRANCH  25  27
HETATM   27  C   UNL     1     -52.056  62.611 -54.182  1.00  0.00     0.085 C 
HETATM   28  C   UNL     1     -52.120  61.273 -54.245  1.00  0.00     0.043 C 
BRANCH  28  29
HETATM   29  C   UNL     1     -52.412  60.616 -55.470  1.00  0.00     0.075 A 
HETATM   30  O   UNL     1     -53.376  59.641 -55.615  1.00  0.00    -0.323 OA
HETATM   31  C   UNL     1     -53.383  59.232 -56.908  1.00  0.00     0.142 A 
HETATM   32  C   UNL     1     -52.438  59.914 -57.629  1.00  0.00     0.027 A 
HETATM   33  C   UNL     1     -51.819  60.800 -56.715  1.00  0.00     0.039 A 
ENDBRANCH  28  29
ENDBRANCH  25  27
ENDBRANCH  24  25
ENDBRANCH  21  24
ENDBRANCH   9  18
BRANCH   1  34
HETATM   34  C   UNL     1     -41.319  55.794 -54.761  1.00  0.00     0.273 C 
BRANCH  34  35
HETATM   35  C   UNL     1     -40.870  54.516 -54.105  1.00  0.00    -0.033 A 
HETATM   36  C   UNL     1     -40.749  54.435 -52.709  1.00  0.00     0.009 A 
HETATM   37  C   UNL     1     -40.311  53.256 -52.103  1.00  0.00     0.001 A 
HETATM   38  C   UNL     1     -39.996  52.146 -52.882  1.00  0.00     0.000 A 
HETATM   39  C   UNL     1     -40.125  52.208 -54.268  1.00  0.00     0.001 A 
HETATM   40  C   UNL     1     -40.562  53.385 -54.877  1.00  0.00     0.009 A 
ENDBRANCH  34  35
ENDBRANCH   1  34
TORSDOF 7
ENDMDL
