MODEL 1
REMARK VINA RESULT:      -8.0      0.000      0.000
REMARK  3 active torsions:
REMARK  status: ('A' for Active; 'I' for Inactive)
REMARK    1  A    between atoms: C_2  and  N_3 
REMARK    2  A    between atoms: C_2  and  C_10 
REMARK    3  A    between atoms: C_13  and  C_14 
ROOT
HETATM    1  C   UNL     1     -42.659  56.070 -56.331  1.00  0.00    -0.028 A 
HETATM    2  C   UNL     1     -43.241  54.802 -56.169  1.00  0.00     0.010 A 
HETATM    3  C   UNL     1     -42.678  53.854 -55.306  1.00  0.00     0.013 A 
HETATM    4  C   UNL     1     -41.519  54.135 -54.570  1.00  0.00    -0.024 A 
HETATM    5  C   UNL     1     -40.948  55.408 -54.723  1.00  0.00     0.013 A 
HETATM    6  C   UNL     1     -41.504  56.359 -55.589  1.00  0.00     0.010 A 
ENDROOT
BRANCH   4   7
HETATM    7  C   UNL     1     -40.921  53.131 -53.674  1.00  0.00    -0.006 A 
HETATM    8  C   UNL     1     -40.586  53.447 -52.347  1.00  0.00     0.131 A 
HETATM    9  N   UNL     1     -40.028  52.624 -51.428  1.00  0.00    -0.239 NA
HETATM   10  C   UNL     1     -39.782  51.377 -51.879  1.00  0.00     0.177 A 
HETATM   11  C   UNL     1     -40.076  50.966 -53.174  1.00  0.00     0.082 A 
HETATM   12  N   UNL     1     -39.223  50.365 -51.152  1.00  0.00    -0.222 NA
HETATM   13  N   UNL     1     -39.676  49.655 -53.207  1.00  0.00    -0.348 N 
HETATM   14  C   UNL     1     -40.653  51.823 -54.111  1.00  0.00     0.047 A 
HETATM   15  H   UNL     1     -39.738  49.027 -53.995  1.00  0.00     0.167 HD
HETATM   16  C   UNL     1     -39.171  49.342 -51.975  1.00  0.00     0.210 A 
ENDBRANCH   4   7
BRANCH   1  17
HETATM   17  C   UNL     1     -43.280  57.061 -57.298  1.00  0.00     0.217 C 
HETATM   18  C   UNL     1     -42.273  57.955 -58.034  1.00  0.00     0.045 C 
BRANCH  17  19
HETATM   19  N   UNL     1     -44.234  56.437 -58.327  1.00  0.00    -0.063 N 
HETATM   20  H   UNL     1     -44.731  55.697 -57.816  1.00  0.00     0.280 HD
HETATM   21  C   UNL     1     -45.292  57.376 -58.869  1.00  0.00     0.235 C 
HETATM   22  C   UNL     1     -46.300  56.574 -59.684  1.00  0.00     0.028 C 
HETATM   23  C   UNL     1     -45.626  55.795 -60.807  1.00  0.00     0.003 C 
HETATM   24  C   UNL     1     -44.491  54.928 -60.274  1.00  0.00     0.028 C 
HETATM   25  C   UNL     1     -43.499  55.742 -59.453  1.00  0.00     0.235 C 
ENDBRANCH  17  19
ENDBRANCH   1  17
TORSDOF 3
ENDMDL
MODEL 2
REMARK VINA RESULT:      -7.9      1.408      8.432
REMARK  3 active torsions:
REMARK  status: ('A' for Active; 'I' for Inactive)
REMARK    1  A    between atoms: C_2  and  N_3 
REMARK    2  A    between atoms: C_2  and  C_10 
REMARK    3  A    between atoms: C_13  and  C_14 
ROOT
HETATM    1  C   UNL     1     -41.258  54.299 -53.344  1.00  0.00    -0.028 A 
HETATM    2  C   UNL     1     -42.620  54.069 -53.595  1.00  0.00     0.010 A 
HETATM    3  C   UNL     1     -43.200  54.427 -54.817  1.00  0.00     0.013 A 
HETATM    4  C   UNL     1     -42.443  55.022 -55.836  1.00  0.00    -0.024 A 
HETATM    5  C   UNL     1     -41.079  55.238 -55.588  1.00  0.00     0.013 A 
HETATM    6  C   UNL     1     -40.495  54.886 -54.364  1.00  0.00     0.010 A 
ENDROOT
BRANCH   4   7
HETATM    7  C   UNL     1     -43.058  55.411 -57.117  1.00  0.00    -0.006 A 
HETATM    8  C   UNL     1     -43.149  56.758 -57.503  1.00  0.00     0.131 A 
HETATM    9  N   UNL     1     -43.692  57.246 -58.642  1.00  0.00    -0.239 NA
HETATM   10  C   UNL     1     -44.192  56.302 -59.465  1.00  0.00     0.177 A 
HETATM   11  C   UNL     1     -44.152  54.943 -59.176  1.00  0.00     0.082 A 
HETATM   12  N   UNL     1     -44.794  56.535 -60.669  1.00  0.00    -0.222 NA
HETATM   13  N   UNL     1     -44.752  54.353 -60.257  1.00  0.00    -0.348 N 
HETATM   14  C   UNL     1     -43.586  54.452 -57.998  1.00  0.00     0.047 A 
HETATM   15  H   UNL     1     -44.901  53.364 -60.398  1.00  0.00     0.167 HD
HETATM   16  C   UNL     1     -45.121  55.347 -61.123  1.00  0.00     0.210 A 
ENDBRANCH   4   7
BRANCH   1  17
HETATM   17  C   UNL     1     -40.670  53.926 -51.994  1.00  0.00     0.217 C 
HETATM   18  C   UNL     1     -41.392  54.543 -50.789  1.00  0.00     0.045 C 
BRANCH  17  19
HETATM   19  N   UNL     1     -40.515  52.417 -51.761  1.00  0.00    -0.063 N 
HETATM   20  H   UNL     1     -41.437  52.017 -51.975  1.00  0.00     0.280 HD
HETATM   21  C   UNL     1     -39.521  51.728 -52.673  1.00  0.00     0.235 C 
HETATM   22  C   UNL     1     -39.643  50.219 -52.497  1.00  0.00     0.028 C 
HETATM   23  C   UNL     1     -39.439  49.803 -51.045  1.00  0.00     0.003 C 
HETATM   24  C   UNL     1     -40.369  50.573 -50.113  1.00  0.00     0.028 C 
HETATM   25  C   UNL     1     -40.242  52.078 -50.311  1.00  0.00     0.235 C 
ENDBRANCH  17  19
ENDBRANCH   1  17
TORSDOF 3
ENDMDL
MODEL 3
REMARK VINA RESULT:      -7.8      1.535      8.455
REMARK  3 active torsions:
REMARK  status: ('A' for Active; 'I' for Inactive)
REMARK    1  A    between atoms: C_2  and  N_3 
REMARK    2  A    between atoms: C_2  and  C_10 
REMARK    3  A    between atoms: C_13  and  C_14 
ROOT
HETATM    1  C   UNL     1     -41.205  54.266 -53.346  1.00  0.00    -0.028 A 
HETATM    2  C   UNL     1     -40.550  55.203 -54.162  1.00  0.00     0.010 A 
HETATM    3  C   UNL     1     -41.251  55.937 -55.126  1.00  0.00     0.013 A 
HETATM    4  C   UNL     1     -42.631  55.766 -55.310  1.00  0.00    -0.024 A 
HETATM    5  C   UNL     1     -43.285  54.840 -54.484  1.00  0.00     0.013 A 
HETATM    6  C   UNL     1     -42.587  54.100 -53.521  1.00  0.00     0.010 A 
ENDROOT
BRANCH   4   7
HETATM    7  C   UNL     1     -43.364  56.529 -56.335  1.00  0.00    -0.006 A 
HETATM    8  C   UNL     1     -44.234  57.573 -55.983  1.00  0.00     0.131 A 
HETATM    9  N   UNL     1     -44.967  58.342 -56.821  1.00  0.00    -0.239 NA
HETATM   10  C   UNL     1     -44.819  58.036 -58.126  1.00  0.00     0.177 A 
HETATM   11  C   UNL     1     -43.984  57.021 -58.577  1.00  0.00     0.082 A 
HETATM   12  N   UNL     1     -45.450  58.658 -59.165  1.00  0.00    -0.222 NA
HETATM   13  N   UNL     1     -44.127  57.052 -59.940  1.00  0.00    -0.348 N 
HETATM   14  C   UNL     1     -43.230  56.236 -57.703  1.00  0.00     0.047 A 
HETATM   15  H   UNL     1     -43.665  56.451 -60.607  1.00  0.00     0.167 HD
HETATM   16  C   UNL     1     -45.016  58.047 -60.243  1.00  0.00     0.210 A 
ENDBRANCH   4   7
BRANCH   1  17
HETATM   17  C   UNL     1     -40.406  53.467 -52.332  1.00  0.00     0.217 C 
HETATM   18  C   UNL     1     -40.841  53.666 -50.874  1.00  0.00     0.045 C 
BRANCH  17  19
HETATM   19  N   UNL     1     -40.325  51.962 -52.626  1.00  0.00    -0.063 N 
HETATM   20  H   UNL     1     -41.276  51.607 -52.470  1.00  0.00     0.280 HD
HETATM   21  C   UNL     1     -39.959  51.608 -54.052  1.00  0.00     0.235 C 
HETATM   22  C   UNL     1     -40.147  50.110 -54.260  1.00  0.00     0.028 C 
HETATM   23  C   UNL     1     -39.331  49.297 -53.263  1.00  0.00     0.003 C 
HETATM   24  C   UNL     1     -39.622  49.725 -51.829  1.00  0.00     0.028 C 
HETATM   25  C   UNL     1     -39.441  51.226 -51.642  1.00  0.00     0.235 C 
ENDBRANCH  17  19
ENDBRANCH   1  17
TORSDOF 3
ENDMDL
MODEL 4
REMARK VINA RESULT:      -7.5      4.644      5.464
REMARK  3 active torsions:
REMARK  status: ('A' for Active; 'I' for Inactive)
REMARK    1  A    between atoms: C_2  and  N_3 
REMARK    2  A    between atoms: C_2  and  C_10 
REMARK    3  A    between atoms: C_13  and  C_14 
ROOT
HETATM    1  C   UNL     1     -41.598  57.281 -51.085  1.00  0.00    -0.028 A 
HETATM    2  C   UNL     1     -41.533  56.842 -52.418  1.00  0.00     0.010 A 
HETATM    3  C   UNL     1     -41.174  55.525 -52.727  1.00  0.00     0.013 A 
HETATM    4  C   UNL     1     -40.870  54.597 -51.721  1.00  0.00    -0.024 A 
HETATM    5  C   UNL     1     -40.950  55.035 -50.391  1.00  0.00     0.013 A 
HETATM    6  C   UNL     1     -41.305  56.353 -50.075  1.00  0.00     0.010 A 
ENDROOT
BRANCH   4   7
HETATM    7  C   UNL     1     -40.478  53.216 -52.050  1.00  0.00    -0.006 A 
HETATM    8  C   UNL     1     -40.092  52.310 -51.048  1.00  0.00     0.131 A 
HETATM    9  N   UNL     1     -39.706  51.024 -51.215  1.00  0.00    -0.239 NA
HETATM   10  C   UNL     1     -39.702  50.610 -52.499  1.00  0.00     0.177 A 
HETATM   11  C   UNL     1     -40.066  51.428 -53.562  1.00  0.00     0.082 A 
HETATM   12  N   UNL     1     -39.349  49.363 -52.931  1.00  0.00    -0.222 NA
HETATM   13  N   UNL     1     -39.924  50.626 -54.664  1.00  0.00    -0.348 N 
HETATM   14  C   UNL     1     -40.465  52.752 -53.376  1.00  0.00     0.047 A 
HETATM   15  H   UNL     1     -40.104  50.885 -55.624  1.00  0.00     0.167 HD
HETATM   16  C   UNL     1     -39.492  49.401 -54.236  1.00  0.00     0.210 A 
ENDBRANCH   4   7
BRANCH   1  17
HETATM   17  C   UNL     1     -41.962  58.725 -50.789  1.00  0.00     0.217 C 
HETATM   18  C   UNL     1     -40.768  59.687 -50.724  1.00  0.00     0.045 C 
BRANCH  17  19
HETATM   19  N   UNL     1     -43.028  59.319 -51.722  1.00  0.00    -0.063 N 
HETATM   20  H   UNL     1     -43.109  58.649 -52.496  1.00  0.00     0.280 HD
HETATM   21  C   UNL     1     -44.409  59.448 -51.114  1.00  0.00     0.235 C 
HETATM   22  C   UNL     1     -45.404  59.820 -52.208  1.00  0.00     0.028 C 
HETATM   23  C   UNL     1     -44.996  61.100 -52.928  1.00  0.00     0.003 C 
HETATM   24  C   UNL     1     -43.566  61.009 -53.450  1.00  0.00     0.028 C 
HETATM   25  C   UNL     1     -42.588  60.625 -52.348  1.00  0.00     0.235 C 
ENDBRANCH  17  19
ENDBRANCH   1  17
TORSDOF 3
ENDMDL
MODEL 5
REMARK VINA RESULT:      -7.5      4.234      5.849
REMARK  3 active torsions:
REMARK  status: ('A' for Active; 'I' for Inactive)
REMARK    1  A    between atoms: C_2  and  N_3 
REMARK    2  A    between atoms: C_2  and  C_10 
REMARK    3  A    between atoms: C_13  and  C_14 
ROOT
HETATM    1  C   UNL     1     -41.484  57.857 -52.234  1.00  0.00    -0.028 A 
HETATM    2  C   UNL     1     -41.441  56.945 -51.168  1.00  0.00     0.010 A 
HETATM    3  C   UNL     1     -41.138  55.595 -51.384  1.00  0.00     0.013 A 
HETATM    4  C   UNL     1     -40.862  55.107 -52.668  1.00  0.00    -0.024 A 
HETATM    5  C   UNL     1     -40.892  56.024 -53.730  1.00  0.00     0.013 A 
HETATM    6  C   UNL     1     -41.199  57.374 -53.520  1.00  0.00     0.010 A 
ENDROOT
BRANCH   4   7
HETATM    7  C   UNL     1     -40.557  53.684 -52.895  1.00  0.00    -0.006 A 
HETATM    8  C   UNL     1     -40.665  53.110 -54.172  1.00  0.00     0.131 A 
HETATM    9  N   UNL     1     -40.422  51.823 -54.512  1.00  0.00    -0.239 NA
HETATM   10  C   UNL     1     -40.041  51.041 -53.481  1.00  0.00     0.177 A 
HETATM   11  C   UNL     1     -39.904  51.512 -52.181  1.00  0.00     0.082 A 
HETATM   12  N   UNL     1     -39.743  49.711 -53.561  1.00  0.00    -0.222 NA
HETATM   13  N   UNL     1     -39.505  50.412 -51.467  1.00  0.00    -0.348 N 
HETATM   14  C   UNL     1     -40.155  52.843 -51.844  1.00  0.00     0.047 A 
HETATM   15  H   UNL     1     -39.306  50.376 -50.478  1.00  0.00     0.167 HD
HETATM   16  C   UNL     1     -39.425  49.358 -52.336  1.00  0.00     0.210 A 
ENDBRANCH   4   7
BRANCH   1  17
HETATM   17  C   UNL     1     -41.847  59.307 -51.966  1.00  0.00     0.217 C 
HETATM   18  C   UNL     1     -42.032  60.165 -53.225  1.00  0.00     0.045 C 
BRANCH  17  19
HETATM   19  N   UNL     1     -43.062  59.502 -51.048  1.00  0.00    -0.063 N 
HETATM   20  H   UNL     1     -42.911  58.856 -50.264  1.00  0.00     0.280 HD
HETATM   21  C   UNL     1     -43.196  60.887 -50.450  1.00  0.00     0.235 C 
HETATM   22  C   UNL     1     -44.291  60.869 -49.389  1.00  0.00     0.028 C 
HETATM   23  C   UNL     1     -45.618  60.383 -49.958  1.00  0.00     0.003 C 
HETATM   24  C   UNL     1     -45.462  59.035 -50.653  1.00  0.00     0.028 C 
HETATM   25  C   UNL     1     -44.357  59.067 -51.701  1.00  0.00     0.235 C 
ENDBRANCH  17  19
ENDBRANCH   1  17
TORSDOF 3
ENDMDL
MODEL 6
REMARK VINA RESULT:      -7.5      1.562      8.548
REMARK  3 active torsions:
REMARK  status: ('A' for Active; 'I' for Inactive)
REMARK    1  A    between atoms: C_2  and  N_3 
REMARK    2  A    between atoms: C_2  and  C_10 
REMARK    3  A    between atoms: C_13  and  C_14 
ROOT
HETATM    1  C   UNL     1     -41.249  54.385 -53.105  1.00  0.00    -0.028 A 
HETATM    2  C   UNL     1     -40.504  55.071 -54.078  1.00  0.00     0.010 A 
HETATM    3  C   UNL     1     -41.125  55.632 -55.201  1.00  0.00     0.013 A 
HETATM    4  C   UNL     1     -42.510  55.533 -55.393  1.00  0.00    -0.024 A 
HETATM    5  C   UNL     1     -43.253  54.859 -54.412  1.00  0.00     0.013 A 
HETATM    6  C   UNL     1     -42.637  54.293 -53.289  1.00  0.00     0.010 A 
ENDROOT
BRANCH   4   7
HETATM    7  C   UNL     1     -43.159  56.111 -56.582  1.00  0.00    -0.006 A 
HETATM    8  C   UNL     1     -43.128  55.452 -57.822  1.00  0.00     0.131 A 
HETATM    9  N   UNL     1     -43.675  55.876 -58.985  1.00  0.00    -0.239 NA
HETATM   10  C   UNL     1     -44.306  57.064 -58.899  1.00  0.00     0.177 A 
HETATM   11  C   UNL     1     -44.393  57.795 -57.721  1.00  0.00     0.082 A 
HETATM   12  N   UNL     1     -44.933  57.707 -59.928  1.00  0.00    -0.222 NA
HETATM   13  N   UNL     1     -45.104  58.913 -58.071  1.00  0.00    -0.348 N 
HETATM   14  C   UNL     1     -43.826  57.346 -56.526  1.00  0.00     0.047 A 
HETATM   15  H   UNL     1     -45.364  59.676 -57.463  1.00  0.00     0.167 HD
HETATM   16  C   UNL     1     -45.404  58.815 -59.403  1.00  0.00     0.210 A 
ENDBRANCH   4   7
BRANCH   1  17
HETATM   17  C   UNL     1     -40.537  53.764 -51.917  1.00  0.00     0.217 C 
HETATM   18  C   UNL     1     -41.370  53.709 -50.629  1.00  0.00     0.045 C 
BRANCH  17  19
HETATM   19  N   UNL     1     -39.942  52.374 -52.184  1.00  0.00    -0.063 N 
HETATM   20  H   UNL     1     -38.931  52.529 -52.273  1.00  0.00     0.280 HD
HETATM   21  C   UNL     1     -40.130  51.372 -51.064  1.00  0.00     0.235 C 
HETATM   22  C   UNL     1     -39.296  50.131 -51.359  1.00  0.00     0.028 C 
HETATM   23  C   UNL     1     -39.651  49.522 -52.710  1.00  0.00     0.003 C 
HETATM   24  C   UNL     1     -39.562  50.558 -53.825  1.00  0.00     0.028 C 
HETATM   25  C   UNL     1     -40.392  51.796 -53.509  1.00  0.00     0.235 C 
ENDBRANCH  17  19
ENDBRANCH   1  17
TORSDOF 3
ENDMDL
MODEL 7
REMARK VINA RESULT:      -7.5      1.423      2.064
REMARK  3 active torsions:
REMARK  status: ('A' for Active; 'I' for Inactive)
REMARK    1  A    between atoms: C_2  and  N_3 
REMARK    2  A    between atoms: C_2  and  C_10 
REMARK    3  A    between atoms: C_13  and  C_14 
ROOT
HETATM    1  C   UNL     1     -42.312  57.071 -55.628  1.00  0.00    -0.028 A 
HETATM    2  C   UNL     1     -41.637  57.188 -54.402  1.00  0.00     0.010 A 
HETATM    3  C   UNL     1     -41.142  56.059 -53.739  1.00  0.00     0.013 A 
HETATM    4  C   UNL     1     -41.297  54.773 -54.275  1.00  0.00    -0.024 A 
HETATM    5  C   UNL     1     -41.959  54.660 -55.507  1.00  0.00     0.013 A 
HETATM    6  C   UNL     1     -42.461  55.786 -56.172  1.00  0.00     0.010 A 
ENDROOT
BRANCH   4   7
HETATM    7  C   UNL     1     -40.788  53.584 -53.569  1.00  0.00    -0.006 A 
HETATM    8  C   UNL     1     -40.404  53.648 -52.220  1.00  0.00     0.131 A 
HETATM    9  N   UNL     1     -39.917  52.638 -51.462  1.00  0.00    -0.239 NA
HETATM   10  C   UNL     1     -39.802  51.463 -52.113  1.00  0.00     0.177 A 
HETATM   11  C   UNL     1     -40.155  51.296 -53.447  1.00  0.00     0.082 A 
HETATM   12  N   UNL     1     -39.335  50.298 -51.574  1.00  0.00    -0.222 NA
HETATM   13  N   UNL     1     -39.887  49.976 -53.701  1.00  0.00    -0.348 N 
HETATM   14  C   UNL     1     -40.658  52.345 -54.218  1.00  0.00     0.047 A 
HETATM   15  H   UNL     1     -40.024  49.492 -54.577  1.00  0.00     0.167 HD
HETATM   16  C   UNL     1     -39.397  49.421 -52.551  1.00  0.00     0.210 A 
ENDBRANCH   4   7
BRANCH   1  17
HETATM   17  C   UNL     1     -42.862  58.315 -56.303  1.00  0.00     0.217 C 
HETATM   18  C   UNL     1     -42.094  59.606 -55.990  1.00  0.00     0.045 C 
BRANCH  17  19
HETATM   19  N   UNL     1     -43.032  58.193 -57.824  1.00  0.00    -0.063 N 
HETATM   20  H   UNL     1     -42.768  57.226 -58.046  1.00  0.00     0.280 HD
HETATM   21  C   UNL     1     -44.448  58.383 -58.326  1.00  0.00     0.235 C 
HETATM   22  C   UNL     1     -44.510  58.004 -59.801  1.00  0.00     0.028 C 
HETATM   23  C   UNL     1     -43.517  58.809 -60.632  1.00  0.00     0.003 C 
HETATM   24  C   UNL     1     -42.106  58.701 -60.065  1.00  0.00     0.028 C 
HETATM   25  C   UNL     1     -42.064  59.072 -58.588  1.00  0.00     0.235 C 
ENDBRANCH  17  19
ENDBRANCH   1  17
TORSDOF 3
ENDMDL
MODEL 8
REMARK VINA RESULT:      -7.4      4.737      9.050
REMARK  3 active torsions:
REMARK  status: ('A' for Active; 'I' for Inactive)
REMARK    1  A    between atoms: C_2  and  N_3 
REMARK    2  A    between atoms: C_2  and  C_10 
REMARK    3  A    between atoms: C_13  and  C_14 
ROOT
HETATM    1  C   UNL     1     -41.597  55.274 -50.984  1.00  0.00    -0.028 A 
HETATM    2  C   UNL     1     -41.192  56.555 -51.394  1.00  0.00     0.010 A 
HETATM    3  C   UNL     1     -42.127  57.576 -51.602  1.00  0.00     0.013 A 
HETATM    4  C   UNL     1     -43.498  57.359 -51.406  1.00  0.00    -0.024 A 
HETATM    5  C   UNL     1     -43.898  56.083 -50.983  1.00  0.00     0.013 A 
HETATM    6  C   UNL     1     -42.967  55.056 -50.778  1.00  0.00     0.010 A 
ENDROOT
BRANCH   4   7
HETATM    7  C   UNL     1     -44.481  58.431 -51.640  1.00  0.00    -0.006 A 
HETATM    8  C   UNL     1     -45.367  58.840 -50.630  1.00  0.00     0.131 A 
HETATM    9  N   UNL     1     -46.316  59.800 -50.716  1.00  0.00    -0.239 NA
HETATM   10  C   UNL     1     -46.385  60.403 -51.921  1.00  0.00     0.177 A 
HETATM   11  C   UNL     1     -45.555  60.071 -52.984  1.00  0.00     0.082 A 
HETATM   12  N   UNL     1     -47.257  61.397 -52.263  1.00  0.00    -0.222 NA
HETATM   13  N   UNL     1     -45.954  60.909 -53.993  1.00  0.00    -0.348 N 
HETATM   14  C   UNL     1     -44.578  59.080 -52.882  1.00  0.00     0.047 A 
HETATM   15  H   UNL     1     -45.569  60.954 -54.926  1.00  0.00     0.167 HD
HETATM   16  C   UNL     1     -46.976  61.682 -53.514  1.00  0.00     0.210 A 
ENDBRANCH   4   7
BRANCH   1  17
HETATM   17  C   UNL     1     -40.558  54.183 -50.798  1.00  0.00     0.217 C 
HETATM   18  C   UNL     1     -40.555  53.531 -49.409  1.00  0.00     0.045 C 
BRANCH  17  19
HETATM   19  N   UNL     1     -40.593  53.079 -51.865  1.00  0.00    -0.063 N 
HETATM   20  H   UNL     1     -41.477  52.581 -51.706  1.00  0.00     0.280 HD
HETATM   21  C   UNL     1     -40.625  53.574 -53.296  1.00  0.00     0.235 C 
HETATM   22  C   UNL     1     -40.896  52.397 -54.226  1.00  0.00     0.028 C 
HETATM   23  C   UNL     1     -39.865  51.289 -54.048  1.00  0.00     0.003 C 
HETATM   24  C   UNL     1     -39.758  50.862 -52.588  1.00  0.00     0.028 C 
HETATM   25  C   UNL     1     -39.498  52.051 -51.673  1.00  0.00     0.235 C 
ENDBRANCH  17  19
ENDBRANCH   1  17
TORSDOF 3
ENDMDL
MODEL 9
REMARK VINA RESULT:      -7.3      2.035      8.812
REMARK  3 active torsions:
REMARK  status: ('A' for Active; 'I' for Inactive)
REMARK    1  A    between atoms: C_2  and  N_3 
REMARK    2  A    between atoms: C_2  and  C_10 
REMARK    3  A    between atoms: C_13  and  C_14 
ROOT
HETATM    1  C   UNL     1     -41.618  53.993 -53.993  1.00  0.00    -0.028 A 
HETATM    2  C   UNL     1     -40.939  55.180 -54.310  1.00  0.00     0.010 A 
HETATM    3  C   UNL     1     -41.328  55.966 -55.402  1.00  0.00     0.013 A 
HETATM    4  C   UNL     1     -42.410  55.600 -56.214  1.00  0.00    -0.024 A 
HETATM    5  C   UNL     1     -43.096  54.420 -55.886  1.00  0.00     0.013 A 
HETATM    6  C   UNL     1     -42.708  53.628 -54.798  1.00  0.00     0.010 A 
ENDROOT
BRANCH   4   7
HETATM    7  C   UNL     1     -42.809  56.420 -57.370  1.00  0.00    -0.006 A 
HETATM    8  C   UNL     1     -43.424  55.845 -58.494  1.00  0.00     0.131 A 
HETATM    9  N   UNL     1     -43.831  56.482 -59.617  1.00  0.00    -0.239 NA
HETATM   10  C   UNL     1     -43.598  57.810 -59.615  1.00  0.00     0.177 A 
HETATM   11  C   UNL     1     -42.996  58.474 -58.553  1.00  0.00     0.082 A 
HETATM   12  N   UNL     1     -43.910  58.673 -60.627  1.00  0.00    -0.222 NA
HETATM   13  N   UNL     1     -42.956  59.783 -58.957  1.00  0.00    -0.348 N 
HETATM   14  C   UNL     1     -42.583  57.807 -57.399  1.00  0.00     0.047 A 
HETATM   15  H   UNL     1     -42.584  60.563 -58.434  1.00  0.00     0.167 HD
HETATM   16  C   UNL     1     -43.513  59.852 -60.205  1.00  0.00     0.210 A 
ENDBRANCH   4   7
BRANCH   1  17
HETATM   17  C   UNL     1     -41.148  53.151 -52.820  1.00  0.00     0.217 C 
HETATM   18  C   UNL     1     -39.910  52.290 -53.105  1.00  0.00     0.045 C 
BRANCH  17  19
HETATM   19  N   UNL     1     -40.920  53.937 -51.521  1.00  0.00    -0.063 N 
HETATM   20  H   UNL     1     -40.347  54.744 -51.794  1.00  0.00     0.280 HD
HETATM   21  C   UNL     1     -42.175  54.492 -50.881  1.00  0.00     0.235 C 
HETATM   22  C   UNL     1     -41.784  55.436 -49.750  1.00  0.00     0.028 C 
HETATM   23  C   UNL     1     -40.898  54.745 -48.720  1.00  0.00     0.003 C 
HETATM   24  C   UNL     1     -39.686  54.095 -49.379  1.00  0.00     0.028 C 
HETATM   25  C   UNL     1     -40.095  53.165 -50.514  1.00  0.00     0.235 C 
ENDBRANCH  17  19
ENDBRANCH   1  17
TORSDOF 3
ENDMDL
MODEL 10
REMARK VINA RESULT:      -7.3      5.050      8.838
REMARK  3 active torsions:
REMARK  status: ('A' for Active; 'I' for Inactive)
REMARK    1  A    between atoms: C_2  and  N_3 
REMARK    2  A    between atoms: C_2  and  C_10 
REMARK    3  A    between atoms: C_13  and  C_14 
ROOT
HETATM    1  C   UNL     1     -41.005  53.918 -50.861  1.00  0.00    -0.028 A 
HETATM    2  C   UNL     1     -40.544  55.112 -50.284  1.00  0.00     0.010 A 
HETATM    3  C   UNL     1     -41.243  56.313 -50.454  1.00  0.00     0.013 A 
HETATM    4  C   UNL     1     -42.429  56.367 -51.200  1.00  0.00    -0.024 A 
HETATM    5  C   UNL     1     -42.894  55.169 -51.763  1.00  0.00     0.013 A 
HETATM    6  C   UNL     1     -42.196  53.966 -51.601  1.00  0.00     0.010 A 
ENDROOT
BRANCH   4   7
HETATM    7  C   UNL     1     -43.155  57.634 -51.389  1.00  0.00    -0.006 A 
HETATM    8  C   UNL     1     -42.492  58.799 -51.805  1.00  0.00     0.131 A 
HETATM    9  N   UNL     1     -43.038  60.021 -52.008  1.00  0.00    -0.239 NA
HETATM   10  C   UNL     1     -44.364  60.081 -51.771  1.00  0.00     0.177 A 
HETATM   11  C   UNL     1     -45.111  58.986 -51.356  1.00  0.00     0.082 A 
HETATM   12  N   UNL     1     -45.144  61.195 -51.898  1.00  0.00    -0.222 NA
HETATM   13  N   UNL     1     -46.386  59.476 -51.238  1.00  0.00    -0.348 N 
HETATM   14  C   UNL     1     -44.537  57.730 -51.152  1.00  0.00     0.047 A 
HETATM   15  H   UNL     1     -47.206  58.958 -50.956  1.00  0.00     0.167 HD
HETATM   16  C   UNL     1     -46.355  60.802 -51.571  1.00  0.00     0.210 A 
ENDBRANCH   4   7
BRANCH   1  17
HETATM   17  C   UNL     1     -40.203  52.641 -50.682  1.00  0.00     0.217 C 
HETATM   18  C   UNL     1     -40.543  51.844 -49.415  1.00  0.00     0.045 C 
BRANCH  17  19
HETATM   19  N   UNL     1     -40.235  51.693 -51.889  1.00  0.00    -0.063 N 
HETATM   20  H   UNL     1     -41.208  51.369 -51.950  1.00  0.00     0.280 HD
HETATM   21  C   UNL     1     -39.909  52.340 -53.219  1.00  0.00     0.235 C 
HETATM   22  C   UNL     1     -40.207  51.353 -54.341  1.00  0.00     0.028 C 
HETATM   23  C   UNL     1     -39.443  50.047 -54.161  1.00  0.00     0.003 C 
HETATM   24  C   UNL     1     -39.690  49.447 -52.781  1.00  0.00     0.028 C 
HETATM   25  C   UNL     1     -39.398  50.450 -51.673  1.00  0.00     0.235 C 
ENDBRANCH  17  19
ENDBRANCH   1  17
TORSDOF 3
ENDMDL
