MODEL 1
REMARK VINA RESULT:      -8.0      0.000      0.000
REMARK  4 active torsions:
REMARK  status: ('A' for Active; 'I' for Inactive)
REMARK    1  A    between atoms: C_9  and  C_10 
REMARK    2  A    between atoms: C_17  and  C_18 
REMARK       I    between atoms: C_18  and  N_19 
REMARK    3  A    between atoms: N_19  and  C_20 
REMARK    4  A    between atoms: C_23  and  O_24 
ROOT
HETATM    1  C   UNL     1     -43.604  55.042 -58.747  1.00  0.00     0.070 C 
HETATM    2  C   UNL     1     -43.191  56.323 -58.065  1.00  0.00     0.037 C 
HETATM    3  N   UNL     1     -43.195  57.454 -58.876  1.00  0.00    -0.192 N 
HETATM    4  C   UNL     1     -42.629  58.623 -58.516  1.00  0.00     0.725 A 
HETATM    5  N   UNL     1     -42.170  58.780 -57.236  1.00  0.00    -0.084 N 
HETATM    6  N   UNL     1     -41.541  59.965 -57.083  1.00  0.00    -0.149 NA
HETATM    7  C   UNL     1     -41.715  60.494 -58.300  1.00  0.00     0.275 A 
HETATM    8  N   UNL     1     -42.376  59.705 -59.206  1.00  0.00    -0.054 NA
HETATM    9  C   UNL     1     -42.220  57.728 -56.214  1.00  0.00     0.204 C 
HETATM   10  C   UNL     1     -42.751  56.415 -56.783  1.00  0.00     0.062 C 
HETATM   11  H   UNL     1     -43.458  57.336 -59.851  1.00  0.00     0.184 HD
ENDROOT
BRANCH  10  12
HETATM   12  C   UNL     1     -42.539  55.246 -55.887  1.00  0.00     0.256 C 
HETATM   13  N   UNL     1     -41.250  55.107 -55.421  1.00  0.00    -0.323 N 
HETATM   14  H   UNL     1     -40.554  55.741 -55.791  1.00  0.00     0.169 HD
HETATM   15  O   UNL     1     -43.490  54.506 -55.668  1.00  0.00    -0.267 OA
BRANCH  13  16
HETATM   16  C   UNL     1     -40.806  54.211 -54.422  1.00  0.00     0.035 A 
HETATM   17  C   UNL     1     -40.273  52.951 -54.689  1.00  0.00     0.032 A 
HETATM   18  C   UNL     1     -39.898  52.101 -53.642  1.00  0.00     0.039 A 
HETATM   19  C   UNL     1     -40.047  52.494 -52.313  1.00  0.00     0.068 A 
HETATM   20  C   UNL     1     -40.579  53.752 -52.036  1.00  0.00     0.039 A 
HETATM   21  C   UNL     1     -40.953  54.605 -53.085  1.00  0.00     0.032 A 
BRANCH  19  22
HETATM   22  O   UNL     1     -39.649  51.564 -51.395  1.00  0.00    -0.356 OA
HETATM   23  C   UNL     1     -39.542  50.219 -51.843  1.00  0.00     0.210 C 
ENDBRANCH  19  22
ENDBRANCH  13  16
ENDBRANCH  10  12
BRANCH   9  24
HETATM   24  C   UNL     1     -42.946  58.217 -54.960  1.00  0.00    -0.006 A 
HETATM   25  C   UNL     1     -42.342  58.401 -53.704  1.00  0.00     0.042 A 
HETATM   26 CL   UNL     1     -40.650  58.186 -53.431  1.00  0.00    -0.084 Cl
HETATM   27  C   UNL     1     -43.103  58.797 -52.595  1.00  0.00     0.024 A 
HETATM   28  C   UNL     1     -44.469  59.034 -52.722  1.00  0.00     0.002 A 
HETATM   29  C   UNL     1     -45.080  58.884 -53.961  1.00  0.00     0.001 A 
HETATM   30  C   UNL     1     -44.328  58.481 -55.066  1.00  0.00     0.011 A 
ENDBRANCH   9  24
TORSDOF 4
ENDMDL
MODEL 2
REMARK VINA RESULT:      -8.0      2.824      6.869
REMARK  4 active torsions:
REMARK  status: ('A' for Active; 'I' for Inactive)
REMARK    1  A    between atoms: C_9  and  C_10 
REMARK    2  A    between atoms: C_17  and  C_18 
REMARK       I    between atoms: C_18  and  N_19 
REMARK    3  A    between atoms: N_19  and  C_20 
REMARK    4  A    between atoms: C_23  and  O_24 
ROOT
HETATM    1  C   UNL     1     -40.626  53.106 -54.549  1.00  0.00     0.070 C 
HETATM    2  C   UNL     1     -40.933  53.921 -53.317  1.00  0.00     0.037 C 
HETATM    3  N   UNL     1     -40.175  53.604 -52.192  1.00  0.00    -0.192 N 
HETATM    4  C   UNL     1     -40.470  54.045 -50.954  1.00  0.00     0.725 A 
HETATM    5  N   UNL     1     -41.456  54.981 -50.793  1.00  0.00    -0.084 N 
HETATM    6  N   UNL     1     -41.690  55.226 -49.486  1.00  0.00    -0.149 NA
HETATM    7  C   UNL     1     -40.764  54.444 -48.920  1.00  0.00     0.275 A 
HETATM    8  N   UNL     1     -39.996  53.705 -49.783  1.00  0.00    -0.054 NA
HETATM    9  C   UNL     1     -42.256  55.526 -51.896  1.00  0.00     0.204 C 
HETATM   10  C   UNL     1     -41.923  54.846 -53.222  1.00  0.00     0.062 C 
HETATM   11  H   UNL     1     -39.493  52.854 -52.278  1.00  0.00     0.184 HD
ENDROOT
BRANCH  10  12
HETATM   12  C   UNL     1     -42.902  55.134 -54.305  1.00  0.00     0.256 C 
HETATM   13  N   UNL     1     -42.459  56.028 -55.254  1.00  0.00    -0.323 N 
HETATM   14  H   UNL     1     -41.564  56.472 -55.090  1.00  0.00     0.169 HD
HETATM   15  O   UNL     1     -44.001  54.595 -54.250  1.00  0.00    -0.267 OA
BRANCH  13  16
HETATM   16  C   UNL     1     -43.093  56.344 -56.478  1.00  0.00     0.035 A 
HETATM   17  C   UNL     1     -43.894  57.468 -56.672  1.00  0.00     0.032 A 
HETATM   18  C   UNL     1     -44.526  57.687 -57.901  1.00  0.00     0.039 A 
HETATM   19  C   UNL     1     -44.370  56.790 -58.957  1.00  0.00     0.068 A 
HETATM   20  C   UNL     1     -43.571  55.663 -58.772  1.00  0.00     0.039 A 
HETATM   21  C   UNL     1     -42.935  55.444 -57.541  1.00  0.00     0.032 A 
BRANCH  19  22
HETATM   22  O   UNL     1     -45.049  57.123 -60.094  1.00  0.00    -0.356 OA
HETATM   23  C   UNL     1     -46.269  56.437 -60.342  1.00  0.00     0.210 C 
ENDBRANCH  19  22
ENDBRANCH  13  16
ENDBRANCH  10  12
BRANCH   9  24
HETATM   24  C   UNL     1     -42.180  57.052 -51.927  1.00  0.00    -0.006 A 
HETATM   25  C   UNL     1     -43.245  57.916 -51.616  1.00  0.00     0.042 A 
HETATM   26 CL   UNL     1     -44.779  57.355 -51.055  1.00  0.00    -0.084 Cl
HETATM   27  C   UNL     1     -43.096  59.305 -51.730  1.00  0.00     0.024 A 
HETATM   28  C   UNL     1     -41.884  59.857 -52.137  1.00  0.00     0.002 A 
HETATM   29  C   UNL     1     -40.811  59.022 -52.424  1.00  0.00     0.001 A 
HETATM   30  C   UNL     1     -40.957  57.637 -52.319  1.00  0.00     0.011 A 
ENDBRANCH   9  24
TORSDOF 4
ENDMDL
MODEL 3
REMARK VINA RESULT:      -7.9      2.964      6.586
REMARK  4 active torsions:
REMARK  status: ('A' for Active; 'I' for Inactive)
REMARK    1  A    between atoms: C_9  and  C_10 
REMARK    2  A    between atoms: C_17  and  C_18 
REMARK       I    between atoms: C_18  and  N_19 
REMARK    3  A    between atoms: N_19  and  C_20 
REMARK    4  A    between atoms: C_23  and  O_24 
ROOT
HETATM    1  C   UNL     1     -45.320  59.468 -52.937  1.00  0.00     0.070 C 
HETATM    2  C   UNL     1     -43.965  58.951 -52.520  1.00  0.00     0.037 C 
HETATM    3  N   UNL     1     -43.357  59.650 -51.481  1.00  0.00    -0.192 N 
HETATM    4  C   UNL     1     -42.062  59.493 -51.142  1.00  0.00     0.725 A 
HETATM    5  N   UNL     1     -41.335  58.489 -51.721  1.00  0.00    -0.084 N 
HETATM    6  N   UNL     1     -40.038  58.545 -51.349  1.00  0.00    -0.149 NA
HETATM    7  C   UNL     1     -40.073  59.575 -50.496  1.00  0.00     0.275 A 
HETATM    8  N   UNL     1     -41.293  60.183 -50.340  1.00  0.00    -0.054 NA
HETATM    9  C   UNL     1     -41.869  57.571 -52.735  1.00  0.00     0.204 C 
HETATM   10  C   UNL     1     -43.296  57.940 -53.133  1.00  0.00     0.062 C 
HETATM   11  H   UNL     1     -43.854  60.449 -51.094  1.00  0.00     0.184 HD
ENDROOT
BRANCH  10  12
HETATM   12  C   UNL     1     -43.774  57.245 -54.359  1.00  0.00     0.256 C 
HETATM   13  N   UNL     1     -43.384  57.837 -55.541  1.00  0.00    -0.323 N 
HETATM   14  H   UNL     1     -42.896  58.721 -55.477  1.00  0.00     0.169 HD
HETATM   15  O   UNL     1     -44.479  56.253 -54.224  1.00  0.00    -0.267 OA
BRANCH  13  16
HETATM   16  C   UNL     1     -43.533  57.302 -56.841  1.00  0.00     0.035 A 
HETATM   17  C   UNL     1     -42.864  56.167 -57.297  1.00  0.00     0.032 A 
HETATM   18  C   UNL     1     -43.029  55.727 -58.615  1.00  0.00     0.039 A 
HETATM   19  C   UNL     1     -43.862  56.409 -59.500  1.00  0.00     0.068 A 
HETATM   20  C   UNL     1     -44.535  57.544 -59.053  1.00  0.00     0.039 A 
HETATM   21  C   UNL     1     -44.372  57.985 -57.731  1.00  0.00     0.032 A 
BRANCH  19  22
HETATM   22  O   UNL     1     -43.923  55.873 -60.755  1.00  0.00    -0.356 OA
HETATM   23  C   UNL     1     -45.045  55.054 -61.054  1.00  0.00     0.210 C 
ENDBRANCH  19  22
ENDBRANCH  13  16
ENDBRANCH  10  12
BRANCH   9  24
HETATM   24  C   UNL     1     -41.685  56.115 -52.307  1.00  0.00    -0.006 A 
HETATM   25  C   UNL     1     -41.111  55.110 -53.106  1.00  0.00     0.042 A 
HETATM   26 CL   UNL     1     -40.440  55.416 -54.668  1.00  0.00    -0.084 Cl
HETATM   27  C   UNL     1     -41.038  53.786 -52.649  1.00  0.00     0.024 A 
HETATM   28  C   UNL     1     -41.516  53.446 -51.386  1.00  0.00     0.002 A 
HETATM   29  C   UNL     1     -42.062  54.430 -50.570  1.00  0.00     0.001 A 
HETATM   30  C   UNL     1     -42.144  55.747 -51.025  1.00  0.00     0.011 A 
ENDBRANCH   9  24
TORSDOF 4
ENDMDL
MODEL 4
REMARK VINA RESULT:      -7.5      2.939      4.660
REMARK  4 active torsions:
REMARK  status: ('A' for Active; 'I' for Inactive)
REMARK    1  A    between atoms: C_9  and  C_10 
REMARK    2  A    between atoms: C_17  and  C_18 
REMARK       I    between atoms: C_18  and  N_19 
REMARK    3  A    between atoms: N_19  and  C_20 
REMARK    4  A    between atoms: C_23  and  O_24 
ROOT
HETATM    1  C   UNL     1     -40.988  57.335 -50.130  1.00  0.00     0.070 C 
HETATM    2  C   UNL     1     -42.033  57.978 -51.009  1.00  0.00     0.037 C 
HETATM    3  N   UNL     1     -42.388  59.277 -50.654  1.00  0.00    -0.192 N 
HETATM    4  C   UNL     1     -43.462  59.914 -51.160  1.00  0.00     0.725 A 
HETATM    5  N   UNL     1     -44.155  59.343 -52.193  1.00  0.00    -0.084 N 
HETATM    6  N   UNL     1     -45.257  60.061 -52.500  1.00  0.00    -0.149 NA
HETATM    7  C   UNL     1     -45.127  61.085 -51.648  1.00  0.00     0.275 A 
HETATM    8  N   UNL     1     -44.042  61.033 -50.811  1.00  0.00    -0.054 NA
HETATM    9  C   UNL     1     -43.823  58.039 -52.779  1.00  0.00     0.204 C 
HETATM   10  C   UNL     1     -42.681  57.358 -52.029  1.00  0.00     0.062 C 
HETATM   11  H   UNL     1     -41.936  59.685 -49.838  1.00  0.00     0.184 HD
ENDROOT
BRANCH  10  12
HETATM   12  C   UNL     1     -42.506  55.923 -52.379  1.00  0.00     0.256 C 
HETATM   13  N   UNL     1     -41.224  55.574 -52.744  1.00  0.00    -0.323 N 
HETATM   14  H   UNL     1     -40.548  56.322 -52.830  1.00  0.00     0.169 HD
HETATM   15  O   UNL     1     -43.491  55.196 -52.346  1.00  0.00    -0.267 OA
BRANCH  13  16
HETATM   16  C   UNL     1     -40.731  54.265 -52.945  1.00  0.00     0.035 A 
HETATM   17  C   UNL     1     -40.665  53.642 -54.191  1.00  0.00     0.032 A 
HETATM   18  C   UNL     1     -40.207  52.324 -54.303  1.00  0.00     0.039 A 
HETATM   19  C   UNL     1     -39.807  51.607 -53.177  1.00  0.00     0.068 A 
HETATM   20  C   UNL     1     -39.869  52.221 -51.928  1.00  0.00     0.039 A 
HETATM   21  C   UNL     1     -40.326  53.543 -51.815  1.00  0.00     0.032 A 
BRANCH  19  22
HETATM   22  O   UNL     1     -39.390  50.331 -53.432  1.00  0.00    -0.356 OA
HETATM   23  C   UNL     1     -39.791  49.756 -54.668  1.00  0.00     0.210 C 
ENDBRANCH  19  22
ENDBRANCH  13  16
ENDBRANCH  10  12
BRANCH   9  24
HETATM   24  C   UNL     1     -43.613  58.154 -54.289  1.00  0.00    -0.006 A 
HETATM   25  C   UNL     1     -42.534  58.814 -54.901  1.00  0.00     0.042 A 
HETATM   26 CL   UNL     1     -41.229  59.512 -54.011  1.00  0.00    -0.084 Cl
HETATM   27  C   UNL     1     -42.458  58.919 -56.297  1.00  0.00     0.024 A 
HETATM   28  C   UNL     1     -43.441  58.354 -57.105  1.00  0.00     0.002 A 
HETATM   29  C   UNL     1     -44.503  57.674 -56.520  1.00  0.00     0.001 A 
HETATM   30  C   UNL     1     -44.587  57.575 -55.130  1.00  0.00     0.011 A 
ENDBRANCH   9  24
TORSDOF 4
ENDMDL
MODEL 5
REMARK VINA RESULT:      -7.3      1.993      3.920
REMARK  4 active torsions:
REMARK  status: ('A' for Active; 'I' for Inactive)
REMARK    1  A    between atoms: C_9  and  C_10 
REMARK    2  A    between atoms: C_17  and  C_18 
REMARK       I    between atoms: C_18  and  N_19 
REMARK    3  A    between atoms: N_19  and  C_20 
REMARK    4  A    between atoms: C_23  and  O_24 
ROOT
HETATM    1  C   UNL     1     -41.024  59.065 -53.044  1.00  0.00     0.070 C 
HETATM    2  C   UNL     1     -41.858  59.251 -54.287  1.00  0.00     0.037 C 
HETATM    3  N   UNL     1     -42.063  60.574 -54.672  1.00  0.00    -0.192 N 
HETATM    4  C   UNL     1     -42.970  60.942 -55.598  1.00  0.00     0.725 A 
HETATM    5  N   UNL     1     -43.615  59.979 -56.325  1.00  0.00    -0.084 N 
HETATM    6  N   UNL     1     -44.560  60.519 -57.124  1.00  0.00    -0.149 NA
HETATM    7  C   UNL     1     -44.384  61.820 -56.867  1.00  0.00     0.275 A 
HETATM    8  N   UNL     1     -43.420  62.122 -55.939  1.00  0.00    -0.054 NA
HETATM    9  C   UNL     1     -43.408  58.537 -56.140  1.00  0.00     0.204 C 
HETATM   10  C   UNL     1     -42.468  58.249 -54.973  1.00  0.00     0.062 C 
HETATM   11  H   UNL     1     -41.654  61.303 -54.093  1.00  0.00     0.184 HD
ENDROOT
BRANCH  10  12
HETATM   12  C   UNL     1     -42.461  56.823 -54.547  1.00  0.00     0.256 C 
HETATM   13  N   UNL     1     -41.234  56.204 -54.638  1.00  0.00    -0.323 N 
HETATM   14  H   UNL     1     -40.481  56.730 -55.063  1.00  0.00     0.169 HD
HETATM   15  O   UNL     1     -43.520  56.321 -54.192  1.00  0.00    -0.267 OA
BRANCH  13  16
HETATM   16  C   UNL     1     -40.894  54.927 -54.136  1.00  0.00     0.035 A 
HETATM   17  C   UNL     1     -40.853  54.610 -52.779  1.00  0.00     0.032 A 
HETATM   18  C   UNL     1     -40.460  53.334 -52.359  1.00  0.00     0.039 A 
HETATM   19  C   UNL     1     -40.104  52.354 -53.283  1.00  0.00     0.068 A 
HETATM   20  C   UNL     1     -40.142  52.661 -54.642  1.00  0.00     0.039 A 
HETATM   21  C   UNL     1     -40.537  53.939 -55.064  1.00  0.00     0.032 A 
BRANCH  19  22
HETATM   22  O   UNL     1     -39.735  51.159 -52.733  1.00  0.00    -0.356 OA
HETATM   23  C   UNL     1     -39.697  50.034 -53.601  1.00  0.00     0.210 C 
ENDBRANCH  19  22
ENDBRANCH  13  16
ENDBRANCH  10  12
BRANCH   9  24
HETATM   24  C   UNL     1     -43.013  57.867 -57.456  1.00  0.00    -0.006 A 
HETATM   25  C   UNL     1     -42.124  58.412 -58.399  1.00  0.00     0.042 A 
HETATM   26 CL   UNL     1     -41.274  59.893 -58.147  1.00  0.00    -0.084 Cl
HETATM   27  C   UNL     1     -41.868  57.748 -59.608  1.00  0.00     0.024 A 
HETATM   28  C   UNL     1     -42.475  56.527 -59.888  1.00  0.00     0.002 A 
HETATM   29  C   UNL     1     -43.336  55.958 -58.957  1.00  0.00     0.001 A 
HETATM   30  C   UNL     1     -43.600  56.619 -57.756  1.00  0.00     0.011 A 
ENDBRANCH   9  24
TORSDOF 4
ENDMDL
MODEL 6
REMARK VINA RESULT:      -6.7      3.427      7.870
REMARK  4 active torsions:
REMARK  status: ('A' for Active; 'I' for Inactive)
REMARK    1  A    between atoms: C_9  and  C_10 
REMARK    2  A    between atoms: C_17  and  C_18 
REMARK       I    between atoms: C_18  and  N_19 
REMARK    3  A    between atoms: N_19  and  C_20 
REMARK    4  A    between atoms: C_23  and  O_24 
ROOT
HETATM    1  C   UNL     1     -41.890  59.741 -50.684  1.00  0.00     0.070 C 
HETATM    2  C   UNL     1     -41.633  58.285 -50.986  1.00  0.00     0.037 C 
HETATM    3  N   UNL     1     -41.674  57.435 -49.884  1.00  0.00    -0.192 N 
HETATM    4  C   UNL     1     -41.234  56.162 -49.916  1.00  0.00     0.725 A 
HETATM    5  N   UNL     1     -40.879  55.605 -51.115  1.00  0.00    -0.084 N 
HETATM    6  N   UNL     1     -40.363  54.368 -50.948  1.00  0.00    -0.149 NA
HETATM    7  C   UNL     1     -40.495  54.225 -49.624  1.00  0.00     0.275 A 
HETATM    8  N   UNL     1     -41.025  55.299 -48.955  1.00  0.00    -0.054 NA
HETATM    9  C   UNL     1     -40.913  56.325 -52.394  1.00  0.00     0.204 C 
HETATM   10  C   UNL     1     -41.292  57.791 -52.205  1.00  0.00     0.062 C 
HETATM   11  H   UNL     1     -41.859  57.849 -48.973  1.00  0.00     0.184 HD
ENDROOT
BRANCH  10  12
HETATM   12  C   UNL     1     -41.047  58.633 -53.407  1.00  0.00     0.256 C 
HETATM   13  N   UNL     1     -42.067  58.619 -54.333  1.00  0.00    -0.323 N 
HETATM   14  H   UNL     1     -42.836  57.982 -54.165  1.00  0.00     0.169 HD
HETATM   15  O   UNL     1     -39.979  59.226 -53.490  1.00  0.00    -0.267 OA
BRANCH  13  16
HETATM   16  C   UNL     1     -42.190  59.455 -55.466  1.00  0.00     0.035 A 
HETATM   17  C   UNL     1     -42.532  60.805 -55.404  1.00  0.00     0.032 A 
HETATM   18  C   UNL     1     -42.680  61.555 -56.576  1.00  0.00     0.039 A 
HETATM   19  C   UNL     1     -42.487  60.974 -57.828  1.00  0.00     0.068 A 
HETATM   20  C   UNL     1     -42.144  59.625 -57.900  1.00  0.00     0.039 A 
HETATM   21  C   UNL     1     -41.994  58.873 -56.726  1.00  0.00     0.032 A 
BRANCH  19  22
HETATM   22  O   UNL     1     -42.671  61.820 -58.885  1.00  0.00    -0.356 OA
HETATM   23  C   UNL     1     -41.517  62.181 -59.631  1.00  0.00     0.210 C 
ENDBRANCH  19  22
ENDBRANCH  13  16
ENDBRANCH  10  12
BRANCH   9  24
HETATM   24  C   UNL     1     -41.761  55.576 -53.422  1.00  0.00    -0.006 A 
HETATM   25  C   UNL     1     -43.154  55.402 -53.340  1.00  0.00     0.042 A 
HETATM   26 CL   UNL     1     -44.119  56.105 -52.092  1.00  0.00    -0.084 Cl
HETATM   27  C   UNL     1     -43.839  54.648 -54.302  1.00  0.00     0.024 A 
HETATM   28  C   UNL     1     -43.155  54.073 -55.370  1.00  0.00     0.002 A 
HETATM   29  C   UNL     1     -41.782  54.256 -55.485  1.00  0.00     0.001 A 
HETATM   30  C   UNL     1     -41.094  54.999 -54.523  1.00  0.00     0.011 A 
ENDBRANCH   9  24
TORSDOF 4
ENDMDL
MODEL 7
REMARK VINA RESULT:      -6.7      1.810      2.229
REMARK  4 active torsions:
REMARK  status: ('A' for Active; 'I' for Inactive)
REMARK    1  A    between atoms: C_9  and  C_10 
REMARK    2  A    between atoms: C_17  and  C_18 
REMARK       I    between atoms: C_18  and  N_19 
REMARK    3  A    between atoms: N_19  and  C_20 
REMARK    4  A    between atoms: C_23  and  O_24 
ROOT
HETATM    1  C   UNL     1     -43.186  55.672 -58.406  1.00  0.00     0.070 C 
HETATM    2  C   UNL     1     -42.896  57.063 -57.896  1.00  0.00     0.037 C 
HETATM    3  N   UNL     1     -42.725  58.032 -58.882  1.00  0.00    -0.192 N 
HETATM    4  C   UNL     1     -42.224  59.258 -58.634  1.00  0.00     0.725 A 
HETATM    5  N   UNL     1     -42.021  59.650 -57.339  1.00  0.00    -0.084 N 
HETATM    6  N   UNL     1     -41.417  60.856 -57.281  1.00  0.00    -0.149 NA
HETATM    7  C   UNL     1     -41.343  61.156 -58.583  1.00  0.00     0.275 A 
HETATM    8  N   UNL     1     -41.826  60.205 -59.444  1.00  0.00    -0.054 NA
HETATM    9  C   UNL     1     -42.285  58.796 -56.174  1.00  0.00     0.204 C 
HETATM   10  C   UNL     1     -42.713  57.391 -56.591  1.00  0.00     0.062 C 
HETATM   11  H   UNL     1     -42.795  57.736 -59.853  1.00  0.00     0.184 HD
ENDROOT
BRANCH  10  12
HETATM   12  C   UNL     1     -42.697  56.405 -55.477  1.00  0.00     0.256 C 
HETATM   13  N   UNL     1     -41.479  56.273 -54.847  1.00  0.00    -0.323 N 
HETATM   14  H   UNL     1     -40.695  56.776 -55.244  1.00  0.00     0.169 HD
HETATM   15  O   UNL     1     -43.726  55.787 -55.237  1.00  0.00    -0.267 OA
BRANCH  13  16
HETATM   16  C   UNL     1     -41.218  55.558 -53.655  1.00  0.00     0.035 A 
HETATM   17  C   UNL     1     -40.817  54.224 -53.620  1.00  0.00     0.032 A 
HETATM   18  C   UNL     1     -40.624  53.571 -52.397  1.00  0.00     0.039 A 
HETATM   19  C   UNL     1     -40.826  54.238 -51.190  1.00  0.00     0.068 A 
HETATM   20  C   UNL     1     -41.228  55.572 -51.215  1.00  0.00     0.039 A 
HETATM   21  C   UNL     1     -41.419  56.227 -52.440  1.00  0.00     0.032 A 
BRANCH  19  22
HETATM   22  O   UNL     1     -40.609  53.478 -50.076  1.00  0.00    -0.356 OA
HETATM   23  C   UNL     1     -39.826  54.059 -49.042  1.00  0.00     0.210 C 
ENDBRANCH  19  22
ENDBRANCH  13  16
ENDBRANCH  10  12
BRANCH   9  24
HETATM   24  C   UNL     1     -43.233  59.485 -55.193  1.00  0.00    -0.006 A 
HETATM   25  C   UNL     1     -44.574  59.810 -55.466  1.00  0.00     0.042 A 
HETATM   26 CL   UNL     1     -45.366  59.379 -56.939  1.00  0.00    -0.084 Cl
HETATM   27  C   UNL     1     -45.350  60.496 -54.522  1.00  0.00     0.024 A 
HETATM   28  C   UNL     1     -44.813  60.853 -53.288  1.00  0.00     0.002 A 
HETATM   29  C   UNL     1     -43.499  60.518 -52.987  1.00  0.00     0.001 A 
HETATM   30  C   UNL     1     -42.719  59.841 -53.928  1.00  0.00     0.011 A 
ENDBRANCH   9  24
TORSDOF 4
ENDMDL
MODEL 8
REMARK VINA RESULT:      -6.4      2.960      3.865
REMARK  4 active torsions:
REMARK  status: ('A' for Active; 'I' for Inactive)
REMARK    1  A    between atoms: C_9  and  C_10 
REMARK    2  A    between atoms: C_17  and  C_18 
REMARK       I    between atoms: C_18  and  N_19 
REMARK    3  A    between atoms: N_19  and  C_20 
REMARK    4  A    between atoms: C_23  and  O_24 
ROOT
HETATM    1  C   UNL     1     -41.994  59.422 -57.081  1.00  0.00     0.070 C 
HETATM    2  C   UNL     1     -42.515  60.365 -56.025  1.00  0.00     0.037 C 
HETATM    3  N   UNL     1     -43.099  61.533 -56.509  1.00  0.00    -0.192 N 
HETATM    4  C   UNL     1     -43.393  62.591 -55.728  1.00  0.00     0.725 A 
HETATM    5  N   UNL     1     -43.276  62.475 -54.370  1.00  0.00    -0.084 N 
HETATM    6  N   UNL     1     -43.505  63.655 -53.755  1.00  0.00    -0.149 NA
HETATM    7  C   UNL     1     -43.815  64.423 -54.806  1.00  0.00     0.275 A 
HETATM    8  N   UNL     1     -43.759  63.810 -56.032  1.00  0.00    -0.054 NA
HETATM    9  C   UNL     1     -42.808  61.261 -53.689  1.00  0.00     0.204 C 
HETATM   10  C   UNL     1     -42.374  60.189 -54.685  1.00  0.00     0.062 C 
HETATM   11  H   UNL     1     -43.121  61.668 -57.517  1.00  0.00     0.184 HD
ENDROOT
BRANCH  10  12
HETATM   12  C   UNL     1     -41.614  59.070 -54.066  1.00  0.00     0.256 C 
HETATM   13  N   UNL     1     -42.263  57.854 -54.092  1.00  0.00    -0.323 N 
HETATM   14  H   UNL     1     -43.214  57.845 -54.436  1.00  0.00     0.169 HD
HETATM   15  O   UNL     1     -40.521  59.316 -53.572  1.00  0.00    -0.267 OA
BRANCH  13  16
HETATM   16  C   UNL     1     -41.714  56.598 -53.749  1.00  0.00     0.035 A 
HETATM   17  C   UNL     1     -40.952  55.818 -54.618  1.00  0.00     0.032 A 
HETATM   18  C   UNL     1     -40.482  54.561 -54.219  1.00  0.00     0.039 A 
HETATM   19  C   UNL     1     -40.762  54.062 -52.949  1.00  0.00     0.068 A 
HETATM   20  C   UNL     1     -41.523  54.834 -52.073  1.00  0.00     0.039 A 
HETATM   21  C   UNL     1     -41.992  56.095 -52.471  1.00  0.00     0.032 A 
BRANCH  19  22
HETATM   22  O   UNL     1     -40.248  52.822 -52.697  1.00  0.00    -0.356 OA
HETATM   23  C   UNL     1     -39.774  52.575 -51.380  1.00  0.00     0.210 C 
ENDBRANCH  19  22
ENDBRANCH  13  16
ENDBRANCH  10  12
BRANCH   9  24
HETATM   24  C   UNL     1     -43.824  60.790 -52.649  1.00  0.00    -0.006 A 
HETATM   25  C   UNL     1     -43.526  60.509 -51.304  1.00  0.00     0.042 A 
HETATM   26 CL   UNL     1     -41.961  60.756 -50.615  1.00  0.00    -0.084 Cl
HETATM   27  C   UNL     1     -44.515  60.023 -50.437  1.00  0.00     0.024 A 
HETATM   28  C   UNL     1     -45.818  59.828 -50.888  1.00  0.00     0.002 A 
HETATM   29  C   UNL     1     -46.140  60.125 -52.207  1.00  0.00     0.001 A 
HETATM   30  C   UNL     1     -45.156  60.600 -53.076  1.00  0.00     0.011 A 
ENDBRANCH   9  24
TORSDOF 4
ENDMDL
MODEL 9
REMARK VINA RESULT:      -6.4      2.712      4.440
REMARK  4 active torsions:
REMARK  status: ('A' for Active; 'I' for Inactive)
REMARK    1  A    between atoms: C_9  and  C_10 
REMARK    2  A    between atoms: C_17  and  C_18 
REMARK       I    between atoms: C_18  and  N_19 
REMARK    3  A    between atoms: N_19  and  C_20 
REMARK    4  A    between atoms: C_23  and  O_24 
ROOT
HETATM    1  C   UNL     1     -43.676  59.102 -52.657  1.00  0.00     0.070 C 
HETATM    2  C   UNL     1     -44.213  59.251 -54.060  1.00  0.00     0.037 C 
HETATM    3  N   UNL     1     -44.771  60.493 -54.353  1.00  0.00    -0.192 N 
HETATM    4  C   UNL     1     -45.511  60.730 -55.453  1.00  0.00     0.725 A 
HETATM    5  N   UNL     1     -45.594  59.769 -56.425  1.00  0.00    -0.084 N 
HETATM    6  N   UNL     1     -46.457  60.130 -57.398  1.00  0.00    -0.149 NA
HETATM    7  C   UNL     1     -46.810  61.349 -56.974  1.00  0.00     0.275 A 
HETATM    8  N   UNL     1     -46.253  61.754 -55.788  1.00  0.00    -0.054 NA
HETATM    9  C   UNL     1     -44.946  58.455 -56.334  1.00  0.00     0.204 C 
HETATM   10  C   UNL     1     -44.259  58.258 -54.985  1.00  0.00     0.062 C 
HETATM   11  H   UNL     1     -44.787  61.191 -53.612  1.00  0.00     0.184 HD
ENDROOT
BRANCH  10  12
HETATM   12  C   UNL     1     -43.854  56.851 -54.720  1.00  0.00     0.256 C 
HETATM   13  N   UNL     1     -42.493  56.645 -54.677  1.00  0.00    -0.323 N 
HETATM   14  H   UNL     1     -41.899  57.429 -54.915  1.00  0.00     0.169 HD
HETATM   15  O   UNL     1     -44.735  56.009 -54.596  1.00  0.00    -0.267 OA
BRANCH  13  16
HETATM   16  C   UNL     1     -41.830  55.466 -54.266  1.00  0.00     0.035 A 
HETATM   17  C   UNL     1     -41.799  55.009 -52.950  1.00  0.00     0.032 A 
HETATM   18  C   UNL     1     -41.080  53.856 -52.614  1.00  0.00     0.039 A 
HETATM   19  C   UNL     1     -40.383  53.139 -53.585  1.00  0.00     0.068 A 
HETATM   20  C   UNL     1     -40.408  53.588 -54.904  1.00  0.00     0.039 A 
HETATM   21  C   UNL     1     -41.130  54.743 -55.241  1.00  0.00     0.032 A 
BRANCH  19  22
HETATM   22  O   UNL     1     -39.720  52.040 -53.116  1.00  0.00    -0.356 OA
HETATM   23  C   UNL     1     -39.771  50.866 -53.915  1.00  0.00     0.210 C 
ENDBRANCH  19  22
ENDBRANCH  13  16
ENDBRANCH  10  12
BRANCH   9  24
HETATM   24  C   UNL     1     -44.050  58.200 -57.547  1.00  0.00    -0.006 A 
HETATM   25  C   UNL     1     -44.456  57.539 -58.719  1.00  0.00     0.042 A 
HETATM   26 CL   UNL     1     -46.075  57.001 -58.985  1.00  0.00    -0.084 Cl
HETATM   27  C   UNL     1     -43.545  57.299 -59.757  1.00  0.00     0.024 A 
HETATM   28  C   UNL     1     -42.224  57.729 -59.654  1.00  0.00     0.002 A 
HETATM   29  C   UNL     1     -41.810  58.409 -58.515  1.00  0.00     0.001 A 
HETATM   30  C   UNL     1     -42.712  58.642 -57.475  1.00  0.00     0.011 A 
ENDBRANCH   9  24
TORSDOF 4
ENDMDL
MODEL 10
REMARK VINA RESULT:      -6.3      3.473      7.161
REMARK  4 active torsions:
REMARK  status: ('A' for Active; 'I' for Inactive)
REMARK    1  A    between atoms: C_9  and  C_10 
REMARK    2  A    between atoms: C_17  and  C_18 
REMARK       I    between atoms: C_18  and  N_19 
REMARK    3  A    between atoms: N_19  and  C_20 
REMARK    4  A    between atoms: C_23  and  O_24 
ROOT
HETATM    1  C   UNL     1     -44.551  61.225 -53.638  1.00  0.00     0.070 C 
HETATM    2  C   UNL     1     -43.472  60.298 -53.136  1.00  0.00     0.037 C 
HETATM    3  N   UNL     1     -43.049  60.533 -51.830  1.00  0.00    -0.192 N 
HETATM    4  C   UNL     1     -41.941  59.978 -51.301  1.00  0.00     0.725 A 
HETATM    5  N   UNL     1     -41.277  59.008 -52.003  1.00  0.00    -0.084 N 
HETATM    6  N   UNL     1     -40.138  58.643 -51.376  1.00  0.00    -0.149 NA
HETATM    7  C   UNL     1     -40.214  59.395 -50.272  1.00  0.00     0.275 A 
HETATM    8  N   UNL     1     -41.303  60.225 -50.187  1.00  0.00    -0.054 NA
HETATM    9  C   UNL     1     -41.676  58.544 -53.337  1.00  0.00     0.204 C 
HETATM   10  C   UNL     1     -42.855  59.345 -53.882  1.00  0.00     0.062 C 
HETATM   11  H   UNL     1     -43.480  61.303 -51.325  1.00  0.00     0.184 HD
ENDROOT
BRANCH  10  12
HETATM   12  C   UNL     1     -43.105  59.130 -55.333  1.00  0.00     0.256 C 
HETATM   13  N   UNL     1     -44.234  58.392 -55.616  1.00  0.00    -0.323 N 
HETATM   14  H   UNL     1     -44.733  57.991 -54.833  1.00  0.00     0.169 HD
HETATM   15  O   UNL     1     -42.297  59.584 -56.133  1.00  0.00    -0.267 OA
BRANCH  13  16
HETATM   16  C   UNL     1     -44.812  58.191 -56.890  1.00  0.00     0.035 A 
HETATM   17  C   UNL     1     -46.028  58.744 -57.289  1.00  0.00     0.032 A 
HETATM   18  C   UNL     1     -46.559  58.459 -58.552  1.00  0.00     0.039 A 
HETATM   19  C   UNL     1     -45.886  57.620 -59.439  1.00  0.00     0.068 A 
HETATM   20  C   UNL     1     -44.670  57.063 -59.050  1.00  0.00     0.039 A 
HETATM   21  C   UNL     1     -44.136  57.350 -57.784  1.00  0.00     0.032 A 
BRANCH  19  22
HETATM   22  O   UNL     1     -46.522  57.423 -60.632  1.00  0.00    -0.356 OA
HETATM   23  C   UNL     1     -47.281  56.230 -60.770  1.00  0.00     0.210 C 
ENDBRANCH  19  22
ENDBRANCH  13  16
ENDBRANCH  10  12
BRANCH   9  24
HETATM   24  C   UNL     1     -41.876  57.028 -53.353  1.00  0.00    -0.006 A 
HETATM   25  C   UNL     1     -42.929  56.350 -52.715  1.00  0.00     0.042 A 
HETATM   26 CL   UNL     1     -44.213  57.164 -51.894  1.00  0.00    -0.084 Cl
HETATM   27  C   UNL     1     -42.996  54.950 -52.735  1.00  0.00     0.024 A 
HETATM   28  C   UNL     1     -42.029  54.204 -53.405  1.00  0.00     0.002 A 
HETATM   29  C   UNL     1     -40.994  54.856 -54.065  1.00  0.00     0.001 A 
HETATM   30  C   UNL     1     -40.919  56.251 -54.039  1.00  0.00     0.011 A 
ENDBRANCH   9  24
TORSDOF 4
ENDMDL
