MODEL 1
REMARK VINA RESULT:      -8.4      0.000      0.000
REMARK  4 active torsions:
REMARK  status: ('A' for Active; 'I' for Inactive)
REMARK    1  A    between atoms: C_4  and  C_5 
REMARK    2  A    between atoms: C_5  and  N_6 
REMARK    3  A    between atoms: C_10  and  C_11 
REMARK    4  A    between atoms: C_15  and  N_16 
ROOT
HETATM    1  N   UNL     1     -41.106  53.815 -53.463  1.00  0.00    -0.064 N 
HETATM    2  H   UNL     1     -41.432  52.947 -53.902  1.00  0.00     0.280 HD
HETATM    3  C   UNL     1     -42.348  54.587 -53.091  1.00  0.00     0.263 C 
HETATM    4  C   UNL     1     -42.968  55.317 -54.236  1.00  0.00     0.008 C 
HETATM    5  C   UNL     1     -42.410  55.439 -55.453  1.00  0.00    -0.046 C 
HETATM    6  C   UNL     1     -41.072  54.809 -55.753  1.00  0.00     0.067 C 
HETATM    7  C   UNL     1     -40.268  54.554 -54.479  1.00  0.00     0.240 C 
ENDROOT
BRANCH   5   8
HETATM    8  C   UNL     1     -42.989  56.201 -56.517  1.00  0.00    -0.002 A 
HETATM    9  C   UNL     1     -43.571  55.728 -57.737  1.00  0.00     0.003 A 
HETATM   10  C   UNL     1     -44.048  56.849 -58.422  1.00  0.00     0.045 A 
HETATM   11  C   UNL     1     -43.741  54.458 -58.332  1.00  0.00     0.017 A 
HETATM   12  C   UNL     1     -44.699  56.772 -59.661  1.00  0.00     0.066 A 
HETATM   13  N   UNL     1     -43.759  57.954 -57.654  1.00  0.00    -0.364 N 
HETATM   14  C   UNL     1     -44.863  55.496 -60.221  1.00  0.00     0.105 A 
HETATM   15  C   UNL     1     -44.389  54.350 -59.572  1.00  0.00     0.037 A 
HETATM   16  H   UNL     1     -43.996  58.906 -57.905  1.00  0.00     0.165 HD
HETATM   17  C   UNL     1     -43.127  57.573 -56.499  1.00  0.00     0.101 A 
BRANCH  14  18
HETATM   18  N   UNL     1     -45.548  55.365 -61.515  1.00  0.00    -0.116 N 
HETATM   19  O   UNL     1     -44.987  54.701 -62.398  1.00  0.00    -0.532 OA
HETATM   20  O   UNL     1     -46.644  55.930 -61.644  1.00  0.00    -0.532 OA
ENDBRANCH  14  18
ENDBRANCH   5   8
BRANCH   1  21
HETATM   21  C   UNL     1     -40.284  53.417 -52.260  1.00  0.00     0.273 C 
BRANCH  21  22
HETATM   22  C   UNL     1     -40.011  51.941 -52.179  1.00  0.00    -0.033 A 
HETATM   23  C   UNL     1     -39.896  51.175 -53.349  1.00  0.00     0.009 A 
HETATM   24  C   UNL     1     -39.642  49.805 -53.274  1.00  0.00     0.001 A 
HETATM   25  C   UNL     1     -39.506  49.187 -52.033  1.00  0.00     0.000 A 
HETATM   26  C   UNL     1     -39.623  49.935 -50.865  1.00  0.00     0.001 A 
HETATM   27  C   UNL     1     -39.873  51.307 -50.934  1.00  0.00     0.009 A 
ENDBRANCH  21  22
ENDBRANCH   1  21
TORSDOF 4
ENDMDL
MODEL 2
REMARK VINA RESULT:      -8.1      5.900      9.487
REMARK  4 active torsions:
REMARK  status: ('A' for Active; 'I' for Inactive)
REMARK    1  A    between atoms: C_4  and  C_5 
REMARK    2  A    between atoms: C_5  and  N_6 
REMARK    3  A    between atoms: C_10  and  C_11 
REMARK    4  A    between atoms: C_15  and  N_16 
ROOT
HETATM    1  N   UNL     1     -42.968  58.596 -50.997  1.00  0.00    -0.064 N 
HETATM    2  H   UNL     1     -43.028  58.748 -49.984  1.00  0.00     0.280 HD
HETATM    3  C   UNL     1     -43.852  57.411 -51.295  1.00  0.00     0.263 C 
HETATM    4  C   UNL     1     -43.217  56.095 -50.992  1.00  0.00     0.008 C 
HETATM    5  C   UNL     1     -41.927  55.934 -50.647  1.00  0.00    -0.046 C 
HETATM    6  C   UNL     1     -41.007  57.123 -50.530  1.00  0.00     0.067 C 
HETATM    7  C   UNL     1     -41.522  58.318 -51.332  1.00  0.00     0.240 C 
ENDROOT
BRANCH   5   8
HETATM    8  C   UNL     1     -41.321  54.657 -50.426  1.00  0.00    -0.002 A 
HETATM    9  C   UNL     1     -40.966  53.660 -51.390  1.00  0.00     0.003 A 
HETATM   10  C   UNL     1     -40.352  52.616 -50.691  1.00  0.00     0.045 A 
HETATM   11  C   UNL     1     -41.103  53.536 -52.791  1.00  0.00     0.017 A 
HETATM   12  C   UNL     1     -39.854  51.463 -51.314  1.00  0.00     0.066 A 
HETATM   13  N   UNL     1     -40.345  52.963 -49.359  1.00  0.00    -0.364 N 
HETATM   14  C   UNL     1     -39.996  51.375 -52.707  1.00  0.00     0.105 A 
HETATM   15  C   UNL     1     -40.615  52.393 -53.442  1.00  0.00     0.037 A 
HETATM   16  H   UNL     1     -39.955  52.392 -48.619  1.00  0.00     0.165 HD
HETATM   17  C   UNL     1     -40.920  54.195 -49.189  1.00  0.00     0.101 A 
BRANCH  14  18
HETATM   18  N   UNL     1     -39.482  50.187 -53.405  1.00  0.00    -0.116 N 
HETATM   19  O   UNL     1     -39.097  50.329 -54.574  1.00  0.00    -0.532 OA
HETATM   20  O   UNL     1     -39.467  49.117 -52.781  1.00  0.00    -0.532 OA
ENDBRANCH  14  18
ENDBRANCH   5   8
BRANCH   1  21
HETATM   21  C   UNL     1     -43.449  59.866 -51.660  1.00  0.00     0.273 C 
BRANCH  21  22
HETATM   22  C   UNL     1     -43.710  60.988 -50.694  1.00  0.00    -0.033 A 
HETATM   23  C   UNL     1     -44.643  60.829 -49.658  1.00  0.00     0.009 A 
HETATM   24  C   UNL     1     -44.885  61.871 -48.761  1.00  0.00     0.001 A 
HETATM   25  C   UNL     1     -44.205  63.079 -48.894  1.00  0.00     0.000 A 
HETATM   26  C   UNL     1     -43.280  63.250 -49.921  1.00  0.00     0.001 A 
HETATM   27  C   UNL     1     -43.032  62.210 -50.818  1.00  0.00     0.009 A 
ENDBRANCH  21  22
ENDBRANCH   1  21
TORSDOF 4
ENDMDL
MODEL 3
REMARK VINA RESULT:      -8.0      5.631      8.906
REMARK  4 active torsions:
REMARK  status: ('A' for Active; 'I' for Inactive)
REMARK    1  A    between atoms: C_4  and  C_5 
REMARK    2  A    between atoms: C_5  and  N_6 
REMARK    3  A    between atoms: C_10  and  C_11 
REMARK    4  A    between atoms: C_15  and  N_16 
ROOT
HETATM    1  N   UNL     1     -42.142  58.970 -51.725  1.00  0.00    -0.064 N 
HETATM    2  H   UNL     1     -42.951  59.082 -52.346  1.00  0.00     0.280 HD
HETATM    3  C   UNL     1     -40.923  59.060 -52.609  1.00  0.00     0.263 C 
HETATM    4  C   UNL     1     -40.619  57.798 -53.346  1.00  0.00     0.008 C 
HETATM    5  C   UNL     1     -41.245  56.626 -53.138  1.00  0.00    -0.046 C 
HETATM    6  C   UNL     1     -42.346  56.512 -52.113  1.00  0.00     0.067 C 
HETATM    7  C   UNL     1     -42.258  57.619 -51.062  1.00  0.00     0.240 C 
ENDROOT
BRANCH   5   8
HETATM    8  C   UNL     1     -40.893  55.411 -53.807  1.00  0.00    -0.002 A 
HETATM    9  C   UNL     1     -40.555  54.144 -53.233  1.00  0.00     0.003 A 
HETATM   10  C   UNL     1     -40.347  53.258 -54.295  1.00  0.00     0.045 A 
HETATM   11  C   UNL     1     -40.406  53.656 -51.915  1.00  0.00     0.017 A 
HETATM   12  C   UNL     1     -40.010  51.909 -54.114  1.00  0.00     0.066 A 
HETATM   13  N   UNL     1     -40.539  53.962 -55.461  1.00  0.00    -0.364 N 
HETATM   14  C   UNL     1     -39.880  51.452 -52.794  1.00  0.00     0.105 A 
HETATM   15  C   UNL     1     -40.069  52.310 -51.704  1.00  0.00     0.037 A 
HETATM   16  H   UNL     1     -40.458  53.568 -56.390  1.00  0.00     0.165 HD
HETATM   17  C   UNL     1     -40.877  55.260 -55.178  1.00  0.00     0.101 A 
BRANCH  14  18
HETATM   18  N   UNL     1     -39.536  50.042 -52.555  1.00  0.00    -0.116 N 
HETATM   19  O   UNL     1     -39.498  49.287 -53.536  1.00  0.00    -0.532 OA
HETATM   20  O   UNL     1     -39.309  49.696 -51.387  1.00  0.00    -0.532 OA
ENDBRANCH  14  18
ENDBRANCH   5   8
BRANCH   1  21
HETATM   21  C   UNL     1     -42.210  60.086 -50.709  1.00  0.00     0.273 C 
BRANCH  21  22
HETATM   22  C   UNL     1     -43.590  60.655 -50.530  1.00  0.00    -0.033 A 
HETATM   23  C   UNL     1     -43.927  61.342 -49.354  1.00  0.00     0.009 A 
HETATM   24  C   UNL     1     -45.208  61.871 -49.188  1.00  0.00     0.001 A 
HETATM   25  C   UNL     1     -46.164  61.713 -50.189  1.00  0.00     0.000 A 
HETATM   26  C   UNL     1     -45.843  61.028 -51.358  1.00  0.00     0.001 A 
HETATM   27  C   UNL     1     -44.562  60.501 -51.531  1.00  0.00     0.009 A 
ENDBRANCH  21  22
ENDBRANCH   1  21
TORSDOF 4
ENDMDL
MODEL 4
REMARK VINA RESULT:      -8.0      4.006      8.649
REMARK  4 active torsions:
REMARK  status: ('A' for Active; 'I' for Inactive)
REMARK    1  A    between atoms: C_4  and  C_5 
REMARK    2  A    between atoms: C_5  and  N_6 
REMARK    3  A    between atoms: C_10  and  C_11 
REMARK    4  A    between atoms: C_15  and  N_16 
ROOT
HETATM    1  N   UNL     1     -42.546  57.150 -57.033  1.00  0.00    -0.064 N 
HETATM    2  H   UNL     1     -41.677  56.886 -57.510  1.00  0.00     0.280 HD
HETATM    3  C   UNL     1     -42.132  57.979 -55.842  1.00  0.00     0.263 C 
HETATM    4  C   UNL     1     -41.659  57.170 -54.680  1.00  0.00     0.008 C 
HETATM    5  C   UNL     1     -41.741  55.830 -54.603  1.00  0.00    -0.046 C 
HETATM    6  C   UNL     1     -42.329  55.027 -55.737  1.00  0.00     0.067 C 
HETATM    7  C   UNL     1     -43.245  55.878 -56.617  1.00  0.00     0.240 C 
ENDROOT
BRANCH   5   8
HETATM    8  C   UNL     1     -41.344  55.077 -53.453  1.00  0.00    -0.002 A 
HETATM    9  C   UNL     1     -40.892  53.720 -53.387  1.00  0.00     0.003 A 
HETATM   10  C   UNL     1     -40.569  53.461 -52.052  1.00  0.00     0.045 A 
HETATM   11  C   UNL     1     -40.723  52.681 -54.330  1.00  0.00     0.017 A 
HETATM   12  C   UNL     1     -40.074  52.228 -51.607  1.00  0.00     0.066 A 
HETATM   13  N   UNL     1     -40.825  54.610 -51.338  1.00  0.00    -0.364 N 
HETATM   14  C   UNL     1     -39.907  51.220 -52.569  1.00  0.00     0.105 A 
HETATM   15  C   UNL     1     -40.229  51.435 -53.914  1.00  0.00     0.037 A 
HETATM   16  H   UNL     1     -40.676  54.711 -50.341  1.00  0.00     0.165 HD
HETATM   17  C   UNL     1     -41.285  55.593 -52.174  1.00  0.00     0.101 A 
BRANCH  14  18
HETATM   18  N   UNL     1     -39.382  49.911 -52.150  1.00  0.00    -0.116 N 
HETATM   19  O   UNL     1     -39.306  49.021 -53.008  1.00  0.00    -0.532 OA
HETATM   20  O   UNL     1     -39.050  49.779 -50.964  1.00  0.00    -0.532 OA
ENDBRANCH  14  18
ENDBRANCH   5   8
BRANCH   1  21
HETATM   21  C   UNL     1     -43.374  57.930 -58.027  1.00  0.00     0.273 C 
BRANCH  21  22
HETATM   22  C   UNL     1     -44.209  57.063 -58.928  1.00  0.00    -0.033 A 
HETATM   23  C   UNL     1     -45.594  57.267 -59.023  1.00  0.00     0.009 A 
HETATM   24  C   UNL     1     -46.369  56.463 -59.860  1.00  0.00     0.001 A 
HETATM   25  C   UNL     1     -45.772  55.447 -60.601  1.00  0.00     0.000 A 
HETATM   26  C   UNL     1     -44.399  55.231 -60.511  1.00  0.00     0.001 A 
HETATM   27  C   UNL     1     -43.619  56.035 -59.679  1.00  0.00     0.009 A 
ENDBRANCH  21  22
ENDBRANCH   1  21
TORSDOF 4
ENDMDL
MODEL 5
REMARK VINA RESULT:      -7.9      4.817      6.246
REMARK  4 active torsions:
REMARK  status: ('A' for Active; 'I' for Inactive)
REMARK    1  A    between atoms: C_4  and  C_5 
REMARK    2  A    between atoms: C_5  and  N_6 
REMARK    3  A    between atoms: C_10  and  C_11 
REMARK    4  A    between atoms: C_15  and  N_16 
ROOT
HETATM    1  N   UNL     1     -41.264  54.152 -54.222  1.00  0.00    -0.064 N 
HETATM    2  H   UNL     1     -41.446  53.949 -53.233  1.00  0.00     0.280 HD
HETATM    3  C   UNL     1     -40.683  55.544 -54.264  1.00  0.00     0.263 C 
HETATM    4  C   UNL     1     -41.704  56.626 -54.158  1.00  0.00     0.008 C 
HETATM    5  C   UNL     1     -43.033  56.425 -54.194  1.00  0.00    -0.046 C 
HETATM    6  C   UNL     1     -43.597  55.033 -54.337  1.00  0.00     0.067 C 
HETATM    7  C   UNL     1     -42.582  54.071 -54.955  1.00  0.00     0.240 C 
ENDROOT
BRANCH   5   8
HETATM    8  C   UNL     1     -43.996  57.483 -54.160  1.00  0.00    -0.002 A 
HETATM    9  C   UNL     1     -44.323  58.355 -53.072  1.00  0.00     0.003 A 
HETATM   10  C   UNL     1     -45.280  59.257 -53.546  1.00  0.00     0.045 A 
HETATM   11  C   UNL     1     -43.903  58.470 -51.727  1.00  0.00     0.017 A 
HETATM   12  C   UNL     1     -45.831  60.277 -52.757  1.00  0.00     0.066 A 
HETATM   13  N   UNL     1     -45.529  58.938 -54.861  1.00  0.00    -0.364 N 
HETATM   14  C   UNL     1     -45.385  60.372 -51.430  1.00  0.00     0.105 A 
HETATM   15  C   UNL     1     -44.436  59.481 -50.914  1.00  0.00     0.037 A 
HETATM   16  H   UNL     1     -46.180  59.432 -55.459  1.00  0.00     0.165 HD
HETATM   17  C   UNL     1     -44.754  57.875 -55.244  1.00  0.00     0.101 A 
BRANCH  14  18
HETATM   18  N   UNL     1     -45.928  61.432 -50.567  1.00  0.00    -0.116 N 
HETATM   19  O   UNL     1     -46.046  62.565 -51.054  1.00  0.00    -0.532 OA
HETATM   20  O   UNL     1     -46.232  61.127 -49.405  1.00  0.00    -0.532 OA
ENDBRANCH  14  18
ENDBRANCH   5   8
BRANCH   1  21
HETATM   21  C   UNL     1     -40.298  53.100 -54.715  1.00  0.00     0.273 C 
BRANCH  21  22
HETATM   22  C   UNL     1     -40.043  52.003 -53.720  1.00  0.00    -0.033 A 
HETATM   23  C   UNL     1     -39.921  50.672 -54.148  1.00  0.00     0.009 A 
HETATM   24  C   UNL     1     -39.683  49.653 -53.225  1.00  0.00     0.001 A 
HETATM   25  C   UNL     1     -39.570  49.952 -51.869  1.00  0.00     0.000 A 
HETATM   26  C   UNL     1     -39.694  51.268 -51.431  1.00  0.00     0.001 A 
HETATM   27  C   UNL     1     -39.928  52.291 -52.351  1.00  0.00     0.009 A 
ENDBRANCH  21  22
ENDBRANCH   1  21
TORSDOF 4
ENDMDL
MODEL 6
REMARK VINA RESULT:      -7.9      5.604      7.301
REMARK  4 active torsions:
REMARK  status: ('A' for Active; 'I' for Inactive)
REMARK    1  A    between atoms: C_4  and  C_5 
REMARK    2  A    between atoms: C_5  and  N_6 
REMARK    3  A    between atoms: C_10  and  C_11 
REMARK    4  A    between atoms: C_15  and  N_16 
ROOT
HETATM    1  N   UNL     1     -40.866  54.639 -53.438  1.00  0.00    -0.064 N 
HETATM    2  H   UNL     1     -40.015  54.506 -52.881  1.00  0.00     0.280 HD
HETATM    3  C   UNL     1     -40.640  55.888 -54.254  1.00  0.00     0.263 C 
HETATM    4  C   UNL     1     -40.860  57.152 -53.492  1.00  0.00     0.008 C 
HETATM    5  C   UNL     1     -41.373  57.213 -52.251  1.00  0.00    -0.046 C 
HETATM    6  C   UNL     1     -41.765  55.955 -51.517  1.00  0.00     0.067 C 
HETATM    7  C   UNL     1     -42.021  54.795 -52.479  1.00  0.00     0.240 C 
ENDROOT
BRANCH   5   8
HETATM    8  C   UNL     1     -41.639  58.440 -51.563  1.00  0.00    -0.002 A 
HETATM    9  C   UNL     1     -42.906  59.030 -51.250  1.00  0.00     0.003 A 
HETATM   10  C   UNL     1     -42.645  60.194 -50.522  1.00  0.00     0.045 A 
HETATM   11  C   UNL     1     -44.253  58.691 -51.511  1.00  0.00     0.017 A 
HETATM   12  C   UNL     1     -43.653  61.033 -50.028  1.00  0.00     0.066 A 
HETATM   13  N   UNL     1     -41.278  60.310 -50.409  1.00  0.00    -0.364 N 
HETATM   14  C   UNL     1     -44.981  60.664 -50.294  1.00  0.00     0.105 A 
HETATM   15  C   UNL     1     -45.284  59.512 -51.029  1.00  0.00     0.037 A 
HETATM   16  H   UNL     1     -40.803  61.062 -49.924  1.00  0.00     0.165 HD
HETATM   17  C   UNL     1     -40.662  59.253 -51.027  1.00  0.00     0.101 A 
BRANCH  14  18
HETATM   18  N   UNL     1     -46.073  61.510 -49.788  1.00  0.00    -0.116 N 
HETATM   19  O   UNL     1     -46.375  61.402 -48.592  1.00  0.00    -0.532 OA
HETATM   20  O   UNL     1     -46.625  62.276 -50.590  1.00  0.00    -0.532 OA
ENDBRANCH  14  18
ENDBRANCH   5   8
BRANCH   1  21
HETATM   21  C   UNL     1     -41.027  53.404 -54.293  1.00  0.00     0.273 C 
BRANCH  21  22
HETATM   22  C   UNL     1     -40.468  52.159 -53.665  1.00  0.00    -0.033 A 
HETATM   23  C   UNL     1     -39.997  52.181 -52.344  1.00  0.00     0.009 A 
HETATM   24  C   UNL     1     -39.478  51.025 -51.760  1.00  0.00     0.001 A 
HETATM   25  C   UNL     1     -39.419  49.840 -52.489  1.00  0.00     0.000 A 
HETATM   26  C   UNL     1     -39.879  49.806 -53.803  1.00  0.00     0.001 A 
HETATM   27  C   UNL     1     -40.402  50.959 -54.391  1.00  0.00     0.009 A 
ENDBRANCH  21  22
ENDBRANCH   1  21
TORSDOF 4
ENDMDL
MODEL 7
REMARK VINA RESULT:      -7.8      5.852      7.437
REMARK  4 active torsions:
REMARK  status: ('A' for Active; 'I' for Inactive)
REMARK    1  A    between atoms: C_4  and  C_5 
REMARK    2  A    between atoms: C_5  and  N_6 
REMARK    3  A    between atoms: C_10  and  C_11 
REMARK    4  A    between atoms: C_15  and  N_16 
ROOT
HETATM    1  N   UNL     1     -41.021  54.524 -53.352  1.00  0.00    -0.064 N 
HETATM    2  H   UNL     1     -40.479  54.468 -52.483  1.00  0.00     0.280 HD
HETATM    3  C   UNL     1     -40.839  55.930 -53.869  1.00  0.00     0.263 C 
HETATM    4  C   UNL     1     -41.702  56.938 -53.186  1.00  0.00     0.008 C 
HETATM    5  C   UNL     1     -42.679  56.637 -52.312  1.00  0.00    -0.046 C 
HETATM    6  C   UNL     1     -42.968  55.203 -51.944  1.00  0.00     0.067 C 
HETATM    7  C   UNL     1     -42.463  54.232 -53.011  1.00  0.00     0.240 C 
ENDROOT
BRANCH   5   8
HETATM    8  C   UNL     1     -43.540  57.614 -51.719  1.00  0.00    -0.002 A 
HETATM    9  C   UNL     1     -43.222  58.947 -51.304  1.00  0.00     0.003 A 
HETATM   10  C   UNL     1     -44.408  59.524 -50.841  1.00  0.00     0.045 A 
HETATM   11  C   UNL     1     -42.043  59.726 -51.275  1.00  0.00     0.017 A 
HETATM   12  C   UNL     1     -44.486  60.840 -50.363  1.00  0.00     0.066 A 
HETATM   13  N   UNL     1     -45.399  58.577 -50.960  1.00  0.00    -0.364 N 
HETATM   14  C   UNL     1     -43.301  61.591 -50.357  1.00  0.00     0.105 A 
HETATM   15  C   UNL     1     -42.091  61.046 -50.802  1.00  0.00     0.037 A 
HETATM   16  H   UNL     1     -46.367  58.723 -50.703  1.00  0.00     0.165 HD
HETATM   17  C   UNL     1     -44.888  57.424 -51.496  1.00  0.00     0.101 A 
BRANCH  14  18
HETATM   18  N   UNL     1     -43.337  62.979 -49.873  1.00  0.00    -0.116 N 
HETATM   19  O   UNL     1     -44.373  63.367 -49.316  1.00  0.00    -0.532 OA
HETATM   20  O   UNL     1     -42.328  63.676 -50.054  1.00  0.00    -0.532 OA
ENDBRANCH  14  18
ENDBRANCH   5   8
BRANCH   1  21
HETATM   21  C   UNL     1     -40.457  53.480 -54.288  1.00  0.00     0.273 C 
BRANCH  21  22
HETATM   22  C   UNL     1     -40.139  52.175 -53.614  1.00  0.00    -0.033 A 
HETATM   23  C   UNL     1     -40.204  50.972 -54.333  1.00  0.00     0.009 A 
HETATM   24  C   UNL     1     -39.908  49.760 -53.707  1.00  0.00     0.001 A 
HETATM   25  C   UNL     1     -39.552  49.737 -52.361  1.00  0.00     0.000 A 
HETATM   26  C   UNL     1     -39.489  50.924 -51.635  1.00  0.00     0.001 A 
HETATM   27  C   UNL     1     -39.781  52.139 -52.257  1.00  0.00     0.009 A 
ENDBRANCH  21  22
ENDBRANCH   1  21
TORSDOF 4
ENDMDL
MODEL 8
REMARK VINA RESULT:      -7.7      2.059      2.302
REMARK  4 active torsions:
REMARK  status: ('A' for Active; 'I' for Inactive)
REMARK    1  A    between atoms: C_4  and  C_5 
REMARK    2  A    between atoms: C_5  and  N_6 
REMARK    3  A    between atoms: C_10  and  C_11 
REMARK    4  A    between atoms: C_15  and  N_16 
ROOT
HETATM    1  N   UNL     1     -41.182  54.348 -53.193  1.00  0.00    -0.064 N 
HETATM    2  H   UNL     1     -40.896  53.950 -54.094  1.00  0.00     0.280 HD
HETATM    3  C   UNL     1     -42.654  54.049 -53.053  1.00  0.00     0.263 C 
HETATM    4  C   UNL     1     -43.533  54.980 -53.820  1.00  0.00     0.008 C 
HETATM    5  C   UNL     1     -43.103  56.089 -54.447  1.00  0.00    -0.046 C 
HETATM    6  C   UNL     1     -41.644  56.471 -54.423  1.00  0.00     0.067 C 
HETATM    7  C   UNL     1     -40.911  55.832 -53.242  1.00  0.00     0.240 C 
ENDROOT
BRANCH   5   8
HETATM    8  C   UNL     1     -43.972  57.004 -55.121  1.00  0.00    -0.002 A 
HETATM    9  C   UNL     1     -43.987  57.363 -56.507  1.00  0.00     0.003 A 
HETATM   10  C   UNL     1     -45.054  58.248 -56.689  1.00  0.00     0.045 A 
HETATM   11  C   UNL     1     -43.199  57.026 -57.631  1.00  0.00     0.017 A 
HETATM   12  C   UNL     1     -45.389  58.803 -57.931  1.00  0.00     0.066 A 
HETATM   13  N   UNL     1     -45.653  58.424 -55.462  1.00  0.00    -0.364 N 
HETATM   14  C   UNL     1     -44.594  58.440 -59.030  1.00  0.00     0.105 A 
HETATM   15  C   UNL     1     -43.510  57.567 -58.888  1.00  0.00     0.037 A 
HETATM   16  H   UNL     1     -46.460  59.013 -55.297  1.00  0.00     0.165 HD
HETATM   17  C   UNL     1     -45.014  57.673 -54.512  1.00  0.00     0.101 A 
BRANCH  14  18
HETATM   18  N   UNL     1     -44.913  58.991 -60.356  1.00  0.00    -0.116 N 
HETATM   19  O   UNL     1     -43.974  59.418 -61.042  1.00  0.00    -0.532 OA
HETATM   20  O   UNL     1     -46.102  58.997 -60.704  1.00  0.00    -0.532 OA
ENDBRANCH  14  18
ENDBRANCH   5   8
BRANCH   1  21
HETATM   21  C   UNL     1     -40.346  53.674 -52.131  1.00  0.00     0.273 C 
BRANCH  21  22
HETATM   22  C   UNL     1     -40.063  52.225 -52.416  1.00  0.00    -0.033 A 
HETATM   23  C   UNL     1     -40.051  51.752 -53.736  1.00  0.00     0.009 A 
HETATM   24  C   UNL     1     -39.787  50.407 -54.001  1.00  0.00     0.001 A 
HETATM   25  C   UNL     1     -39.540  49.524 -52.953  1.00  0.00     0.000 A 
HETATM   26  C   UNL     1     -39.554  49.981 -51.638  1.00  0.00     0.001 A 
HETATM   27  C   UNL     1     -39.813  51.326 -51.368  1.00  0.00     0.009 A 
ENDBRANCH  21  22
ENDBRANCH   1  21
TORSDOF 4
ENDMDL
MODEL 9
REMARK VINA RESULT:      -7.6      5.155      8.724
REMARK  4 active torsions:
REMARK  status: ('A' for Active; 'I' for Inactive)
REMARK    1  A    between atoms: C_4  and  C_5 
REMARK    2  A    between atoms: C_5  and  N_6 
REMARK    3  A    between atoms: C_10  and  C_11 
REMARK    4  A    between atoms: C_15  and  N_16 
ROOT
HETATM    1  N   UNL     1     -43.124  58.364 -50.931  1.00  0.00    -0.064 N 
HETATM    2  H   UNL     1     -43.118  58.510 -49.915  1.00  0.00     0.280 HD
HETATM    3  C   UNL     1     -43.998  57.158 -51.174  1.00  0.00     0.263 C 
HETATM    4  C   UNL     1     -43.313  55.857 -50.921  1.00  0.00     0.008 C 
HETATM    5  C   UNL     1     -41.999  55.725 -50.667  1.00  0.00    -0.046 C 
HETATM    6  C   UNL     1     -41.101  56.936 -50.607  1.00  0.00     0.067 C 
HETATM    7  C   UNL     1     -41.698  58.122 -51.366  1.00  0.00     0.240 C 
ENDROOT
BRANCH   5   8
HETATM    8  C   UNL     1     -41.348  54.462 -50.494  1.00  0.00    -0.002 A 
HETATM    9  C   UNL     1     -41.003  53.495 -51.491  1.00  0.00     0.003 A 
HETATM   10  C   UNL     1     -40.333  52.456 -50.838  1.00  0.00     0.045 A 
HETATM   11  C   UNL     1     -41.191  53.394 -52.889  1.00  0.00     0.017 A 
HETATM   12  C   UNL     1     -39.828  51.330 -51.502  1.00  0.00     0.066 A 
HETATM   13  N   UNL     1     -40.284  52.778 -49.500  1.00  0.00    -0.364 N 
HETATM   14  C   UNL     1     -40.021  51.265 -52.890  1.00  0.00     0.105 A 
HETATM   15  C   UNL     1     -40.696  52.278 -53.580  1.00  0.00     0.037 A 
HETATM   16  H   UNL     1     -39.850  52.204 -48.787  1.00  0.00     0.165 HD
HETATM   17  C   UNL     1     -40.887  53.989 -49.284  1.00  0.00     0.101 A 
BRANCH  14  18
HETATM   18  N   UNL     1     -39.500  50.106 -53.631  1.00  0.00    -0.116 N 
HETATM   19  O   UNL     1     -39.273  50.251 -54.839  1.00  0.00    -0.532 OA
HETATM   20  O   UNL     1     -39.323  49.054 -53.000  1.00  0.00    -0.532 OA
ENDBRANCH  14  18
ENDBRANCH   5   8
BRANCH   1  21
HETATM   21  C   UNL     1     -43.680  59.623 -51.552  1.00  0.00     0.273 C 
BRANCH  21  22
HETATM   22  C   UNL     1     -43.557  59.661 -53.050  1.00  0.00    -0.033 A 
HETATM   23  C   UNL     1     -42.522  60.387 -53.658  1.00  0.00     0.009 A 
HETATM   24  C   UNL     1     -42.407  60.422 -55.048  1.00  0.00     0.001 A 
HETATM   25  C   UNL     1     -43.326  59.740 -55.842  1.00  0.00     0.000 A 
HETATM   26  C   UNL     1     -44.361  59.020 -55.250  1.00  0.00     0.001 A 
HETATM   27  C   UNL     1     -44.477  58.979 -53.860  1.00  0.00     0.009 A 
ENDBRANCH  21  22
ENDBRANCH   1  21
TORSDOF 4
ENDMDL
MODEL 10
REMARK VINA RESULT:      -7.4      4.726      5.659
REMARK  4 active torsions:
REMARK  status: ('A' for Active; 'I' for Inactive)
REMARK    1  A    between atoms: C_4  and  C_5 
REMARK    2  A    between atoms: C_5  and  N_6 
REMARK    3  A    between atoms: C_10  and  C_11 
REMARK    4  A    between atoms: C_15  and  N_16 
ROOT
HETATM    1  N   UNL     1     -40.939  54.296 -53.474  1.00  0.00    -0.064 N 
HETATM    2  H   UNL     1     -40.510  54.234 -52.544  1.00  0.00     0.280 HD
HETATM    3  C   UNL     1     -40.705  55.709 -53.948  1.00  0.00     0.263 C 
HETATM    4  C   UNL     1     -41.656  56.703 -53.368  1.00  0.00     0.008 C 
HETATM    5  C   UNL     1     -42.732  56.385 -52.628  1.00  0.00    -0.046 C 
HETATM    6  C   UNL     1     -43.053  54.944 -52.315  1.00  0.00     0.067 C 
HETATM    7  C   UNL     1     -42.409  53.990 -53.321  1.00  0.00     0.240 C 
ENDROOT
BRANCH   5   8
HETATM    8  C   UNL     1     -43.669  57.349 -52.137  1.00  0.00    -0.002 A 
HETATM    9  C   UNL     1     -44.270  58.443 -52.838  1.00  0.00     0.003 A 
HETATM   10  C   UNL     1     -45.157  59.059 -51.950  1.00  0.00     0.045 A 
HETATM   11  C   UNL     1     -44.152  58.976 -54.142  1.00  0.00     0.017 A 
HETATM   12  C   UNL     1     -45.943  60.167 -52.294  1.00  0.00     0.066 A 
HETATM   13  N   UNL     1     -45.088  58.372 -50.759  1.00  0.00    -0.364 N 
HETATM   14  C   UNL     1     -45.811  60.666 -53.599  1.00  0.00     0.105 A 
HETATM   15  C   UNL     1     -44.925  60.086 -54.515  1.00  0.00     0.037 A 
HETATM   16  H   UNL     1     -45.630  58.597 -49.934  1.00  0.00     0.165 HD
HETATM   17  C   UNL     1     -44.199  57.334 -50.864  1.00  0.00     0.101 A 
BRANCH  14  18
HETATM   18  N   UNL     1     -46.621  61.823 -54.008  1.00  0.00    -0.116 N 
HETATM   19  O   UNL     1     -47.386  62.315 -53.167  1.00  0.00    -0.532 OA
HETATM   20  O   UNL     1     -46.492  62.233 -55.170  1.00  0.00    -0.532 OA
ENDBRANCH  14  18
ENDBRANCH   5   8
BRANCH   1  21
HETATM   21  C   UNL     1     -40.253  53.268 -54.343  1.00  0.00     0.273 C 
BRANCH  21  22
HETATM   22  C   UNL     1     -39.982  51.968 -53.639  1.00  0.00    -0.033 A 
HETATM   23  C   UNL     1     -39.980  50.761 -54.355  1.00  0.00     0.009 A 
HETATM   24  C   UNL     1     -39.728  49.554 -53.701  1.00  0.00     0.001 A 
HETATM   25  C   UNL     1     -39.482  49.540 -52.330  1.00  0.00     0.000 A 
HETATM   26  C   UNL     1     -39.487  50.730 -51.608  1.00  0.00     0.001 A 
HETATM   27  C   UNL     1     -39.735  51.941 -52.258  1.00  0.00     0.009 A 
ENDBRANCH  21  22
ENDBRANCH   1  21
TORSDOF 4
ENDMDL
