MODEL 1
REMARK VINA RESULT:      -8.9      0.000      0.000
REMARK  7 active torsions:
REMARK  status: ('A' for Active; 'I' for Inactive)
REMARK    1  A    between atoms: C_5  and  N_6 
REMARK    2  A    between atoms: N_6  and  C_7 
REMARK    3  A    between atoms: C_7  and  N_8 
REMARK    4  A    between atoms: N_8  and  C_9 
REMARK    5  A    between atoms: C_9  and  C_10 
REMARK    6  A    between atoms: C_10  and  C_11 
REMARK    7  A    between atoms: C_14  and  C_15 
ROOT
HETATM    1  C   UNL     1     -43.197  57.852 -55.500  1.00  0.00     0.102 C 
HETATM    2  C   UNL     1     -43.879  57.958 -56.676  1.00  0.00     0.139 C 
HETATM    3  C   UNL     1     -43.261  57.544 -57.959  1.00  0.00     0.270 C 
HETATM    4  O   UNL     1     -42.075  57.724 -58.224  1.00  0.00    -0.267 OA
HETATM    5  N   UNL     1     -44.157  57.009 -58.866  1.00  0.00    -0.270 N 
HETATM    6  C   UNL     1     -43.602  56.337 -60.026  1.00  0.00     0.164 C 
HETATM    7  C   UNL     1     -45.494  57.364 -58.918  1.00  0.00     0.333 C 
HETATM    8  O   UNL     1     -46.227  56.987 -59.835  1.00  0.00    -0.246 OA
HETATM    9  N   UNL     1     -45.959  58.182 -57.898  1.00  0.00    -0.270 N 
HETATM   10  C   UNL     1     -47.346  58.613 -57.961  1.00  0.00     0.164 C 
HETATM   11  C   UNL     1     -45.283  58.429 -56.714  1.00  0.00     0.270 C 
HETATM   12  O   UNL     1     -45.825  58.951 -55.737  1.00  0.00    -0.267 OA
ENDROOT
BRANCH   1  13
HETATM   13  N   UNL     1     -41.940  57.262 -55.453  1.00  0.00    -0.245 NA
HETATM   14  H   UNL     1     -41.312  57.846 -54.907  1.00  0.00     0.135 HD
BRANCH  13  15
HETATM   15  C   UNL     1     -41.717  55.899 -55.116  1.00  0.00     0.014 A 
HETATM   16  C   UNL     1     -42.621  54.873 -55.415  1.00  0.00     0.024 A 
HETATM   17  C   UNL     1     -42.335  53.544 -55.085  1.00  0.00     0.008 A 
HETATM   18  C   UNL     1     -41.122  53.208 -54.477  1.00  0.00    -0.062 A 
HETATM   19  C   UNL     1     -40.837  51.789 -54.082  1.00  0.00     0.048 C 
HETATM   20  C   UNL     1     -40.204  54.224 -54.196  1.00  0.00     0.008 A 
HETATM   21  C   UNL     1     -40.494  55.551 -54.528  1.00  0.00     0.024 A 
ENDBRANCH  13  15
ENDBRANCH   1  13
BRANCH   1  22
HETATM   22  N   UNL     1     -43.690  58.362 -54.296  1.00  0.00    -0.379 N 
HETATM   23  H   UNL     1     -44.234  57.657 -53.779  1.00  0.00     0.160 HD
BRANCH  22  24
HETATM   24  C   UNL     1     -42.920  59.223 -53.397  1.00  0.00     0.125 C 
BRANCH  24  25
HETATM   25  C   UNL     1     -43.213  58.868 -51.936  1.00  0.00     0.061 C 
BRANCH  25  26
HETATM   26  C   UNL     1     -42.276  57.819 -51.416  1.00  0.00    -0.022 A 
HETATM   27  C   UNL     1     -42.501  56.403 -51.430  1.00  0.00    -0.000 A 
HETATM   28  C   UNL     1     -41.401  55.794 -50.832  1.00  0.00     0.058 A 
HETATM   29  C   UNL     1     -43.555  55.590 -51.893  1.00  0.00     0.014 A 
HETATM   30  C   UNL     1     -41.287  54.397 -50.661  1.00  0.00     0.075 A 
HETATM   31  N   UNL     1     -40.530  56.803 -50.481  1.00  0.00    -0.358 N 
HETATM   32  C   UNL     1     -42.365  53.622 -51.136  1.00  0.00     0.018 A 
HETATM   33  C   UNL     1     -43.478  54.203 -51.740  1.00  0.00     0.002 A 
HETATM   34  H   UNL     1     -39.637  56.653 -50.028  1.00  0.00     0.166 HD
HETATM   35  C   UNL     1     -41.045  58.029 -50.817  1.00  0.00     0.013 A 
HETATM   36  C   UNL     1     -40.305  59.287 -50.534  1.00  0.00     0.068 C 
BRANCH  30  37
HETATM   37  C   UNL     1     -40.107  53.718 -50.015  1.00  0.00     0.419 C 
HETATM   38  F   UNL     1     -39.652  54.368 -48.904  1.00  0.00    -0.166 F 
HETATM   39  F   UNL     1     -40.388  52.448 -49.610  1.00  0.00    -0.166 F 
HETATM   40  F   UNL     1     -39.036  53.616 -50.850  1.00  0.00    -0.166 F 
ENDBRANCH  30  37
ENDBRANCH  25  26
ENDBRANCH  24  25
ENDBRANCH  22  24
ENDBRANCH   1  22
TORSDOF 7
ENDMDL
MODEL 2
REMARK VINA RESULT:      -8.5      2.389      4.769
REMARK  7 active torsions:
REMARK  status: ('A' for Active; 'I' for Inactive)
REMARK    1  A    between atoms: C_5  and  N_6 
REMARK    2  A    between atoms: N_6  and  C_7 
REMARK    3  A    between atoms: C_7  and  N_8 
REMARK    4  A    between atoms: N_8  and  C_9 
REMARK    5  A    between atoms: C_9  and  C_10 
REMARK    6  A    between atoms: C_10  and  C_11 
REMARK    7  A    between atoms: C_14  and  C_15 
ROOT
HETATM    1  C   UNL     1     -43.197  57.505 -53.200  1.00  0.00     0.102 C 
HETATM    2  C   UNL     1     -43.229  57.643 -54.557  1.00  0.00     0.139 C 
HETATM    3  C   UNL     1     -43.127  58.980 -55.191  1.00  0.00     0.270 C 
HETATM    4  O   UNL     1     -43.647  59.989 -54.723  1.00  0.00    -0.267 OA
HETATM    5  N   UNL     1     -42.462  58.975 -56.404  1.00  0.00    -0.270 N 
HETATM    6  C   UNL     1     -42.083  60.262 -56.955  1.00  0.00     0.164 C 
HETATM    7  C   UNL     1     -42.445  57.888 -57.261  1.00  0.00     0.333 C 
HETATM    8  O   UNL     1     -41.976  57.969 -58.399  1.00  0.00    -0.246 OA
HETATM    9  N   UNL     1     -43.002  56.711 -56.782  1.00  0.00    -0.270 N 
HETATM   10  C   UNL     1     -43.045  55.571 -57.682  1.00  0.00     0.164 C 
HETATM   11  C   UNL     1     -43.304  56.465 -55.451  1.00  0.00     0.270 C 
HETATM   12  O   UNL     1     -43.561  55.336 -55.027  1.00  0.00    -0.267 OA
ENDROOT
BRANCH   1  13
HETATM   13  N   UNL     1     -42.968  58.598 -52.376  1.00  0.00    -0.245 NA
HETATM   14  H   UNL     1     -43.682  58.633 -51.652  1.00  0.00     0.135 HD
BRANCH  13  15
HETATM   15  C   UNL     1     -41.706  58.902 -51.796  1.00  0.00     0.014 A 
HETATM   16  C   UNL     1     -40.502  58.875 -52.510  1.00  0.00     0.024 A 
HETATM   17  C   UNL     1     -39.292  59.212 -51.894  1.00  0.00     0.008 A 
HETATM   18  C   UNL     1     -39.265  59.617 -50.555  1.00  0.00    -0.062 A 
HETATM   19  C   UNL     1     -37.962  59.934 -49.884  1.00  0.00     0.048 C 
HETATM   20  C   UNL     1     -40.465  59.669 -49.842  1.00  0.00     0.008 A 
HETATM   21  C   UNL     1     -41.672  59.331 -50.462  1.00  0.00     0.024 A 
ENDBRANCH  13  15
ENDBRANCH   1  13
BRANCH   1  22
HETATM   22  N   UNL     1     -43.432  56.284 -52.564  1.00  0.00    -0.379 N 
HETATM   23  H   UNL     1     -43.457  55.503 -53.235  1.00  0.00     0.160 HD
BRANCH  22  24
HETATM   24  C   UNL     1     -42.815  55.891 -51.296  1.00  0.00     0.125 C 
BRANCH  24  25
HETATM   25  C   UNL     1     -41.301  55.729 -51.465  1.00  0.00     0.061 C 
BRANCH  25  26
HETATM   26  C   UNL     1     -40.862  54.312 -51.240  1.00  0.00    -0.022 A 
HETATM   27  C   UNL     1     -40.558  53.351 -52.258  1.00  0.00    -0.000 A 
HETATM   28  C   UNL     1     -40.217  52.157 -51.625  1.00  0.00     0.058 A 
HETATM   29  C   UNL     1     -40.555  53.393 -53.667  1.00  0.00     0.014 A 
HETATM   30  C   UNL     1     -39.870  50.981 -52.324  1.00  0.00     0.075 A 
HETATM   31  N   UNL     1     -40.296  52.391 -50.268  1.00  0.00    -0.358 N 
HETATM   32  C   UNL     1     -39.883  51.068 -53.732  1.00  0.00     0.018 A 
HETATM   33  C   UNL     1     -40.218  52.247 -54.393  1.00  0.00     0.002 A 
HETATM   34  H   UNL     1     -40.096  51.698 -49.559  1.00  0.00     0.166 HD
HETATM   35  C   UNL     1     -40.692  53.681 -50.019  1.00  0.00     0.013 A 
HETATM   36  C   UNL     1     -40.865  54.185 -48.632  1.00  0.00     0.068 C 
BRANCH  30  37
HETATM   37  C   UNL     1     -39.501  49.680 -51.660  1.00  0.00     0.419 C 
HETATM   38  F   UNL     1     -40.517  49.144 -50.922  1.00  0.00    -0.166 F 
HETATM   39  F   UNL     1     -39.145  48.716 -52.553  1.00  0.00    -0.166 F 
HETATM   40  F   UNL     1     -38.449  49.806 -50.804  1.00  0.00    -0.166 F 
ENDBRANCH  30  37
ENDBRANCH  25  26
ENDBRANCH  24  25
ENDBRANCH  22  24
ENDBRANCH   1  22
TORSDOF 7
ENDMDL
MODEL 3
REMARK VINA RESULT:      -8.2      1.441      1.863
REMARK  7 active torsions:
REMARK  status: ('A' for Active; 'I' for Inactive)
REMARK    1  A    between atoms: C_5  and  N_6 
REMARK    2  A    between atoms: N_6  and  C_7 
REMARK    3  A    between atoms: C_7  and  N_8 
REMARK    4  A    between atoms: N_8  and  C_9 
REMARK    5  A    between atoms: C_9  and  C_10 
REMARK    6  A    between atoms: C_10  and  C_11 
REMARK    7  A    between atoms: C_14  and  C_15 
ROOT
HETATM    1  C   UNL     1     -43.298  57.596 -55.514  1.00  0.00     0.102 C 
HETATM    2  C   UNL     1     -43.185  58.159 -56.751  1.00  0.00     0.139 C 
HETATM    3  C   UNL     1     -43.254  57.328 -57.977  1.00  0.00     0.270 C 
HETATM    4  O   UNL     1     -42.766  56.203 -58.057  1.00  0.00    -0.267 OA
HETATM    5  N   UNL     1     -43.844  57.964 -59.053  1.00  0.00    -0.270 N 
HETATM    6  C   UNL     1     -44.195  57.143 -60.197  1.00  0.00     0.164 C 
HETATM    7  C   UNL     1     -43.807  59.335 -59.244  1.00  0.00     0.333 C 
HETATM    8  O   UNL     1     -44.207  59.853 -60.289  1.00  0.00    -0.246 OA
HETATM    9  N   UNL     1     -43.276  60.092 -58.209  1.00  0.00    -0.270 N 
HETATM   10  C   UNL     1     -43.174  61.528 -58.408  1.00  0.00     0.164 C 
HETATM   11  C   UNL     1     -43.052  59.624 -56.923  1.00  0.00     0.270 C 
HETATM   12  O   UNL     1     -42.818  60.376 -55.975  1.00  0.00    -0.267 OA
ENDROOT
BRANCH   1  13
HETATM   13  N   UNL     1     -43.580  56.245 -55.366  1.00  0.00    -0.245 NA
HETATM   14  H   UNL     1     -44.055  55.904 -56.198  1.00  0.00     0.135 HD
BRANCH  13  15
HETATM   15  C   UNL     1     -42.624  55.278 -54.949  1.00  0.00     0.014 A 
HETATM   16  C   UNL     1     -41.329  55.604 -54.528  1.00  0.00     0.024 A 
HETATM   17  C   UNL     1     -40.441  54.613 -54.100  1.00  0.00     0.008 A 
HETATM   18  C   UNL     1     -40.840  53.273 -54.053  1.00  0.00    -0.062 A 
HETATM   19  C   UNL     1     -39.871  52.206 -53.639  1.00  0.00     0.048 C 
HETATM   20  C   UNL     1     -42.138  52.942 -54.450  1.00  0.00     0.008 A 
HETATM   21  C   UNL     1     -43.023  53.937 -54.876  1.00  0.00     0.024 A 
ENDBRANCH  13  15
ENDBRANCH   1  13
BRANCH   1  22
HETATM   22  N   UNL     1     -43.097  58.322 -54.337  1.00  0.00    -0.379 N 
HETATM   23  H   UNL     1     -42.591  59.202 -54.514  1.00  0.00     0.160 HD
BRANCH  22  24
HETATM   24  C   UNL     1     -44.108  58.478 -53.290  1.00  0.00     0.125 C 
BRANCH  24  25
HETATM   25  C   UNL     1     -43.450  58.883 -51.967  1.00  0.00     0.061 C 
BRANCH  25  26
HETATM   26  C   UNL     1     -42.457  57.860 -51.499  1.00  0.00    -0.022 A 
HETATM   27  C   UNL     1     -42.713  56.463 -51.304  1.00  0.00    -0.000 A 
HETATM   28  C   UNL     1     -41.536  55.879 -50.841  1.00  0.00     0.058 A 
HETATM   29  C   UNL     1     -43.850  55.648 -51.475  1.00  0.00     0.014 A 
HETATM   30  C   UNL     1     -41.424  54.507 -50.528  1.00  0.00     0.075 A 
HETATM   31  N   UNL     1     -40.595  56.884 -50.771  1.00  0.00    -0.358 N 
HETATM   32  C   UNL     1     -42.587  53.730 -50.710  1.00  0.00     0.018 A 
HETATM   33  C   UNL     1     -43.777  54.286 -51.174  1.00  0.00     0.002 A 
HETATM   34  H   UNL     1     -39.638  56.747 -50.468  1.00  0.00     0.166 HD
HETATM   35  C   UNL     1     -41.135  58.085 -51.154  1.00  0.00     0.013 A 
HETATM   36  C   UNL     1     -40.329  59.333 -51.158  1.00  0.00     0.068 C 
BRANCH  30  37
HETATM   37  C   UNL     1     -40.163  53.855 -50.023  1.00  0.00     0.419 C 
HETATM   38  F   UNL     1     -40.318  52.529 -49.737  1.00  0.00    -0.166 F 
HETATM   39  F   UNL     1     -39.140  53.921 -50.921  1.00  0.00    -0.166 F 
HETATM   40  F   UNL     1     -39.695  54.428 -48.880  1.00  0.00    -0.166 F 
ENDBRANCH  30  37
ENDBRANCH  25  26
ENDBRANCH  24  25
ENDBRANCH  22  24
ENDBRANCH   1  22
TORSDOF 7
ENDMDL
MODEL 4
REMARK VINA RESULT:      -8.1      1.849      4.273
REMARK  7 active torsions:
REMARK  status: ('A' for Active; 'I' for Inactive)
REMARK    1  A    between atoms: C_5  and  N_6 
REMARK    2  A    between atoms: N_6  and  C_7 
REMARK    3  A    between atoms: C_7  and  N_8 
REMARK    4  A    between atoms: N_8  and  C_9 
REMARK    5  A    between atoms: C_9  and  C_10 
REMARK    6  A    between atoms: C_10  and  C_11 
REMARK    7  A    between atoms: C_14  and  C_15 
ROOT
HETATM    1  C   UNL     1     -43.512  57.474 -55.874  1.00  0.00     0.102 C 
HETATM    2  C   UNL     1     -43.315  58.288 -56.951  1.00  0.00     0.139 C 
HETATM    3  C   UNL     1     -43.495  59.756 -56.844  1.00  0.00     0.270 C 
HETATM    4  O   UNL     1     -44.376  60.278 -56.165  1.00  0.00    -0.267 OA
HETATM    5  N   UNL     1     -42.634  60.486 -57.641  1.00  0.00    -0.270 N 
HETATM    6  C   UNL     1     -42.557  61.914 -57.397  1.00  0.00     0.164 C 
HETATM    7  C   UNL     1     -42.122  60.019 -58.839  1.00  0.00     0.333 C 
HETATM    8  O   UNL     1     -41.484  60.752 -59.599  1.00  0.00    -0.246 OA
HETATM    9  N   UNL     1     -42.383  58.692 -59.151  1.00  0.00    -0.270 N 
HETATM   10  C   UNL     1     -41.904  58.193 -60.429  1.00  0.00     0.164 C 
HETATM   11  C   UNL     1     -42.855  57.748 -58.251  1.00  0.00     0.270 C 
HETATM   12  O   UNL     1     -42.839  56.539 -58.490  1.00  0.00    -0.267 OA
ENDROOT
BRANCH   1  13
HETATM   13  N   UNL     1     -43.789  58.003 -54.620  1.00  0.00    -0.245 NA
HETATM   14  H   UNL     1     -44.489  57.428 -54.157  1.00  0.00     0.135 HD
BRANCH  13  15
HETATM   15  C   UNL     1     -42.791  58.367 -53.676  1.00  0.00     0.014 A 
HETATM   16  C   UNL     1     -43.072  59.016 -52.468  1.00  0.00     0.024 A 
HETATM   17  C   UNL     1     -42.051  59.324 -51.562  1.00  0.00     0.008 A 
HETATM   18  C   UNL     1     -40.728  58.958 -51.832  1.00  0.00    -0.062 A 
HETATM   19  C   UNL     1     -39.628  59.330 -50.882  1.00  0.00     0.048 C 
HETATM   20  C   UNL     1     -40.443  58.290 -53.025  1.00  0.00     0.008 A 
HETATM   21  C   UNL     1     -41.467  57.984 -53.927  1.00  0.00     0.024 A 
ENDBRANCH  13  15
ENDBRANCH   1  13
BRANCH   1  22
HETATM   22  N   UNL     1     -43.490  56.081 -55.971  1.00  0.00    -0.379 N 
HETATM   23  H   UNL     1     -44.017  55.748 -56.792  1.00  0.00     0.160 HD
BRANCH  22  24
HETATM   24  C   UNL     1     -42.304  55.262 -55.718  1.00  0.00     0.125 C 
BRANCH  24  25
HETATM   25  C   UNL     1     -42.694  53.954 -55.022  1.00  0.00     0.061 C 
BRANCH  25  26
HETATM   26  C   UNL     1     -41.964  53.771 -53.725  1.00  0.00    -0.022 A 
HETATM   27  C   UNL     1     -42.269  54.424 -52.485  1.00  0.00    -0.000 A 
HETATM   28  C   UNL     1     -41.337  53.995 -51.542  1.00  0.00     0.058 A 
HETATM   29  C   UNL     1     -43.253  55.351 -52.089  1.00  0.00     0.014 A 
HETATM   30  C   UNL     1     -41.326  54.446 -50.204  1.00  0.00     0.075 A 
HETATM   31  N   UNL     1     -40.506  53.101 -52.183  1.00  0.00    -0.358 N 
HETATM   32  C   UNL     1     -42.327  55.375 -49.853  1.00  0.00     0.018 A 
HETATM   33  C   UNL     1     -43.273  55.821 -50.774  1.00  0.00     0.002 A 
HETATM   34  H   UNL     1     -39.732  52.624 -51.737  1.00  0.00     0.166 HD
HETATM   35  C   UNL     1     -40.863  52.962 -53.500  1.00  0.00     0.013 A 
HETATM   36  C   UNL     1     -40.115  52.062 -54.416  1.00  0.00     0.068 C 
BRANCH  30  37
HETATM   37  C   UNL     1     -40.327  53.998 -49.169  1.00  0.00     0.419 C 
HETATM   38  F   UNL     1     -40.336  52.649 -48.959  1.00  0.00    -0.166 F 
HETATM   39  F   UNL     1     -39.044  54.310 -49.506  1.00  0.00    -0.166 F 
HETATM   40  F   UNL     1     -40.543  54.564 -47.949  1.00  0.00    -0.166 F 
ENDBRANCH  30  37
ENDBRANCH  25  26
ENDBRANCH  24  25
ENDBRANCH  22  24
ENDBRANCH   1  22
TORSDOF 7
ENDMDL
MODEL 5
REMARK VINA RESULT:      -8.0      2.156      4.886
REMARK  7 active torsions:
REMARK  status: ('A' for Active; 'I' for Inactive)
REMARK    1  A    between atoms: C_5  and  N_6 
REMARK    2  A    between atoms: N_6  and  C_7 
REMARK    3  A    between atoms: C_7  and  N_8 
REMARK    4  A    between atoms: N_8  and  C_9 
REMARK    5  A    between atoms: C_9  and  C_10 
REMARK    6  A    between atoms: C_10  and  C_11 
REMARK    7  A    between atoms: C_14  and  C_15 
ROOT
HETATM    1  C   UNL     1     -42.251  57.374 -56.291  1.00  0.00     0.102 C 
HETATM    2  C   UNL     1     -42.169  58.653 -55.824  1.00  0.00     0.139 C 
HETATM    3  C   UNL     1     -42.030  59.799 -56.754  1.00  0.00     0.270 C 
HETATM    4  O   UNL     1     -41.356  59.756 -57.779  1.00  0.00    -0.267 OA
HETATM    5  N   UNL     1     -42.662  60.951 -56.322  1.00  0.00    -0.270 N 
HETATM    6  C   UNL     1     -42.806  62.027 -57.285  1.00  0.00     0.164 C 
HETATM    7  C   UNL     1     -42.847  61.266 -54.987  1.00  0.00     0.333 C 
HETATM    8  O   UNL     1     -43.272  62.369 -54.636  1.00  0.00    -0.246 OA
HETATM    9  N   UNL     1     -42.508  60.285 -54.065  1.00  0.00    -0.270 N 
HETATM   10  C   UNL     1     -42.641  60.611 -52.655  1.00  0.00     0.164 C 
HETATM   11  C   UNL     1     -42.278  58.954 -54.378  1.00  0.00     0.270 C 
HETATM   12  O   UNL     1     -42.225  58.071 -53.519  1.00  0.00    -0.267 OA
ENDROOT
BRANCH   1  13
HETATM   13  N   UNL     1     -42.307  57.113 -57.654  1.00  0.00    -0.245 NA
HETATM   14  H   UNL     1     -41.653  56.370 -57.884  1.00  0.00     0.135 HD
BRANCH  13  15
HETATM   15  C   UNL     1     -43.517  56.904 -58.371  1.00  0.00     0.014 A 
HETATM   16  C   UNL     1     -44.667  57.683 -58.188  1.00  0.00     0.024 A 
HETATM   17  C   UNL     1     -45.821  57.450 -58.943  1.00  0.00     0.008 A 
HETATM   18  C   UNL     1     -45.839  56.453 -59.924  1.00  0.00    -0.062 A 
HETATM   19  C   UNL     1     -47.091  56.174 -60.701  1.00  0.00     0.048 C 
HETATM   20  C   UNL     1     -44.688  55.688 -60.129  1.00  0.00     0.008 A 
HETATM   21  C   UNL     1     -43.536  55.924 -59.372  1.00  0.00     0.024 A 
ENDBRANCH  13  15
ENDBRANCH   1  13
BRANCH   1  22
HETATM   22  N   UNL     1     -42.239  56.263 -55.445  1.00  0.00    -0.379 N 
HETATM   23  H   UNL     1     -43.034  56.274 -54.791  1.00  0.00     0.160 HD
BRANCH  22  24
HETATM   24  C   UNL     1     -41.915  54.905 -55.884  1.00  0.00     0.125 C 
BRANCH  24  25
HETATM   25  C   UNL     1     -42.625  53.873 -55.002  1.00  0.00     0.061 C 
BRANCH  25  26
HETATM   26  C   UNL     1     -41.928  53.687 -53.687  1.00  0.00    -0.022 A 
HETATM   27  C   UNL     1     -42.267  54.335 -52.453  1.00  0.00    -0.000 A 
HETATM   28  C   UNL     1     -41.359  53.906 -51.487  1.00  0.00     0.058 A 
HETATM   29  C   UNL     1     -43.265  55.258 -52.080  1.00  0.00     0.014 A 
HETATM   30  C   UNL     1     -41.384  54.352 -50.149  1.00  0.00     0.075 A 
HETATM   31  N   UNL     1     -40.508  53.017 -52.109  1.00  0.00    -0.358 N 
HETATM   32  C   UNL     1     -42.397  55.277 -49.820  1.00  0.00     0.018 A 
HETATM   33  C   UNL     1     -43.320  55.722 -50.764  1.00  0.00     0.002 A 
HETATM   34  H   UNL     1     -39.745  52.541 -51.645  1.00  0.00     0.166 HD
HETATM   35  C   UNL     1     -40.830  52.881 -53.436  1.00  0.00     0.013 A 
HETATM   36  C   UNL     1     -40.056  51.987 -54.335  1.00  0.00     0.068 C 
BRANCH  30  37
HETATM   37  C   UNL     1     -40.411  53.904 -49.089  1.00  0.00     0.419 C 
HETATM   38  F   UNL     1     -39.118  54.241 -49.367  1.00  0.00    -0.166 F 
HETATM   39  F   UNL     1     -40.678  54.444 -47.867  1.00  0.00    -0.166 F 
HETATM   40  F   UNL     1     -40.412  52.554 -48.911  1.00  0.00    -0.166 F 
ENDBRANCH  30  37
ENDBRANCH  25  26
ENDBRANCH  24  25
ENDBRANCH  22  24
ENDBRANCH   1  22
TORSDOF 7
ENDMDL
MODEL 6
REMARK VINA RESULT:      -7.6      2.845      5.368
REMARK  7 active torsions:
REMARK  status: ('A' for Active; 'I' for Inactive)
REMARK    1  A    between atoms: C_5  and  N_6 
REMARK    2  A    between atoms: N_6  and  C_7 
REMARK    3  A    between atoms: C_7  and  N_8 
REMARK    4  A    between atoms: N_8  and  C_9 
REMARK    5  A    between atoms: C_9  and  C_10 
REMARK    6  A    between atoms: C_10  and  C_11 
REMARK    7  A    between atoms: C_14  and  C_15 
ROOT
HETATM    1  C   UNL     1     -43.221  57.955 -53.667  1.00  0.00     0.102 C 
HETATM    2  C   UNL     1     -43.396  59.030 -52.846  1.00  0.00     0.139 C 
HETATM    3  C   UNL     1     -42.788  60.343 -53.166  1.00  0.00     0.270 C 
HETATM    4  O   UNL     1     -41.674  60.464 -53.670  1.00  0.00    -0.267 OA
HETATM    5  N   UNL     1     -43.551  61.426 -52.771  1.00  0.00    -0.270 N 
HETATM    6  C   UNL     1     -43.166  62.729 -53.281  1.00  0.00     0.164 C 
HETATM    7  C   UNL     1     -44.412  61.398 -51.686  1.00  0.00     0.333 C 
HETATM    8  O   UNL     1     -44.957  62.422 -51.268  1.00  0.00    -0.246 OA
HETATM    9  N   UNL     1     -44.610  60.165 -51.082  1.00  0.00    -0.270 N 
HETATM   10  C   UNL     1     -45.465  60.119 -49.908  1.00  0.00     0.164 C 
HETATM   11  C   UNL     1     -44.250  58.947 -51.639  1.00  0.00     0.270 C 
HETATM   12  O   UNL     1     -44.658  57.870 -51.197  1.00  0.00    -0.267 OA
ENDROOT
BRANCH   1  13
HETATM   13  N   UNL     1     -42.551  58.081 -54.877  1.00  0.00    -0.245 NA
HETATM   14  H   UNL     1     -41.627  57.662 -54.799  1.00  0.00     0.135 HD
BRANCH  13  15
HETATM   15  C   UNL     1     -43.114  57.729 -56.134  1.00  0.00     0.014 A 
HETATM   16  C   UNL     1     -42.668  56.648 -56.904  1.00  0.00     0.024 A 
HETATM   17  C   UNL     1     -43.281  56.330 -58.120  1.00  0.00     0.008 A 
HETATM   18  C   UNL     1     -44.377  57.068 -58.579  1.00  0.00    -0.062 A 
HETATM   19  C   UNL     1     -45.003  56.755 -59.905  1.00  0.00     0.048 C 
HETATM   20  C   UNL     1     -44.843  58.134 -57.804  1.00  0.00     0.008 A 
HETATM   21  C   UNL     1     -44.228  58.448 -56.588  1.00  0.00     0.024 A 
ENDBRANCH  13  15
ENDBRANCH   1  13
BRANCH   1  22
HETATM   22  N   UNL     1     -43.657  56.671 -53.328  1.00  0.00    -0.379 N 
HETATM   23  H   UNL     1     -44.614  56.493 -53.666  1.00  0.00     0.160 HD
BRANCH  22  24
HETATM   24  C   UNL     1     -42.819  55.475 -53.412  1.00  0.00     0.125 C 
BRANCH  24  25
HETATM   25  C   UNL     1     -41.525  55.671 -52.614  1.00  0.00     0.061 C 
BRANCH  25  26
HETATM   26  C   UNL     1     -41.086  54.404 -51.941  1.00  0.00    -0.022 A 
HETATM   27  C   UNL     1     -40.670  53.200 -52.598  1.00  0.00    -0.000 A 
HETATM   28  C   UNL     1     -40.371  52.262 -51.611  1.00  0.00     0.058 A 
HETATM   29  C   UNL     1     -40.533  52.826 -53.949  1.00  0.00     0.014 A 
HETATM   30  C   UNL     1     -39.939  50.949 -51.897  1.00  0.00     0.075 A 
HETATM   31  N   UNL     1     -40.583  52.881 -50.398  1.00  0.00    -0.358 N 
HETATM   32  C   UNL     1     -39.819  50.617 -53.262  1.00  0.00     0.018 A 
HETATM   33  C   UNL     1     -40.108  51.534 -54.270  1.00  0.00     0.002 A 
HETATM   34  H   UNL     1     -40.441  52.437 -49.500  1.00  0.00     0.166 HD
HETATM   35  C   UNL     1     -41.023  54.168 -50.578  1.00  0.00     0.013 A 
HETATM   36  C   UNL     1     -41.336  55.050 -49.424  1.00  0.00     0.068 C 
BRANCH  30  37
HETATM   37  C   UNL     1     -39.613  49.919 -50.846  1.00  0.00     0.419 C 
HETATM   38  F   UNL     1     -40.045  50.266 -49.598  1.00  0.00    -0.166 F 
HETATM   39  F   UNL     1     -40.175  48.706 -51.107  1.00  0.00    -0.166 F 
HETATM   40  F   UNL     1     -38.275  49.695 -50.726  1.00  0.00    -0.166 F 
ENDBRANCH  30  37
ENDBRANCH  25  26
ENDBRANCH  24  25
ENDBRANCH  22  24
ENDBRANCH   1  22
TORSDOF 7
ENDMDL
MODEL 7
REMARK VINA RESULT:      -7.4      4.033      7.115
REMARK  7 active torsions:
REMARK  status: ('A' for Active; 'I' for Inactive)
REMARK    1  A    between atoms: C_5  and  N_6 
REMARK    2  A    between atoms: N_6  and  C_7 
REMARK    3  A    between atoms: C_7  and  N_8 
REMARK    4  A    between atoms: N_8  and  C_9 
REMARK    5  A    between atoms: C_9  and  C_10 
REMARK    6  A    between atoms: C_10  and  C_11 
REMARK    7  A    between atoms: C_14  and  C_15 
ROOT
HETATM    1  C   UNL     1     -44.040  58.192 -52.074  1.00  0.00     0.102 C 
HETATM    2  C   UNL     1     -44.945  59.212 -52.044  1.00  0.00     0.139 C 
HETATM    3  C   UNL     1     -45.560  59.651 -50.768  1.00  0.00     0.270 C 
HETATM    4  O   UNL     1     -45.876  58.874 -49.871  1.00  0.00    -0.267 OA
HETATM    5  N   UNL     1     -45.821  61.007 -50.709  1.00  0.00    -0.270 N 
HETATM    6  C   UNL     1     -46.166  61.559 -49.412  1.00  0.00     0.164 C 
HETATM    7  C   UNL     1     -46.106  61.778 -51.822  1.00  0.00     0.333 C 
HETATM    8  O   UNL     1     -46.487  62.947 -51.719  1.00  0.00    -0.246 OA
HETATM    9  N   UNL     1     -45.964  61.162 -53.058  1.00  0.00    -0.270 N 
HETATM   10  C   UNL     1     -46.310  61.934 -54.239  1.00  0.00     0.164 C 
HETATM   11  C   UNL     1     -45.302  59.962 -53.270  1.00  0.00     0.270 C 
HETATM   12  O   UNL     1     -44.981  59.572 -54.394  1.00  0.00    -0.267 OA
ENDROOT
BRANCH   1  13
HETATM   13  N   UNL     1     -43.592  57.598 -50.901  1.00  0.00    -0.245 NA
HETATM   14  H   UNL     1     -44.353  57.562 -50.227  1.00  0.00     0.135 HD
BRANCH  13  15
HETATM   15  C   UNL     1     -42.877  56.371 -50.858  1.00  0.00     0.014 A 
HETATM   16  C   UNL     1     -43.455  55.130 -51.153  1.00  0.00     0.024 A 
HETATM   17  C   UNL     1     -42.694  53.957 -51.124  1.00  0.00     0.008 A 
HETATM   18  C   UNL     1     -41.328  54.003 -50.831  1.00  0.00    -0.062 A 
HETATM   19  C   UNL     1     -40.524  52.739 -50.755  1.00  0.00     0.048 C 
HETATM   20  C   UNL     1     -40.738  55.240 -50.559  1.00  0.00     0.008 A 
HETATM   21  C   UNL     1     -41.502  56.411 -50.589  1.00  0.00     0.024 A 
ENDBRANCH  13  15
ENDBRANCH   1  13
BRANCH   1  22
HETATM   22  N   UNL     1     -43.549  57.658 -53.268  1.00  0.00    -0.379 N 
HETATM   23  H   UNL     1     -44.287  57.581 -53.983  1.00  0.00     0.160 HD
BRANCH  22  24
HETATM   24  C   UNL     1     -42.259  58.021 -53.856  1.00  0.00     0.125 C 
BRANCH  24  25
HETATM   25  C   UNL     1     -41.564  56.783 -54.431  1.00  0.00     0.061 C 
BRANCH  25  26
HETATM   26  C   UNL     1     -42.287  56.241 -55.628  1.00  0.00    -0.022 A 
HETATM   27  C   UNL     1     -42.515  56.934 -56.862  1.00  0.00    -0.000 A 
HETATM   28  C   UNL     1     -43.243  56.086 -57.695  1.00  0.00     0.058 A 
HETATM   29  C   UNL     1     -42.171  58.216 -57.336  1.00  0.00     0.014 A 
HETATM   30  C   UNL     1     -43.659  56.448 -58.994  1.00  0.00     0.075 A 
HETATM   31  N   UNL     1     -43.436  54.914 -56.996  1.00  0.00    -0.358 N 
HETATM   32  C   UNL     1     -43.296  57.740 -59.427  1.00  0.00     0.018 A 
HETATM   33  C   UNL     1     -42.567  58.608 -58.617  1.00  0.00     0.002 A 
HETATM   34  H   UNL     1     -43.934  54.111 -57.359  1.00  0.00     0.166 HD
HETATM   35  C   UNL     1     -42.876  54.993 -55.746  1.00  0.00     0.013 A 
HETATM   36  C   UNL     1     -42.956  53.861 -54.787  1.00  0.00     0.068 C 
BRANCH  30  37
HETATM   37  C   UNL     1     -44.448  55.548 -59.910  1.00  0.00     0.419 C 
HETATM   38  F   UNL     1     -44.022  54.251 -59.891  1.00  0.00    -0.166 F 
HETATM   39  F   UNL     1     -45.772  55.506 -59.593  1.00  0.00    -0.166 F 
HETATM   40  F   UNL     1     -44.387  55.939 -61.213  1.00  0.00    -0.166 F 
ENDBRANCH  30  37
ENDBRANCH  25  26
ENDBRANCH  24  25
ENDBRANCH  22  24
ENDBRANCH   1  22
TORSDOF 7
ENDMDL
MODEL 8
REMARK VINA RESULT:      -7.4      2.433      5.596
REMARK  7 active torsions:
REMARK  status: ('A' for Active; 'I' for Inactive)
REMARK    1  A    between atoms: C_5  and  N_6 
REMARK    2  A    between atoms: N_6  and  C_7 
REMARK    3  A    between atoms: C_7  and  N_8 
REMARK    4  A    between atoms: N_8  and  C_9 
REMARK    5  A    between atoms: C_9  and  C_10 
REMARK    6  A    between atoms: C_10  and  C_11 
REMARK    7  A    between atoms: C_14  and  C_15 
ROOT
HETATM    1  C   UNL     1     -42.515  58.395 -54.664  1.00  0.00     0.102 C 
HETATM    2  C   UNL     1     -42.237  59.247 -53.635  1.00  0.00     0.139 C 
HETATM    3  C   UNL     1     -42.802  60.617 -53.604  1.00  0.00     0.270 C 
HETATM    4  O   UNL     1     -42.940  61.312 -54.607  1.00  0.00    -0.267 OA
HETATM    5  N   UNL     1     -43.084  61.077 -52.331  1.00  0.00    -0.270 N 
HETATM    6  C   UNL     1     -43.882  62.285 -52.226  1.00  0.00     0.164 C 
HETATM    7  C   UNL     1     -42.391  60.676 -51.202  1.00  0.00     0.333 C 
HETATM    8  O   UNL     1     -42.563  61.221 -50.110  1.00  0.00    -0.246 OA
HETATM    9  N   UNL     1     -41.476  59.646 -51.370  1.00  0.00    -0.270 N 
HETATM   10  C   UNL     1     -40.696  59.243 -50.212  1.00  0.00     0.164 C 
HETATM   11  C   UNL     1     -41.413  58.819 -52.481  1.00  0.00     0.270 C 
HETATM   12  O   UNL     1     -40.764  57.771 -52.492  1.00  0.00    -0.267 OA
ENDROOT
BRANCH   1  13
HETATM   13  N   UNL     1     -43.414  58.748 -55.661  1.00  0.00    -0.245 NA
HETATM   14  H   UNL     1     -43.946  59.563 -55.365  1.00  0.00     0.135 HD
BRANCH  13  15
HETATM   15  C   UNL     1     -43.059  58.898 -57.030  1.00  0.00     0.014 A 
HETATM   16  C   UNL     1     -43.719  58.239 -58.074  1.00  0.00     0.024 A 
HETATM   17  C   UNL     1     -43.345  58.448 -59.406  1.00  0.00     0.008 A 
HETATM   18  C   UNL     1     -42.324  59.349 -59.725  1.00  0.00    -0.062 A 
HETATM   19  C   UNL     1     -41.894  59.537 -61.149  1.00  0.00     0.048 C 
HETATM   20  C   UNL     1     -41.677  60.029 -58.689  1.00  0.00     0.008 A 
HETATM   21  C   UNL     1     -42.054  59.817 -57.359  1.00  0.00     0.024 A 
ENDBRANCH  13  15
ENDBRANCH   1  13
BRANCH   1  22
HETATM   22  N   UNL     1     -41.891  57.153 -54.800  1.00  0.00    -0.379 N 
HETATM   23  H   UNL     1     -41.229  56.972 -54.032  1.00  0.00     0.160 HD
BRANCH  22  24
HETATM   24  C   UNL     1     -42.582  55.933 -55.221  1.00  0.00     0.125 C 
BRANCH  24  25
HETATM   25  C   UNL     1     -43.619  55.516 -54.173  1.00  0.00     0.061 C 
BRANCH  25  26
HETATM   26  C   UNL     1     -43.004  55.343 -52.815  1.00  0.00    -0.022 A 
HETATM   27  C   UNL     1     -41.962  54.421 -52.473  1.00  0.00    -0.000 A 
HETATM   28  C   UNL     1     -41.703  54.562 -51.111  1.00  0.00     0.058 A 
HETATM   29  C   UNL     1     -41.223  53.470 -53.205  1.00  0.00     0.014 A 
HETATM   30  C   UNL     1     -40.737  53.797 -50.423  1.00  0.00     0.075 A 
HETATM   31  N   UNL     1     -42.548  55.548 -50.647  1.00  0.00    -0.358 N 
HETATM   32  C   UNL     1     -40.024  52.856 -51.194  1.00  0.00     0.018 A 
HETATM   33  C   UNL     1     -40.260  52.693 -52.557  1.00  0.00     0.002 A 
HETATM   34  H   UNL     1     -42.578  55.866 -49.686  1.00  0.00     0.166 HD
HETATM   35  C   UNL     1     -43.345  56.022 -51.658  1.00  0.00     0.013 A 
HETATM   36  C   UNL     1     -44.355  57.084 -51.416  1.00  0.00     0.068 C 
BRANCH  30  37
HETATM   37  C   UNL     1     -40.443  53.932 -48.951  1.00  0.00     0.419 C 
HETATM   38  F   UNL     1     -39.139  54.242 -48.688  1.00  0.00    -0.166 F 
HETATM   39  F   UNL     1     -41.182  54.909 -48.354  1.00  0.00    -0.166 F 
HETATM   40  F   UNL     1     -40.700  52.790 -48.255  1.00  0.00    -0.166 F 
ENDBRANCH  30  37
ENDBRANCH  25  26
ENDBRANCH  24  25
ENDBRANCH  22  24
ENDBRANCH   1  22
TORSDOF 7
ENDMDL
MODEL 9
REMARK VINA RESULT:      -7.1      2.107      4.525
REMARK  7 active torsions:
REMARK  status: ('A' for Active; 'I' for Inactive)
REMARK    1  A    between atoms: C_5  and  N_6 
REMARK    2  A    between atoms: N_6  and  C_7 
REMARK    3  A    between atoms: C_7  and  N_8 
REMARK    4  A    between atoms: N_8  and  C_9 
REMARK    5  A    between atoms: C_9  and  C_10 
REMARK    6  A    between atoms: C_10  and  C_11 
REMARK    7  A    between atoms: C_14  and  C_15 
ROOT
HETATM    1  C   UNL     1     -45.116  58.654 -56.160  1.00  0.00     0.102 C 
HETATM    2  C   UNL     1     -44.536  58.934 -57.362  1.00  0.00     0.139 C 
HETATM    3  C   UNL     1     -44.519  60.316 -57.900  1.00  0.00     0.270 C 
HETATM    4  O   UNL     1     -45.456  61.099 -57.771  1.00  0.00    -0.267 OA
HETATM    5  N   UNL     1     -43.387  60.618 -58.632  1.00  0.00    -0.270 N 
HETATM    6  C   UNL     1     -43.165  62.014 -58.961  1.00  0.00     0.164 C 
HETATM    7  C   UNL     1     -42.663  59.677 -59.344  1.00  0.00     0.333 C 
HETATM    8  O   UNL     1     -41.753  60.004 -60.109  1.00  0.00    -0.246 OA
HETATM    9  N   UNL     1     -43.029  58.350 -59.168  1.00  0.00    -0.270 N 
HETATM   10  C   UNL     1     -42.321  57.347 -59.946  1.00  0.00     0.164 C 
HETATM   11  C   UNL     1     -43.847  57.885 -58.149  1.00  0.00     0.270 C 
HETATM   12  O   UNL     1     -43.949  56.687 -57.876  1.00  0.00    -0.267 OA
ENDROOT
BRANCH   1  13
HETATM   13  N   UNL     1     -45.620  59.668 -55.356  1.00  0.00    -0.245 NA
HETATM   14  H   UNL     1     -46.600  59.485 -55.154  1.00  0.00     0.135 HD
BRANCH  13  15
HETATM   15  C   UNL     1     -44.982  60.132 -54.174  1.00  0.00     0.014 A 
HETATM   16  C   UNL     1     -45.571  60.072 -52.905  1.00  0.00     0.024 A 
HETATM   17  C   UNL     1     -44.883  60.516 -51.771  1.00  0.00     0.008 A 
HETATM   18  C   UNL     1     -43.576  61.001 -51.877  1.00  0.00    -0.062 A 
HETATM   19  C   UNL     1     -42.857  61.520 -50.667  1.00  0.00     0.048 C 
HETATM   20  C   UNL     1     -42.973  61.043 -53.137  1.00  0.00     0.008 A 
HETATM   21  C   UNL     1     -43.664  60.597 -54.268  1.00  0.00     0.024 A 
ENDBRANCH  13  15
ENDBRANCH   1  13
BRANCH   1  22
HETATM   22  N   UNL     1     -45.276  57.348 -55.689  1.00  0.00    -0.379 N 
HETATM   23  H   UNL     1     -45.246  56.661 -56.455  1.00  0.00     0.160 HD
BRANCH  22  24
HETATM   24  C   UNL     1     -44.644  56.835 -54.472  1.00  0.00     0.125 C 
BRANCH  24  25
HETATM   25  C   UNL     1     -43.124  57.011 -54.544  1.00  0.00     0.061 C 
BRANCH  25  26
HETATM   26  C   UNL     1     -42.412  56.135 -53.556  1.00  0.00    -0.022 A 
HETATM   27  C   UNL     1     -41.656  54.956 -53.863  1.00  0.00    -0.000 A 
HETATM   28  C   UNL     1     -41.186  54.431 -52.662  1.00  0.00     0.058 A 
HETATM   29  C   UNL     1     -41.342  54.287 -55.063  1.00  0.00     0.014 A 
HETATM   30  C   UNL     1     -40.409  53.255 -52.582  1.00  0.00     0.075 A 
HETATM   31  N   UNL     1     -41.628  55.270 -51.661  1.00  0.00    -0.358 N 
HETATM   32  C   UNL     1     -40.121  52.616 -53.806  1.00  0.00     0.018 A 
HETATM   33  C   UNL     1     -40.576  53.119 -55.023  1.00  0.00     0.002 A 
HETATM   34  H   UNL     1     -41.431  55.136 -50.677  1.00  0.00     0.166 HD
HETATM   35  C   UNL     1     -42.375  56.296 -52.181  1.00  0.00     0.013 A 
HETATM   36  C   UNL     1     -42.980  57.336 -51.308  1.00  0.00     0.068 C 
BRANCH  30  37
HETATM   37  C   UNL     1     -39.892  52.668 -51.294  1.00  0.00     0.419 C 
HETATM   38  F   UNL     1     -39.106  53.531 -50.586  1.00  0.00    -0.166 F 
HETATM   39  F   UNL     1     -40.892  52.299 -50.446  1.00  0.00    -0.166 F 
HETATM   40  F   UNL     1     -39.135  51.553 -51.490  1.00  0.00    -0.166 F 
ENDBRANCH  30  37
ENDBRANCH  25  26
ENDBRANCH  24  25
ENDBRANCH  22  24
ENDBRANCH   1  22
TORSDOF 7
ENDMDL
MODEL 10
REMARK VINA RESULT:      -6.8      2.740      5.164
REMARK  7 active torsions:
REMARK  status: ('A' for Active; 'I' for Inactive)
REMARK    1  A    between atoms: C_5  and  N_6 
REMARK    2  A    between atoms: N_6  and  C_7 
REMARK    3  A    between atoms: C_7  and  N_8 
REMARK    4  A    between atoms: N_8  and  C_9 
REMARK    5  A    between atoms: C_9  and  C_10 
REMARK    6  A    between atoms: C_10  and  C_11 
REMARK    7  A    between atoms: C_14  and  C_15 
ROOT
HETATM    1  C   UNL     1     -41.778  58.869 -55.157  1.00  0.00     0.102 C 
HETATM    2  C   UNL     1     -42.105  59.219 -56.434  1.00  0.00     0.139 C 
HETATM    3  C   UNL     1     -42.184  60.643 -56.840  1.00  0.00     0.270 C 
HETATM    4  O   UNL     1     -42.625  61.528 -56.110  1.00  0.00    -0.267 OA
HETATM    5  N   UNL     1     -41.795  60.877 -58.145  1.00  0.00    -0.270 N 
HETATM    6  C   UNL     1     -41.585  62.259 -58.536  1.00  0.00     0.164 C 
HETATM    7  C   UNL     1     -41.925  59.944 -59.160  1.00  0.00     0.333 C 
HETATM    8  O   UNL     1     -41.714  60.238 -60.339  1.00  0.00    -0.246 OA
HETATM    9  N   UNL     1     -42.328  58.671 -58.784  1.00  0.00    -0.270 N 
HETATM   10  C   UNL     1     -42.526  57.689 -59.837  1.00  0.00     0.164 C 
HETATM   11  C   UNL     1     -42.331  58.196 -57.481  1.00  0.00     0.270 C 
HETATM   12  O   UNL     1     -42.454  56.999 -57.212  1.00  0.00    -0.267 OA
ENDROOT
BRANCH   1  13
HETATM   13  N   UNL     1     -41.414  59.830 -54.223  1.00  0.00    -0.245 NA
HETATM   14  H   UNL     1     -41.173  60.695 -54.702  1.00  0.00     0.135 HD
BRANCH  13  15
HETATM   15  C   UNL     1     -42.180  60.139 -53.066  1.00  0.00     0.014 A 
HETATM   16  C   UNL     1     -43.502  60.598 -53.115  1.00  0.00     0.024 A 
HETATM   17  C   UNL     1     -44.217  60.858 -51.942  1.00  0.00     0.008 A 
HETATM   18  C   UNL     1     -43.636  60.632 -50.690  1.00  0.00    -0.062 A 
HETATM   19  C   UNL     1     -44.388  60.955 -49.433  1.00  0.00     0.048 C 
HETATM   20  C   UNL     1     -42.325  60.152 -50.633  1.00  0.00     0.008 A 
HETATM   21  C   UNL     1     -41.613  59.893 -51.809  1.00  0.00     0.024 A 
ENDBRANCH  13  15
ENDBRANCH   1  13
BRANCH   1  22
HETATM   22  N   UNL     1     -41.832  57.549 -54.703  1.00  0.00    -0.379 N 
HETATM   23  H   UNL     1     -40.983  57.291 -54.182  1.00  0.00     0.160 HD
BRANCH  22  24
HETATM   24  C   UNL     1     -43.030  56.929 -54.134  1.00  0.00     0.125 C 
BRANCH  24  25
HETATM   25  C   UNL     1     -42.662  56.070 -52.920  1.00  0.00     0.061 C 
BRANCH  25  26
HETATM   26  C   UNL     1     -42.149  54.719 -53.325  1.00  0.00    -0.022 A 
HETATM   27  C   UNL     1     -41.209  53.920 -52.595  1.00  0.00    -0.000 A 
HETATM   28  C   UNL     1     -40.985  52.756 -53.329  1.00  0.00     0.058 A 
HETATM   29  C   UNL     1     -40.523  54.093 -51.377  1.00  0.00     0.014 A 
HETATM   30  C   UNL     1     -40.099  51.739 -52.915  1.00  0.00     0.075 A 
HETATM   31  N   UNL     1     -41.774  52.840 -54.457  1.00  0.00    -0.358 N 
HETATM   32  C   UNL     1     -39.431  51.955 -51.691  1.00  0.00     0.018 A 
HETATM   33  C   UNL     1     -39.637  53.107 -50.936  1.00  0.00     0.002 A 
HETATM   34  H   UNL     1     -41.818  52.128 -55.174  1.00  0.00     0.166 HD
HETATM   35  C   UNL     1     -42.474  54.019 -54.475  1.00  0.00     0.013 A 
HETATM   36  C   UNL     1     -43.391  54.360 -55.593  1.00  0.00     0.068 C 
BRANCH  30  37
HETATM   37  C   UNL     1     -39.840  50.475 -53.693  1.00  0.00     0.419 C 
HETATM   38  F   UNL     1     -38.780  50.575 -54.547  1.00  0.00    -0.166 F 
HETATM   39  F   UNL     1     -39.566  49.409 -52.890  1.00  0.00    -0.166 F 
HETATM   40  F   UNL     1     -40.901  50.102 -54.461  1.00  0.00    -0.166 F 
ENDBRANCH  30  37
ENDBRANCH  25  26
ENDBRANCH  24  25
ENDBRANCH  22  24
ENDBRANCH   1  22
TORSDOF 7
ENDMDL
