MODEL 1
REMARK VINA RESULT:      -8.0      0.000      0.000
REMARK  9 active torsions:
REMARK  status: ('A' for Active; 'I' for Inactive)
REMARK    1  A    between atoms: C_2  and  C_3 
REMARK    2  A    between atoms: C_3  and  O_4 
REMARK    3  A    between atoms: O_4  and  C_5 
REMARK    4  A    between atoms: C_8  and  C_9 
REMARK       I    between atoms: C_9  and  N_10 
REMARK    5  A    between atoms: N_10  and  C_11 
REMARK    6  A    between atoms: C_11  and  N_12 
REMARK    7  A    between atoms: N_12  and  C_13 
REMARK    8  A    between atoms: C_15  and  C_16 
REMARK    9  A    between atoms: C_25  and  O_26 
ROOT
HETATM    1  C   UNL     1     -41.842  57.889 -53.805  1.00  0.00     0.035 A 
HETATM    2  C   UNL     1     -42.775  58.104 -54.826  1.00  0.00     0.046 A 
HETATM    3  C   UNL     1     -42.917  57.199 -55.898  1.00  0.00     0.036 A 
HETATM    4  C   UNL     1     -42.078  56.070 -55.926  1.00  0.00     0.084 A 
HETATM    5  C   UNL     1     -41.106  55.864 -54.934  1.00  0.00    -0.026 A 
HETATM    6  C   UNL     1     -40.169  54.688 -54.990  1.00  0.00     0.051 C 
HETATM    7  C   UNL     1     -40.982  56.794 -53.892  1.00  0.00     0.039 A 
ENDROOT
BRANCH   1   8
HETATM    8  N   UNL     1     -41.818  58.813 -52.739  1.00  0.00    -0.333 N 
HETATM    9  H   UNL     1     -41.256  59.648 -52.883  1.00  0.00     0.168 HD
BRANCH   8  10
HETATM   10  C   UNL     1     -42.546  58.865 -51.569  1.00  0.00     0.179 C 
HETATM   11  S   UNL     1     -42.137  60.061 -50.479  1.00  0.00    -0.040 SA
BRANCH  10  12
HETATM   12  N   UNL     1     -43.613  57.983 -51.482  1.00  0.00    -0.299 N 
HETATM   13  C   UNL     1     -43.790  56.738 -50.892  1.00  0.00     0.257 C 
HETATM   14  O   UNL     1     -44.853  56.512 -50.312  1.00  0.00    -0.267 OA
HETATM   15  H   UNL     1     -44.486  58.481 -51.362  1.00  0.00     0.171 HD
BRANCH  13  16
HETATM   16  C   UNL     1     -42.751  55.688 -50.908  1.00  0.00     0.032 A 
HETATM   17  C   UNL     1     -42.919  54.641 -51.822  1.00  0.00     0.020 A 
HETATM   18  C   UNL     1     -41.927  53.671 -51.979  1.00  0.00     0.038 A 
HETATM   19  C   UNL     1     -40.747  53.755 -51.240  1.00  0.00     0.068 A 
HETATM   20  C   UNL     1     -40.588  54.795 -50.317  1.00  0.00     0.038 A 
HETATM   21  C   UNL     1     -41.581  55.771 -50.153  1.00  0.00     0.020 A 
BRANCH  19  22
HETATM   22  O   UNL     1     -39.687  52.893 -51.345  1.00  0.00    -0.351 OA
BRANCH  22  23
HETATM   23  C   UNL     1     -39.965  51.612 -51.918  1.00  0.00     0.175 C 
BRANCH  23  24
HETATM   24  C   UNL     1     -39.323  51.519 -53.299  1.00  0.00     0.022 C 
HETATM   25  C   UNL     1     -40.047  50.534 -54.206  1.00  0.00     0.007 C 
ENDBRANCH  23  24
ENDBRANCH  22  23
ENDBRANCH  19  22
ENDBRANCH  13  16
ENDBRANCH  10  12
ENDBRANCH   8  10
ENDBRANCH   1   8
BRANCH   3  26
HETATM   26  C   UNL     1     -43.984  57.465 -56.877  1.00  0.00     0.112 A 
HETATM   27  S   UNL     1     -45.265  58.561 -56.530  1.00  0.00    -0.067 SA
HETATM   28  C   UNL     1     -45.919  58.313 -58.101  1.00  0.00     0.035 A 
HETATM   29  C   UNL     1     -45.140  57.369 -58.770  1.00  0.00     0.075 A 
HETATM   30  C   UNL     1     -47.040  58.911 -58.700  1.00  0.00     0.021 A 
HETATM   31  N   UNL     1     -44.060  56.879 -58.055  1.00  0.00    -0.239 NA
HETATM   32  C   UNL     1     -45.496  57.006 -60.084  1.00  0.00     0.033 A 
HETATM   33  C   UNL     1     -46.609  57.597 -60.694  1.00  0.00     0.002 A 
HETATM   34  C   UNL     1     -47.368  58.540 -60.008  1.00  0.00     0.002 A 
ENDBRANCH   3  26
BRANCH   4  35
HETATM   35  O   UNL     1     -42.167  55.096 -56.888  1.00  0.00    -0.359 OA
HETATM   36  H   UNL     1     -41.571  55.304 -57.627  1.00  0.00     0.218 HD
ENDBRANCH   4  35
TORSDOF 9
ENDMDL
MODEL 2
REMARK VINA RESULT:      -8.0      3.026      7.383
REMARK  9 active torsions:
REMARK  status: ('A' for Active; 'I' for Inactive)
REMARK    1  A    between atoms: C_2  and  C_3 
REMARK    2  A    between atoms: C_3  and  O_4 
REMARK    3  A    between atoms: O_4  and  C_5 
REMARK    4  A    between atoms: C_8  and  C_9 
REMARK       I    between atoms: C_9  and  N_10 
REMARK    5  A    between atoms: N_10  and  C_11 
REMARK    6  A    between atoms: C_11  and  N_12 
REMARK    7  A    between atoms: N_12  and  C_13 
REMARK    8  A    between atoms: C_15  and  C_16 
REMARK    9  A    between atoms: C_25  and  O_26 
ROOT
HETATM    1  C   UNL     1     -44.668  57.516 -54.623  1.00  0.00     0.035 A 
HETATM    2  C   UNL     1     -43.756  56.459 -54.513  1.00  0.00     0.046 A 
HETATM    3  C   UNL     1     -43.311  55.996 -53.258  1.00  0.00     0.036 A 
HETATM    4  C   UNL     1     -43.797  56.640 -52.105  1.00  0.00     0.084 A 
HETATM    5  C   UNL     1     -44.675  57.731 -52.200  1.00  0.00    -0.026 A 
HETATM    6  C   UNL     1     -45.154  58.458 -50.972  1.00  0.00     0.051 C 
HETATM    7  C   UNL     1     -45.084  58.174 -53.465  1.00  0.00     0.039 A 
ENDROOT
BRANCH   1   8
HETATM    8  N   UNL     1     -45.107  57.866 -55.917  1.00  0.00    -0.333 N 
HETATM    9  H   UNL     1     -46.113  57.875 -56.061  1.00  0.00     0.168 HD
BRANCH   8  10
HETATM   10  C   UNL     1     -44.414  58.349 -57.008  1.00  0.00     0.179 C 
HETATM   11  S   UNL     1     -44.021  57.247 -58.198  1.00  0.00    -0.040 SA
BRANCH  10  12
HETATM   12  N   UNL     1     -44.223  59.722 -57.042  1.00  0.00    -0.299 N 
HETATM   13  C   UNL     1     -43.265  60.576 -56.511  1.00  0.00     0.257 C 
HETATM   14  O   UNL     1     -42.865  61.511 -57.207  1.00  0.00    -0.267 OA
HETATM   15  H   UNL     1     -44.470  60.100 -57.948  1.00  0.00     0.171 HD
BRANCH  13  16
HETATM   16  C   UNL     1     -42.687  60.395 -55.164  1.00  0.00     0.032 A 
HETATM   17  C   UNL     1     -43.232  61.167 -54.129  1.00  0.00     0.020 A 
HETATM   18  C   UNL     1     -42.820  60.974 -52.810  1.00  0.00     0.038 A 
HETATM   19  C   UNL     1     -41.879  59.989 -52.509  1.00  0.00     0.068 A 
HETATM   20  C   UNL     1     -41.326  59.229 -53.546  1.00  0.00     0.038 A 
HETATM   21  C   UNL     1     -41.733  59.419 -54.875  1.00  0.00     0.020 A 
BRANCH  19  22
HETATM   22  O   UNL     1     -41.438  59.676 -51.250  1.00  0.00    -0.351 OA
BRANCH  22  23
HETATM   23  C   UNL     1     -40.187  58.987 -51.170  1.00  0.00     0.175 C 
BRANCH  23  24
HETATM   24  C   UNL     1     -39.198  59.814 -50.354  1.00  0.00     0.022 C 
HETATM   25  C   UNL     1     -37.772  59.294 -50.478  1.00  0.00     0.007 C 
ENDBRANCH  23  24
ENDBRANCH  22  23
ENDBRANCH  19  22
ENDBRANCH  13  16
ENDBRANCH  10  12
ENDBRANCH   8  10
ENDBRANCH   1   8
BRANCH   3  26
HETATM   26  C   UNL     1     -42.420  54.824 -53.241  1.00  0.00     0.112 A 
HETATM   27  S   UNL     1     -42.199  53.847 -54.641  1.00  0.00    -0.067 SA
HETATM   28  C   UNL     1     -41.067  52.869 -53.794  1.00  0.00     0.035 A 
HETATM   29  C   UNL     1     -40.970  53.325 -52.480  1.00  0.00     0.075 A 
HETATM   30  C   UNL     1     -40.316  51.776 -54.258  1.00  0.00     0.021 A 
HETATM   31  N   UNL     1     -41.761  54.420 -52.174  1.00  0.00    -0.239 NA
HETATM   32  C   UNL     1     -40.094  52.663 -51.595  1.00  0.00     0.033 A 
HETATM   33  C   UNL     1     -39.338  51.576 -52.047  1.00  0.00     0.002 A 
HETATM   34  C   UNL     1     -39.449  51.141 -53.364  1.00  0.00     0.002 A 
ENDBRANCH   3  26
BRANCH   4  35
HETATM   35  O   UNL     1     -43.476  56.238 -50.833  1.00  0.00    -0.359 OA
HETATM   36  H   UNL     1     -44.062  55.514 -50.557  1.00  0.00     0.218 HD
ENDBRANCH   4  35
TORSDOF 9
ENDMDL
MODEL 3
REMARK VINA RESULT:      -7.8      2.787      7.906
REMARK  9 active torsions:
REMARK  status: ('A' for Active; 'I' for Inactive)
REMARK    1  A    between atoms: C_2  and  C_3 
REMARK    2  A    between atoms: C_3  and  O_4 
REMARK    3  A    between atoms: O_4  and  C_5 
REMARK    4  A    between atoms: C_8  and  C_9 
REMARK       I    between atoms: C_9  and  N_10 
REMARK    5  A    between atoms: N_10  and  C_11 
REMARK    6  A    between atoms: C_11  and  N_12 
REMARK    7  A    between atoms: N_12  and  C_13 
REMARK    8  A    between atoms: C_15  and  C_16 
REMARK    9  A    between atoms: C_25  and  O_26 
ROOT
HETATM    1  C   UNL     1     -43.231  59.617 -53.772  1.00  0.00     0.035 A 
HETATM    2  C   UNL     1     -42.669  58.340 -53.889  1.00  0.00     0.046 A 
HETATM    3  C   UNL     1     -42.012  57.722 -52.806  1.00  0.00     0.036 A 
HETATM    4  C   UNL     1     -41.917  58.433 -51.595  1.00  0.00     0.084 A 
HETATM    5  C   UNL     1     -42.435  59.732 -51.476  1.00  0.00    -0.026 A 
HETATM    6  C   UNL     1     -42.288  60.518 -50.202  1.00  0.00     0.051 C 
HETATM    7  C   UNL     1     -43.068  60.322 -52.580  1.00  0.00     0.039 A 
ENDROOT
BRANCH   1   8
HETATM    8  N   UNL     1     -43.927  60.127 -54.888  1.00  0.00    -0.333 N 
HETATM    9  H   UNL     1     -44.902  59.854 -54.971  1.00  0.00     0.168 HD
BRANCH   8  10
HETATM   10  C   UNL     1     -43.561  61.066 -55.831  1.00  0.00     0.179 C 
HETATM   11  S   UNL     1     -44.691  62.236 -56.207  1.00  0.00    -0.040 SA
BRANCH  10  12
HETATM   12  N   UNL     1     -42.250  60.995 -56.277  1.00  0.00    -0.299 N 
HETATM   13  C   UNL     1     -41.654  60.553 -57.451  1.00  0.00     0.257 C 
HETATM   14  O   UNL     1     -40.720  61.210 -57.915  1.00  0.00    -0.267 OA
HETATM   15  H   UNL     1     -41.720  61.803 -55.975  1.00  0.00     0.171 HD
BRANCH  13  16
HETATM   16  C   UNL     1     -42.106  59.350 -58.178  1.00  0.00     0.032 A 
HETATM   17  C   UNL     1     -42.129  59.422 -59.577  1.00  0.00     0.020 A 
HETATM   18  C   UNL     1     -42.435  58.294 -60.340  1.00  0.00     0.038 A 
HETATM   19  C   UNL     1     -42.695  57.076 -59.711  1.00  0.00     0.068 A 
HETATM   20  C   UNL     1     -42.685  57.010 -58.313  1.00  0.00     0.038 A 
HETATM   21  C   UNL     1     -42.381  58.140 -57.540  1.00  0.00     0.020 A 
BRANCH  19  22
HETATM   22  O   UNL     1     -42.957  55.895 -60.355  1.00  0.00    -0.351 OA
BRANCH  22  23
HETATM   23  C   UNL     1     -44.106  55.171 -59.907  1.00  0.00     0.175 C 
BRANCH  23  24
HETATM   24  C   UNL     1     -45.283  55.454 -60.837  1.00  0.00     0.022 C 
HETATM   25  C   UNL     1     -46.366  56.282 -60.161  1.00  0.00     0.007 C 
ENDBRANCH  23  24
ENDBRANCH  22  23
ENDBRANCH  19  22
ENDBRANCH  13  16
ENDBRANCH  10  12
ENDBRANCH   8  10
ENDBRANCH   1   8
BRANCH   3  26
HETATM   26  C   UNL     1     -41.530  56.343 -52.999  1.00  0.00     0.112 A 
HETATM   27  S   UNL     1     -41.270  55.698 -54.573  1.00  0.00    -0.067 SA
HETATM   28  C   UNL     1     -40.709  54.224 -53.888  1.00  0.00     0.035 A 
HETATM   29  C   UNL     1     -40.804  54.305 -52.500  1.00  0.00     0.075 A 
HETATM   30  C   UNL     1     -40.218  53.076 -54.534  1.00  0.00     0.021 A 
HETATM   31  N   UNL     1     -41.294  55.505 -52.011  1.00  0.00    -0.239 NA
HETATM   32  C   UNL     1     -40.399  53.199 -51.726  1.00  0.00     0.033 A 
HETATM   33  C   UNL     1     -39.904  52.052 -52.357  1.00  0.00     0.002 A 
HETATM   34  C   UNL     1     -39.814  51.995 -53.744  1.00  0.00     0.002 A 
ENDBRANCH   3  26
BRANCH   4  35
HETATM   35  O   UNL     1     -41.351  57.908 -50.462  1.00  0.00    -0.359 OA
HETATM   36  H   UNL     1     -41.137  58.620 -49.838  1.00  0.00     0.218 HD
ENDBRANCH   4  35
TORSDOF 9
ENDMDL
MODEL 4
REMARK VINA RESULT:      -7.7      3.236      7.177
REMARK  9 active torsions:
REMARK  status: ('A' for Active; 'I' for Inactive)
REMARK    1  A    between atoms: C_2  and  C_3 
REMARK    2  A    between atoms: C_3  and  O_4 
REMARK    3  A    between atoms: O_4  and  C_5 
REMARK    4  A    between atoms: C_8  and  C_9 
REMARK       I    between atoms: C_9  and  N_10 
REMARK    5  A    between atoms: N_10  and  C_11 
REMARK    6  A    between atoms: C_11  and  N_12 
REMARK    7  A    between atoms: N_12  and  C_13 
REMARK    8  A    between atoms: C_15  and  C_16 
REMARK    9  A    between atoms: C_25  and  O_26 
ROOT
HETATM    1  C   UNL     1     -44.737  57.918 -51.954  1.00  0.00     0.035 A 
HETATM    2  C   UNL     1     -43.868  56.822 -51.898  1.00  0.00     0.046 A 
HETATM    3  C   UNL     1     -43.465  56.140 -53.063  1.00  0.00     0.036 A 
HETATM    4  C   UNL     1     -43.976  56.580 -54.298  1.00  0.00     0.084 A 
HETATM    5  C   UNL     1     -44.884  57.648 -54.367  1.00  0.00    -0.026 A 
HETATM    6  C   UNL     1     -45.476  58.087 -55.679  1.00  0.00     0.051 C 
HETATM    7  C   UNL     1     -45.276  58.293 -53.185  1.00  0.00     0.039 A 
ENDROOT
BRANCH   1   8
HETATM    8  N   UNL     1     -45.032  58.579 -50.743  1.00  0.00    -0.333 N 
HETATM    9  H   UNL     1     -45.555  58.043 -50.055  1.00  0.00     0.168 HD
BRANCH   8  10
HETATM   10  C   UNL     1     -44.609  59.796 -50.250  1.00  0.00     0.179 C 
HETATM   11  S   UNL     1     -45.795  60.872 -49.778  1.00  0.00    -0.040 SA
BRANCH  10  12
HETATM   12  N   UNL     1     -43.238  59.943 -50.098  1.00  0.00    -0.299 N 
HETATM   13  C   UNL     1     -42.224  60.430 -50.913  1.00  0.00     0.257 C 
HETATM   14  O   UNL     1     -41.345  61.125 -50.401  1.00  0.00    -0.267 OA
HETATM   15  H   UNL     1     -43.006  60.228 -49.155  1.00  0.00     0.171 HD
BRANCH  13  16
HETATM   16  C   UNL     1     -42.169  60.172 -52.367  1.00  0.00     0.032 A 
HETATM   17  C   UNL     1     -42.862  61.062 -53.197  1.00  0.00     0.020 A 
HETATM   18  C   UNL     1     -42.767  60.955 -54.586  1.00  0.00     0.038 A 
HETATM   19  C   UNL     1     -41.957  59.973 -55.156  1.00  0.00     0.068 A 
HETATM   20  C   UNL     1     -41.277  59.076 -54.324  1.00  0.00     0.038 A 
HETATM   21  C   UNL     1     -41.370  59.176 -52.928  1.00  0.00     0.020 A 
BRANCH  19  22
HETATM   22  O   UNL     1     -41.747  59.804 -56.499  1.00  0.00    -0.351 OA
BRANCH  22  23
HETATM   23  C   UNL     1     -42.566  60.587 -57.372  1.00  0.00     0.175 C 
BRANCH  23  24
HETATM   24  C   UNL     1     -41.796  60.903 -58.651  1.00  0.00     0.022 C 
HETATM   25  C   UNL     1     -40.662  61.890 -58.411  1.00  0.00     0.007 C 
ENDBRANCH  23  24
ENDBRANCH  22  23
ENDBRANCH  19  22
ENDBRANCH  13  16
ENDBRANCH  10  12
ENDBRANCH   8  10
ENDBRANCH   1   8
BRANCH   3  26
HETATM   26  C   UNL     1     -42.481  55.054 -52.911  1.00  0.00     0.112 A 
HETATM   27  S   UNL     1     -41.648  54.802 -51.426  1.00  0.00    -0.067 SA
HETATM   28  C   UNL     1     -40.850  53.433 -52.093  1.00  0.00     0.035 A 
HETATM   29  C   UNL     1     -41.237  53.288 -53.425  1.00  0.00     0.075 A 
HETATM   30  C   UNL     1     -39.946  52.548 -51.481  1.00  0.00     0.021 A 
HETATM   31  N   UNL     1     -42.145  54.230 -53.882  1.00  0.00    -0.239 NA
HETATM   32  C   UNL     1     -40.699  52.224 -54.175  1.00  0.00     0.033 A 
HETATM   33  C   UNL     1     -39.801  51.333 -53.576  1.00  0.00     0.002 A 
HETATM   34  C   UNL     1     -39.433  51.495 -52.244  1.00  0.00     0.002 A 
ENDBRANCH   3  26
BRANCH   4  35
HETATM   35  O   UNL     1     -43.609  56.028 -55.498  1.00  0.00    -0.359 OA
HETATM   36  H   UNL     1     -43.096  56.671 -56.016  1.00  0.00     0.218 HD
ENDBRANCH   4  35
TORSDOF 9
ENDMDL
MODEL 5
REMARK VINA RESULT:      -7.3     16.112     18.540
REMARK  9 active torsions:
REMARK  status: ('A' for Active; 'I' for Inactive)
REMARK    1  A    between atoms: C_2  and  C_3 
REMARK    2  A    between atoms: C_3  and  O_4 
REMARK    3  A    between atoms: O_4  and  C_5 
REMARK    4  A    between atoms: C_8  and  C_9 
REMARK       I    between atoms: C_9  and  N_10 
REMARK    5  A    between atoms: N_10  and  C_11 
REMARK    6  A    between atoms: C_11  and  N_12 
REMARK    7  A    between atoms: N_12  and  C_13 
REMARK    8  A    between atoms: C_15  and  C_16 
REMARK    9  A    between atoms: C_25  and  O_26 
ROOT
HETATM    1  C   UNL     1     -34.525  38.559 -53.971  1.00  0.00     0.035 A 
HETATM    2  C   UNL     1     -35.301  38.564 -55.136  1.00  0.00     0.046 A 
HETATM    3  C   UNL     1     -34.712  38.635 -56.414  1.00  0.00     0.036 A 
HETATM    4  C   UNL     1     -33.310  38.720 -56.494  1.00  0.00     0.084 A 
HETATM    5  C   UNL     1     -32.520  38.764 -55.334  1.00  0.00    -0.026 A 
HETATM    6  C   UNL     1     -31.025  38.910 -55.413  1.00  0.00     0.051 C 
HETATM    7  C   UNL     1     -33.141  38.707 -54.078  1.00  0.00     0.039 A 
ENDROOT
BRANCH   1   8
HETATM    8  N   UNL     1     -35.197  38.418 -52.739  1.00  0.00    -0.333 N 
HETATM    9  H   UNL     1     -35.338  37.465 -52.413  1.00  0.00     0.168 HD
BRANCH   8  10
HETATM   10  C   UNL     1     -35.581  39.357 -51.804  1.00  0.00     0.179 C 
HETATM   11  S   UNL     1     -36.647  38.851 -50.623  1.00  0.00    -0.040 SA
BRANCH  10  12
HETATM   12  N   UNL     1     -34.946  40.587 -51.888  1.00  0.00    -0.299 N 
HETATM   13  C   UNL     1     -35.268  41.799 -52.484  1.00  0.00     0.257 C 
HETATM   14  O   UNL     1     -35.018  42.837 -51.870  1.00  0.00    -0.267 OA
HETATM   15  H   UNL     1     -34.478  40.813 -51.019  1.00  0.00     0.171 HD
BRANCH  13  16
HETATM   16  C   UNL     1     -35.918  41.895 -53.808  1.00  0.00     0.032 A 
HETATM   17  C   UNL     1     -35.111  42.277 -54.886  1.00  0.00     0.020 A 
HETATM   18  C   UNL     1     -35.621  42.282 -56.186  1.00  0.00     0.038 A 
HETATM   19  C   UNL     1     -36.935  41.879 -56.421  1.00  0.00     0.068 A 
HETATM   20  C   UNL     1     -37.744  41.510 -55.339  1.00  0.00     0.038 A 
HETATM   21  C   UNL     1     -37.239  41.506 -54.031  1.00  0.00     0.020 A 
BRANCH  19  22
HETATM   22  O   UNL     1     -37.527  41.794 -57.654  1.00  0.00    -0.351 OA
BRANCH  22  23
HETATM   23  C   UNL     1     -36.721  42.179 -58.771  1.00  0.00     0.175 C 
BRANCH  23  24
HETATM   24  C   UNL     1     -37.519  42.007 -60.061  1.00  0.00     0.022 C 
HETATM   25  C   UNL     1     -37.498  43.261 -60.923  1.00  0.00     0.007 C 
ENDBRANCH  23  24
ENDBRANCH  22  23
ENDBRANCH  19  22
ENDBRANCH  13  16
ENDBRANCH  10  12
ENDBRANCH   8  10
ENDBRANCH   1   8
BRANCH   3  26
HETATM   26  C   UNL     1     -35.606  38.546 -57.582  1.00  0.00     0.112 A 
HETATM   27  S   UNL     1     -37.285  38.214 -57.400  1.00  0.00    -0.067 SA
HETATM   28  C   UNL     1     -37.508  38.353 -59.100  1.00  0.00     0.035 A 
HETATM   29  C   UNL     1     -36.273  38.596 -59.699  1.00  0.00     0.075 A 
HETATM   30  C   UNL     1     -38.692  38.256 -59.850  1.00  0.00     0.021 A 
HETATM   31  N   UNL     1     -35.199  38.679 -58.827  1.00  0.00    -0.239 NA
HETATM   32  C   UNL     1     -36.216  38.742 -61.099  1.00  0.00     0.033 A 
HETATM   33  C   UNL     1     -37.388  38.651 -61.858  1.00  0.00     0.002 A 
HETATM   34  C   UNL     1     -38.611  38.413 -61.237  1.00  0.00     0.002 A 
ENDBRANCH   3  26
BRANCH   4  35
HETATM   35  O   UNL     1     -32.629  38.737 -57.684  1.00  0.00    -0.359 OA
HETATM   36  H   UNL     1     -32.560  39.649 -58.014  1.00  0.00     0.218 HD
ENDBRANCH   4  35
TORSDOF 9
ENDMDL
MODEL 6
REMARK VINA RESULT:      -7.1      3.148      7.782
REMARK  9 active torsions:
REMARK  status: ('A' for Active; 'I' for Inactive)
REMARK    1  A    between atoms: C_2  and  C_3 
REMARK    2  A    between atoms: C_3  and  O_4 
REMARK    3  A    between atoms: O_4  and  C_5 
REMARK    4  A    between atoms: C_8  and  C_9 
REMARK       I    between atoms: C_9  and  N_10 
REMARK    5  A    between atoms: N_10  and  C_11 
REMARK    6  A    between atoms: C_11  and  N_12 
REMARK    7  A    between atoms: N_12  and  C_13 
REMARK    8  A    between atoms: C_15  and  C_16 
REMARK    9  A    between atoms: C_25  and  O_26 
ROOT
HETATM    1  C   UNL     1     -44.679  57.732 -54.611  1.00  0.00     0.035 A 
HETATM    2  C   UNL     1     -43.878  56.878 -53.845  1.00  0.00     0.046 A 
HETATM    3  C   UNL     1     -43.852  56.955 -52.437  1.00  0.00     0.036 A 
HETATM    4  C   UNL     1     -44.646  57.935 -51.814  1.00  0.00     0.084 A 
HETATM    5  C   UNL     1     -45.420  58.830 -52.570  1.00  0.00    -0.026 A 
HETATM    6  C   UNL     1     -46.228  59.914 -51.911  1.00  0.00     0.051 C 
HETATM    7  C   UNL     1     -45.409  58.733 -53.969  1.00  0.00     0.039 A 
ENDROOT
BRANCH   1   8
HETATM    8  N   UNL     1     -44.692  57.536 -56.008  1.00  0.00    -0.333 N 
HETATM    9  H   UNL     1     -45.601  57.364 -56.428  1.00  0.00     0.168 HD
BRANCH   8  10
HETATM   10  C   UNL     1     -43.695  57.680 -56.951  1.00  0.00     0.179 C 
HETATM   11  S   UNL     1     -43.299  56.324 -57.840  1.00  0.00    -0.040 SA
BRANCH  10  12
HETATM   12  N   UNL     1     -43.214  58.968 -57.129  1.00  0.00    -0.299 N 
HETATM   13  C   UNL     1     -42.251  59.736 -56.487  1.00  0.00     0.257 C 
HETATM   14  O   UNL     1     -41.508  60.437 -57.175  1.00  0.00    -0.267 OA
HETATM   15  H   UNL     1     -43.151  59.198 -58.113  1.00  0.00     0.171 HD
BRANCH  13  16
HETATM   16  C   UNL     1     -42.064  59.726 -55.021  1.00  0.00     0.032 A 
HETATM   17  C   UNL     1     -41.203  58.756 -54.496  1.00  0.00     0.020 A 
HETATM   18  C   UNL     1     -40.885  58.752 -53.137  1.00  0.00     0.038 A 
HETATM   19  C   UNL     1     -41.405  59.735 -52.296  1.00  0.00     0.068 A 
HETATM   20  C   UNL     1     -42.277  60.696 -52.821  1.00  0.00     0.038 A 
HETATM   21  C   UNL     1     -42.603  60.704 -54.185  1.00  0.00     0.020 A 
BRANCH  19  22
HETATM   22  O   UNL     1     -41.125  59.862 -50.960  1.00  0.00    -0.351 OA
BRANCH  22  23
HETATM   23  C   UNL     1     -40.169  58.943 -50.423  1.00  0.00     0.175 C 
BRANCH  23  24
HETATM   24  C   UNL     1     -38.758  59.423 -50.750  1.00  0.00     0.022 C 
HETATM   25  C   UNL     1     -38.058  60.022 -49.538  1.00  0.00     0.007 C 
ENDBRANCH  23  24
ENDBRANCH  22  23
ENDBRANCH  19  22
ENDBRANCH  13  16
ENDBRANCH  10  12
ENDBRANCH   8  10
ENDBRANCH   1   8
BRANCH   3  26
HETATM   26  C   UNL     1     -43.045  55.957 -51.715  1.00  0.00     0.112 A 
HETATM   27  S   UNL     1     -42.668  54.432 -52.417  1.00  0.00    -0.067 SA
HETATM   28  C   UNL     1     -41.740  54.010 -51.032  1.00  0.00     0.035 A 
HETATM   29  C   UNL     1     -41.821  55.046 -50.102  1.00  0.00     0.075 A 
HETATM   30  C   UNL     1     -40.993  52.846 -50.786  1.00  0.00     0.021 A 
HETATM   31  N   UNL     1     -42.584  56.134 -50.494  1.00  0.00    -0.239 NA
HETATM   32  C   UNL     1     -41.134  54.914 -48.879  1.00  0.00     0.033 A 
HETATM   33  C   UNL     1     -40.382  53.761 -48.624  1.00  0.00     0.002 A 
HETATM   34  C   UNL     1     -40.313  52.742 -49.568  1.00  0.00     0.002 A 
ENDBRANCH   3  26
BRANCH   4  35
HETATM   35  O   UNL     1     -44.742  58.064 -50.452  1.00  0.00    -0.359 OA
HETATM   36  H   UNL     1     -44.109  58.730 -50.136  1.00  0.00     0.218 HD
ENDBRANCH   4  35
TORSDOF 9
ENDMDL
MODEL 7
REMARK VINA RESULT:      -7.0      3.242      8.458
REMARK  9 active torsions:
REMARK  status: ('A' for Active; 'I' for Inactive)
REMARK    1  A    between atoms: C_2  and  C_3 
REMARK    2  A    between atoms: C_3  and  O_4 
REMARK    3  A    between atoms: O_4  and  C_5 
REMARK    4  A    between atoms: C_8  and  C_9 
REMARK       I    between atoms: C_9  and  N_10 
REMARK    5  A    between atoms: N_10  and  C_11 
REMARK    6  A    between atoms: C_11  and  N_12 
REMARK    7  A    between atoms: N_12  and  C_13 
REMARK    8  A    between atoms: C_15  and  C_16 
REMARK    9  A    between atoms: C_25  and  O_26 
ROOT
HETATM    1  C   UNL     1     -44.595  57.800 -54.571  1.00  0.00     0.035 A 
HETATM    2  C   UNL     1     -43.802  56.938 -53.805  1.00  0.00     0.046 A 
HETATM    3  C   UNL     1     -43.828  56.968 -52.396  1.00  0.00     0.036 A 
HETATM    4  C   UNL     1     -44.666  57.907 -51.769  1.00  0.00     0.084 A 
HETATM    5  C   UNL     1     -45.434  58.810 -52.523  1.00  0.00    -0.026 A 
HETATM    6  C   UNL     1     -46.290  59.852 -51.857  1.00  0.00     0.051 C 
HETATM    7  C   UNL     1     -45.370  58.762 -53.923  1.00  0.00     0.039 A 
ENDROOT
BRANCH   1   8
HETATM    8  N   UNL     1     -44.553  57.652 -55.973  1.00  0.00    -0.333 N 
HETATM    9  H   UNL     1     -45.441  57.743 -56.460  1.00  0.00     0.168 HD
BRANCH   8  10
HETATM   10  C   UNL     1     -43.485  57.548 -56.841  1.00  0.00     0.179 C 
HETATM   11  S   UNL     1     -43.025  56.006 -57.285  1.00  0.00    -0.040 SA
BRANCH  10  12
HETATM   12  N   UNL     1     -42.988  58.745 -57.333  1.00  0.00    -0.299 N 
HETATM   13  C   UNL     1     -42.143  59.721 -56.822  1.00  0.00     0.257 C 
HETATM   14  O   UNL     1     -41.303  60.219 -57.573  1.00  0.00    -0.267 OA
HETATM   15  H   UNL     1     -42.771  58.668 -58.319  1.00  0.00     0.171 HD
BRANCH  13  16
HETATM   16  C   UNL     1     -42.191  60.167 -55.415  1.00  0.00     0.032 A 
HETATM   17  C   UNL     1     -43.043  61.238 -55.115  1.00  0.00     0.020 A 
HETATM   18  C   UNL     1     -43.231  61.645 -53.793  1.00  0.00     0.038 A 
HETATM   19  C   UNL     1     -42.589  60.968 -52.757  1.00  0.00     0.068 A 
HETATM   20  C   UNL     1     -41.727  59.908 -53.060  1.00  0.00     0.038 A 
HETATM   21  C   UNL     1     -41.532  59.495 -54.386  1.00  0.00     0.020 A 
BRANCH  19  22
HETATM   22  O   UNL     1     -42.736  61.244 -51.423  1.00  0.00    -0.351 OA
BRANCH  22  23
HETATM   23  C   UNL     1     -43.158  62.571 -51.093  1.00  0.00     0.175 C 
BRANCH  23  24
HETATM   24  C   UNL     1     -44.465  62.511 -50.307  1.00  0.00     0.022 C 
HETATM   25  C   UNL     1     -44.304  63.023 -48.882  1.00  0.00     0.007 C 
ENDBRANCH  23  24
ENDBRANCH  22  23
ENDBRANCH  19  22
ENDBRANCH  13  16
ENDBRANCH  10  12
ENDBRANCH   8  10
ENDBRANCH   1   8
BRANCH   3  26
HETATM   26  C   UNL     1     -43.023  55.964 -51.679  1.00  0.00     0.112 A 
HETATM   27  S   UNL     1     -42.642  54.445 -52.393  1.00  0.00    -0.067 SA
HETATM   28  C   UNL     1     -41.720  54.011 -51.008  1.00  0.00     0.035 A 
HETATM   29  C   UNL     1     -41.806  55.039 -50.069  1.00  0.00     0.075 A 
HETATM   30  C   UNL     1     -40.973  52.846 -50.769  1.00  0.00     0.021 A 
HETATM   31  N   UNL     1     -42.568  56.129 -50.454  1.00  0.00    -0.239 NA
HETATM   32  C   UNL     1     -41.124  54.896 -48.844  1.00  0.00     0.033 A 
HETATM   33  C   UNL     1     -40.373  53.741 -48.595  1.00  0.00     0.002 A 
HETATM   34  C   UNL     1     -40.299  52.731 -49.549  1.00  0.00     0.002 A 
ENDBRANCH   3  26
BRANCH   4  35
HETATM   35  O   UNL     1     -44.813  57.987 -50.408  1.00  0.00    -0.359 OA
HETATM   36  H   UNL     1     -45.272  58.810 -50.172  1.00  0.00     0.218 HD
ENDBRANCH   4  35
TORSDOF 9
ENDMDL
MODEL 8
REMARK VINA RESULT:      -7.0      2.312      5.303
REMARK  9 active torsions:
REMARK  status: ('A' for Active; 'I' for Inactive)
REMARK    1  A    between atoms: C_2  and  C_3 
REMARK    2  A    between atoms: C_3  and  O_4 
REMARK    3  A    between atoms: O_4  and  C_5 
REMARK    4  A    between atoms: C_8  and  C_9 
REMARK       I    between atoms: C_9  and  N_10 
REMARK    5  A    between atoms: N_10  and  C_11 
REMARK    6  A    between atoms: C_11  and  N_12 
REMARK    7  A    between atoms: N_12  and  C_13 
REMARK    8  A    between atoms: C_15  and  C_16 
REMARK    9  A    between atoms: C_25  and  O_26 
ROOT
HETATM    1  C   UNL     1     -41.570  56.461 -51.481  1.00  0.00     0.035 A 
HETATM    2  C   UNL     1     -41.850  56.723 -52.827  1.00  0.00     0.046 A 
HETATM    3  C   UNL     1     -41.715  55.727 -53.816  1.00  0.00     0.036 A 
HETATM    4  C   UNL     1     -41.271  54.454 -53.416  1.00  0.00     0.084 A 
HETATM    5  C   UNL     1     -40.943  54.188 -52.077  1.00  0.00    -0.026 A 
HETATM    6  C   UNL     1     -40.415  52.844 -51.654  1.00  0.00     0.051 C 
HETATM    7  C   UNL     1     -41.073  55.207 -51.124  1.00  0.00     0.039 A 
ENDROOT
BRANCH   1   8
HETATM    8  N   UNL     1     -41.798  57.500 -50.554  1.00  0.00    -0.333 N 
HETATM    9  H   UNL     1     -42.219  57.227 -49.670  1.00  0.00     0.168 HD
BRANCH   8  10
HETATM   10  C   UNL     1     -41.414  58.825 -50.566  1.00  0.00     0.179 C 
HETATM   11  S   UNL     1     -39.826  59.145 -50.969  1.00  0.00    -0.040 SA
BRANCH  10  12
HETATM   12  N   UNL     1     -42.425  59.749 -50.352  1.00  0.00    -0.299 N 
HETATM   13  C   UNL     1     -43.691  59.936 -50.892  1.00  0.00     0.257 C 
HETATM   14  O   UNL     1     -44.609  60.253 -50.135  1.00  0.00    -0.267 OA
HETATM   15  H   UNL     1     -42.497  59.987 -49.371  1.00  0.00     0.171 HD
BRANCH  13  16
HETATM   16  C   UNL     1     -43.987  59.745 -52.327  1.00  0.00     0.032 A 
HETATM   17  C   UNL     1     -44.710  58.599 -52.681  1.00  0.00     0.020 A 
HETATM   18  C   UNL     1     -45.128  58.403 -53.998  1.00  0.00     0.038 A 
HETATM   19  C   UNL     1     -44.850  59.365 -54.969  1.00  0.00     0.068 A 
HETATM   20  C   UNL     1     -44.115  60.503 -54.616  1.00  0.00     0.038 A 
HETATM   21  C   UNL     1     -43.690  60.705 -53.295  1.00  0.00     0.020 A 
BRANCH  19  22
HETATM   22  O   UNL     1     -45.250  59.306 -56.277  1.00  0.00    -0.351 OA
BRANCH  22  23
HETATM   23  C   UNL     1     -45.948  58.122 -56.674  1.00  0.00     0.175 C 
BRANCH  23  24
HETATM   24  C   UNL     1     -47.051  58.485 -57.664  1.00  0.00     0.022 C 
HETATM   25  C   UNL     1     -46.796  57.906 -59.049  1.00  0.00     0.007 C 
ENDBRANCH  23  24
ENDBRANCH  22  23
ENDBRANCH  19  22
ENDBRANCH  13  16
ENDBRANCH  10  12
ENDBRANCH   8  10
ENDBRANCH   1   8
BRANCH   3  26
HETATM   26  C   UNL     1     -42.116  56.074 -55.190  1.00  0.00     0.112 A 
HETATM   27  S   UNL     1     -41.882  57.659 -55.818  1.00  0.00    -0.067 SA
HETATM   28  C   UNL     1     -42.513  57.162 -57.339  1.00  0.00     0.035 A 
HETATM   29  C   UNL     1     -42.907  55.827 -57.250  1.00  0.00     0.075 A 
HETATM   30  C   UNL     1     -42.649  57.900 -58.527  1.00  0.00     0.021 A 
HETATM   31  N   UNL     1     -42.697  55.230 -56.018  1.00  0.00    -0.239 NA
HETATM   32  C   UNL     1     -43.461  55.207 -58.388  1.00  0.00     0.033 A 
HETATM   33  C   UNL     1     -43.598  55.930 -59.578  1.00  0.00     0.002 A 
HETATM   34  C   UNL     1     -43.194  57.260 -59.644  1.00  0.00     0.002 A 
ENDBRANCH   3  26
BRANCH   4  35
HETATM   35  O   UNL     1     -41.159  53.396 -54.282  1.00  0.00    -0.359 OA
HETATM   36  H   UNL     1     -41.902  52.783 -54.155  1.00  0.00     0.218 HD
ENDBRANCH   4  35
TORSDOF 9
ENDMDL
MODEL 9
REMARK VINA RESULT:      -6.9      4.125      8.440
REMARK  9 active torsions:
REMARK  status: ('A' for Active; 'I' for Inactive)
REMARK    1  A    between atoms: C_2  and  C_3 
REMARK    2  A    between atoms: C_3  and  O_4 
REMARK    3  A    between atoms: O_4  and  C_5 
REMARK    4  A    between atoms: C_8  and  C_9 
REMARK       I    between atoms: C_9  and  N_10 
REMARK    5  A    between atoms: N_10  and  C_11 
REMARK    6  A    between atoms: C_11  and  N_12 
REMARK    7  A    between atoms: N_12  and  C_13 
REMARK    8  A    between atoms: C_15  and  C_16 
REMARK    9  A    between atoms: C_25  and  O_26 
ROOT
HETATM    1  C   UNL     1     -42.931  59.692 -52.696  1.00  0.00     0.035 A 
HETATM    2  C   UNL     1     -42.256  58.466 -52.732  1.00  0.00     0.046 A 
HETATM    3  C   UNL     1     -42.774  57.320 -52.096  1.00  0.00     0.036 A 
HETATM    4  C   UNL     1     -43.991  57.441 -51.401  1.00  0.00     0.084 A 
HETATM    5  C   UNL     1     -44.657  58.674 -51.316  1.00  0.00    -0.026 A 
HETATM    6  C   UNL     1     -45.930  58.822 -50.528  1.00  0.00     0.051 C 
HETATM    7  C   UNL     1     -44.104  59.797 -51.948  1.00  0.00     0.039 A 
ENDROOT
BRANCH   1   8
HETATM    8  N   UNL     1     -42.370  60.766 -53.418  1.00  0.00    -0.333 N 
HETATM    9  H   UNL     1     -41.359  60.856 -53.373  1.00  0.00     0.168 HD
BRANCH   8  10
HETATM   10  C   UNL     1     -42.939  61.652 -54.310  1.00  0.00     0.179 C 
HETATM   11  S   UNL     1     -43.615  61.001 -55.690  1.00  0.00    -0.040 SA
BRANCH  10  12
HETATM   12  N   UNL     1     -42.982  62.977 -53.901  1.00  0.00    -0.299 N 
HETATM   13  C   UNL     1     -43.170  63.602 -52.676  1.00  0.00     0.257 C 
HETATM   14  O   UNL     1     -42.481  64.588 -52.411  1.00  0.00    -0.267 OA
HETATM   15  H   UNL     1     -42.302  63.534 -54.404  1.00  0.00     0.171 HD
BRANCH  13  16
HETATM   16  C   UNL     1     -44.138  63.121 -51.669  1.00  0.00     0.032 A 
HETATM   17  C   UNL     1     -43.662  62.938 -50.364  1.00  0.00     0.020 A 
HETATM   18  C   UNL     1     -44.537  62.595 -49.332  1.00  0.00     0.038 A 
HETATM   19  C   UNL     1     -45.900  62.458 -49.590  1.00  0.00     0.068 A 
HETATM   20  C   UNL     1     -46.372  62.627 -50.898  1.00  0.00     0.038 A 
HETATM   21  C   UNL     1     -45.498  62.969 -51.940  1.00  0.00     0.020 A 
BRANCH  19  22
HETATM   22  O   UNL     1     -46.858  62.175 -48.652  1.00  0.00    -0.351 OA
BRANCH  22  23
HETATM   23  C   UNL     1     -46.457  62.290 -47.284  1.00  0.00     0.175 C 
BRANCH  23  24
HETATM   24  C   UNL     1     -46.102  60.910 -46.736  1.00  0.00     0.022 C 
HETATM   25  C   UNL     1     -44.818  60.928 -45.917  1.00  0.00     0.007 C 
ENDBRANCH  23  24
ENDBRANCH  22  23
ENDBRANCH  19  22
ENDBRANCH  13  16
ENDBRANCH  10  12
ENDBRANCH   8  10
ENDBRANCH   1   8
BRANCH   3  26
HETATM   26  C   UNL     1     -42.036  56.056 -52.263  1.00  0.00     0.112 A 
HETATM   27  S   UNL     1     -41.252  55.295 -50.933  1.00  0.00    -0.067 SA
HETATM   28  C   UNL     1     -40.767  53.994 -51.948  1.00  0.00     0.035 A 
HETATM   29  C   UNL     1     -41.196  54.253 -53.249  1.00  0.00     0.075 A 
HETATM   30  C   UNL     1     -40.059  52.827 -51.617  1.00  0.00     0.021 A 
HETATM   31  N   UNL     1     -41.893  55.438 -53.417  1.00  0.00    -0.239 NA
HETATM   32  C   UNL     1     -40.903  53.314 -54.259  1.00  0.00     0.033 A 
HETATM   33  C   UNL     1     -40.202  52.146 -53.941  1.00  0.00     0.002 A 
HETATM   34  C   UNL     1     -39.788  51.907 -52.634  1.00  0.00     0.002 A 
ENDBRANCH   3  26
BRANCH   4  35
HETATM   35  O   UNL     1     -44.615  56.381 -50.794  1.00  0.00    -0.359 OA
HETATM   36  H   UNL     1     -44.692  55.641 -51.418  1.00  0.00     0.218 HD
ENDBRANCH   4  35
TORSDOF 9
ENDMDL
MODEL 10
REMARK VINA RESULT:      -6.8      3.209      8.012
REMARK  9 active torsions:
REMARK  status: ('A' for Active; 'I' for Inactive)
REMARK    1  A    between atoms: C_2  and  C_3 
REMARK    2  A    between atoms: C_3  and  O_4 
REMARK    3  A    between atoms: O_4  and  C_5 
REMARK    4  A    between atoms: C_8  and  C_9 
REMARK       I    between atoms: C_9  and  N_10 
REMARK    5  A    between atoms: N_10  and  C_11 
REMARK    6  A    between atoms: C_11  and  N_12 
REMARK    7  A    between atoms: N_12  and  C_13 
REMARK    8  A    between atoms: C_15  and  C_16 
REMARK    9  A    between atoms: C_25  and  O_26 
ROOT
HETATM    1  C   UNL     1     -44.368  57.755 -54.546  1.00  0.00     0.035 A 
HETATM    2  C   UNL     1     -43.492  56.669 -54.437  1.00  0.00     0.046 A 
HETATM    3  C   UNL     1     -43.236  56.049 -53.197  1.00  0.00     0.036 A 
HETATM    4  C   UNL     1     -43.874  56.565 -52.055  1.00  0.00     0.084 A 
HETATM    5  C   UNL     1     -44.719  57.683 -52.140  1.00  0.00    -0.026 A 
HETATM    6  C   UNL     1     -45.361  58.272 -50.913  1.00  0.00     0.051 C 
HETATM    7  C   UNL     1     -44.939  58.283 -53.388  1.00  0.00     0.039 A 
ENDROOT
BRANCH   1   8
HETATM    8  N   UNL     1     -44.615  58.267 -55.837  1.00  0.00    -0.333 N 
HETATM    9  H   UNL     1     -45.576  58.211 -56.165  1.00  0.00     0.168 HD
BRANCH   8  10
HETATM   10  C   UNL     1     -43.805  58.976 -56.700  1.00  0.00     0.179 C 
HETATM   11  S   UNL     1     -42.740  58.091 -57.632  1.00  0.00    -0.040 SA
BRANCH  10  12
HETATM   12  N   UNL     1     -44.048  60.339 -56.774  1.00  0.00    -0.299 N 
HETATM   13  C   UNL     1     -43.608  61.438 -56.049  1.00  0.00     0.257 C 
HETATM   14  O   UNL     1     -43.330  62.470 -56.662  1.00  0.00    -0.267 OA
HETATM   15  H   UNL     1     -44.118  60.643 -57.737  1.00  0.00     0.171 HD
BRANCH  13  16
HETATM   16  C   UNL     1     -43.434  61.415 -54.582  1.00  0.00     0.032 A 
HETATM   17  C   UNL     1     -44.454  61.986 -53.810  1.00  0.00     0.020 A 
HETATM   18  C   UNL     1     -44.419  61.903 -52.417  1.00  0.00     0.038 A 
HETATM   19  C   UNL     1     -43.378  61.225 -51.784  1.00  0.00     0.068 A 
HETATM   20  C   UNL     1     -42.352  60.668 -52.557  1.00  0.00     0.038 A 
HETATM   21  C   UNL     1     -42.379  60.749 -53.956  1.00  0.00     0.020 A 
BRANCH  19  22
HETATM   22  O   UNL     1     -43.265  61.037 -50.432  1.00  0.00    -0.351 OA
BRANCH  22  23
HETATM   23  C   UNL     1     -43.948  61.980 -49.601  1.00  0.00     0.175 C 
BRANCH  23  24
HETATM   24  C   UNL     1     -45.046  61.269 -48.815  1.00  0.00     0.022 C 
HETATM   25  C   UNL     1     -44.786  61.290 -47.315  1.00  0.00     0.007 C 
ENDBRANCH  23  24
ENDBRANCH  22  23
ENDBRANCH  19  22
ENDBRANCH  13  16
ENDBRANCH  10  12
ENDBRANCH   8  10
ENDBRANCH   1   8
BRANCH   3  26
HETATM   26  C   UNL     1     -42.367  54.860 -53.197  1.00  0.00     0.112 A 
HETATM   27  S   UNL     1     -42.184  53.885 -54.603  1.00  0.00    -0.067 SA
HETATM   28  C   UNL     1     -41.059  52.881 -53.775  1.00  0.00     0.035 A 
HETATM   29  C   UNL     1     -40.936  53.330 -52.461  1.00  0.00     0.075 A 
HETATM   30  C   UNL     1     -40.337  51.775 -54.254  1.00  0.00     0.021 A 
HETATM   31  N   UNL     1     -41.702  54.439 -52.141  1.00  0.00    -0.239 NA
HETATM   32  C   UNL     1     -40.062  52.648 -51.591  1.00  0.00     0.033 A 
HETATM   33  C   UNL     1     -39.334  51.548 -52.057  1.00  0.00     0.002 A 
HETATM   34  C   UNL     1     -39.470  51.120 -53.374  1.00  0.00     0.002 A 
ENDBRANCH   3  26
BRANCH   4  35
HETATM   35  O   UNL     1     -43.742  56.008 -50.809  1.00  0.00    -0.359 OA
HETATM   36  H   UNL     1     -44.094  56.614 -50.135  1.00  0.00     0.218 HD
ENDBRANCH   4  35
TORSDOF 9
ENDMDL
