MODEL 1
REMARK VINA RESULT:      -7.5      0.000      0.000
REMARK  9 active torsions:
REMARK  status: ('A' for Active; 'I' for Inactive)
REMARK    1  A    between atoms: C_2  and  N_3 
REMARK    2  A    between atoms: N_3  and  C_5 
REMARK    3  A    between atoms: N_3  and  C_30 
REMARK    4  A    between atoms: C_5  and  C_6 
REMARK    5  A    between atoms: C_5  and  C_14 
REMARK    6  A    between atoms: C_8  and  O_9 
REMARK    7  A    between atoms: C_14  and  N_15 
REMARK       I    between atoms: N_15  and  C_16 
REMARK    8  A    between atoms: C_16  and  C_17 
REMARK    9  A    between atoms: C_18  and  N_19 
ROOT
HETATM    1  C   UNL     1     -42.735  55.231 -56.942  1.00  0.00     0.161 C 
ENDROOT
BRANCH   1   2
HETATM    2  C   UNL     1     -43.278  56.628 -57.407  1.00  0.00     0.238 C 
BRANCH   2   3
HETATM    3  N   UNL     1     -44.381  56.496 -58.473  1.00  0.00    -0.062 N 
HETATM    4  H   UNL     1     -45.081  55.929 -57.955  1.00  0.00     0.280 HD
BRANCH   3   5
HETATM    5  C   UNL     1     -43.976  55.661 -59.673  1.00  0.00     0.231 C 
HETATM    6  C   UNL     1     -44.891  54.467 -59.871  1.00  0.00     0.034 C 
ENDBRANCH   3   5
BRANCH   3   7
HETATM    7  C   UNL     1     -45.035  57.791 -58.884  1.00  0.00     0.231 C 
HETATM    8  C   UNL     1     -46.547  57.676 -58.829  1.00  0.00     0.034 C 
ENDBRANCH   3   7
ENDBRANCH   2   3
BRANCH   2   9
HETATM    9  C   UNL     1     -43.622  57.536 -56.235  1.00  0.00    -0.023 A 
HETATM   10  C   UNL     1     -42.724  58.564 -55.876  1.00  0.00     0.046 A 
HETATM   11  C   UNL     1     -43.003  59.425 -54.813  1.00  0.00     0.068 A 
HETATM   12  C   UNL     1     -44.200  59.281 -54.114  1.00  0.00     0.037 A 
HETATM   13  C   UNL     1     -45.095  58.266 -54.444  1.00  0.00     0.003 A 
HETATM   14  C   UNL     1     -44.806  57.394 -55.493  1.00  0.00     0.009 A 
BRANCH  11  15
HETATM   15  O   UNL     1     -42.207  60.449 -54.387  1.00  0.00    -0.356 OA
HETATM   16  C   UNL     1     -42.548  61.058 -53.148  1.00  0.00     0.210 C 
ENDBRANCH  11  15
ENDBRANCH   2   9
ENDBRANCH   1   2
BRANCH   1  17
HETATM   17  N   UNL     1     -42.036  55.143 -55.654  1.00  0.00    -0.354 N 
HETATM   18  C   UNL     1     -42.547  54.411 -54.593  1.00  0.00     0.253 C 
HETATM   19  O   UNL     1     -43.759  54.318 -54.437  1.00  0.00    -0.268 OA
HETATM   20  H   UNL     1     -41.022  55.187 -55.707  1.00  0.00     0.162 HD
BRANCH  18  21
HETATM   21  C   UNL     1     -41.544  53.748 -53.707  1.00  0.00     0.059 A 
HETATM   22  C   UNL     1     -41.246  54.177 -52.391  1.00  0.00     0.046 A 
HETATM   23  C   UNL     1     -40.396  53.322 -51.655  1.00  0.00     0.031 A 
HETATM   24  C   UNL     1     -39.837  52.151 -52.185  1.00  0.00     0.009 A 
HETATM   25  C   UNL     1     -40.119  51.763 -53.487  1.00  0.00    -0.061 A 
HETATM   26  C   UNL     1     -39.568  50.483 -54.041  1.00  0.00     0.048 C 
HETATM   27  C   UNL     1     -40.996  52.550 -54.231  1.00  0.00     0.026 A 
BRANCH  22  28
HETATM   28  N   UNL     1     -41.728  55.336 -51.800  1.00  0.00    -0.380 N 
HETATM   29  C   UNL     1     -42.988  55.378 -51.059  1.00  0.00     0.123 C 
HETATM   30  C   UNL     1     -43.488  56.814 -51.215  1.00  0.00     0.021 C 
HETATM   31  C   UNL     1     -42.205  57.605 -51.396  1.00  0.00     0.021 C 
HETATM   32  C   UNL     1     -41.389  56.680 -52.290  1.00  0.00     0.123 C 
ENDBRANCH  22  28
ENDBRANCH  18  21
ENDBRANCH   1  17
TORSDOF 9
ENDMDL
MODEL 2
REMARK VINA RESULT:      -7.5      1.285      1.578
REMARK  9 active torsions:
REMARK  status: ('A' for Active; 'I' for Inactive)
REMARK    1  A    between atoms: C_2  and  N_3 
REMARK    2  A    between atoms: N_3  and  C_5 
REMARK    3  A    between atoms: N_3  and  C_30 
REMARK    4  A    between atoms: C_5  and  C_6 
REMARK    5  A    between atoms: C_5  and  C_14 
REMARK    6  A    between atoms: C_8  and  O_9 
REMARK    7  A    between atoms: C_14  and  N_15 
REMARK       I    between atoms: N_15  and  C_16 
REMARK    8  A    between atoms: C_16  and  C_17 
REMARK    9  A    between atoms: C_18  and  N_19 
ROOT
HETATM    1  C   UNL     1     -42.597  55.059 -56.304  1.00  0.00     0.161 C 
ENDROOT
BRANCH   1   2
HETATM    2  C   UNL     1     -42.891  56.568 -56.617  1.00  0.00     0.238 C 
BRANCH   2   3
HETATM    3  N   UNL     1     -43.924  56.735 -57.747  1.00  0.00    -0.062 N 
HETATM    4  H   UNL     1     -44.793  56.448 -57.256  1.00  0.00     0.280 HD
BRANCH   3   5
HETATM    5  C   UNL     1     -43.747  55.751 -58.888  1.00  0.00     0.231 C 
HETATM    6  C   UNL     1     -42.715  56.226 -59.894  1.00  0.00     0.034 C 
ENDBRANCH   3   5
BRANCH   3   7
HETATM    7  C   UNL     1     -44.107  58.146 -58.245  1.00  0.00     0.231 C 
HETATM    8  C   UNL     1     -45.544  58.602 -58.066  1.00  0.00     0.034 C 
ENDBRANCH   3   7
ENDBRANCH   2   3
BRANCH   2   9
HETATM    9  C   UNL     1     -43.179  57.376 -55.360  1.00  0.00    -0.023 A 
HETATM   10  C   UNL     1     -42.191  58.257 -54.868  1.00  0.00     0.046 A 
HETATM   11  C   UNL     1     -42.416  59.022 -53.722  1.00  0.00     0.068 A 
HETATM   12  C   UNL     1     -43.645  58.934 -53.071  1.00  0.00     0.037 A 
HETATM   13  C   UNL     1     -44.629  58.062 -53.533  1.00  0.00     0.003 A 
HETATM   14  C   UNL     1     -44.396  57.283 -54.666  1.00  0.00     0.009 A 
BRANCH  11  15
HETATM   15  O   UNL     1     -41.533  59.903 -53.167  1.00  0.00    -0.356 OA
HETATM   16  C   UNL     1     -41.154  59.671 -51.816  1.00  0.00     0.210 C 
ENDBRANCH  11  15
ENDBRANCH   2   9
ENDBRANCH   1   2
BRANCH   1  17
HETATM   17  N   UNL     1     -41.702  54.736 -55.186  1.00  0.00    -0.354 N 
HETATM   18  C   UNL     1     -42.146  54.040 -54.072  1.00  0.00     0.253 C 
HETATM   19  O   UNL     1     -43.299  54.177 -53.681  1.00  0.00    -0.268 OA
HETATM   20  H   UNL     1     -40.729  54.583 -55.439  1.00  0.00     0.162 HD
BRANCH  18  21
HETATM   21  C   UNL     1     -41.155  53.126 -53.429  1.00  0.00     0.059 A 
HETATM   22  C   UNL     1     -40.759  53.218 -52.073  1.00  0.00     0.046 A 
HETATM   23  C   UNL     1     -39.944  52.161 -51.609  1.00  0.00     0.031 A 
HETATM   24  C   UNL     1     -39.506  51.111 -52.428  1.00  0.00     0.009 A 
HETATM   25  C   UNL     1     -39.882  51.055 -53.763  1.00  0.00    -0.061 A 
HETATM   26  C   UNL     1     -39.461  49.906 -54.630  1.00  0.00     0.048 C 
HETATM   27  C   UNL     1     -40.730  52.050 -54.248  1.00  0.00     0.026 A 
BRANCH  22  28
HETATM   28  N   UNL     1     -41.119  54.236 -51.202  1.00  0.00    -0.380 N 
HETATM   29  C   UNL     1     -41.120  55.645 -51.592  1.00  0.00     0.123 C 
HETATM   30  C   UNL     1     -40.851  56.411 -50.297  1.00  0.00     0.021 C 
HETATM   31  C   UNL     1     -41.412  55.488 -49.231  1.00  0.00     0.021 C 
HETATM   32  C   UNL     1     -40.982  54.119 -49.743  1.00  0.00     0.123 C 
ENDBRANCH  22  28
ENDBRANCH  18  21
ENDBRANCH   1  17
TORSDOF 9
ENDMDL
MODEL 3
REMARK VINA RESULT:      -7.4      1.839      6.773
REMARK  9 active torsions:
REMARK  status: ('A' for Active; 'I' for Inactive)
REMARK    1  A    between atoms: C_2  and  N_3 
REMARK    2  A    between atoms: N_3  and  C_5 
REMARK    3  A    between atoms: N_3  and  C_30 
REMARK    4  A    between atoms: C_5  and  C_6 
REMARK    5  A    between atoms: C_5  and  C_14 
REMARK    6  A    between atoms: C_8  and  O_9 
REMARK    7  A    between atoms: C_14  and  N_15 
REMARK       I    between atoms: N_15  and  C_16 
REMARK    8  A    between atoms: C_16  and  C_17 
REMARK    9  A    between atoms: C_18  and  N_19 
ROOT
HETATM    1  C   UNL     1     -40.613  54.148 -54.874  1.00  0.00     0.161 C 
ENDROOT
BRANCH   1   2
HETATM    2  C   UNL     1     -41.351  53.337 -53.752  1.00  0.00     0.238 C 
BRANCH   2   3
HETATM    3  N   UNL     1     -40.549  52.098 -53.309  1.00  0.00    -0.062 N 
HETATM    4  H   UNL     1     -41.316  51.485 -52.971  1.00  0.00     0.280 HD
BRANCH   3   5
HETATM    5  C   UNL     1     -39.653  52.346 -52.110  1.00  0.00     0.231 C 
HETATM    6  C   UNL     1     -40.075  51.525 -50.906  1.00  0.00     0.034 C 
ENDBRANCH   3   5
BRANCH   3   7
HETATM    7  C   UNL     1     -39.822  51.377 -54.416  1.00  0.00     0.231 C 
HETATM    8  C   UNL     1     -40.020  49.876 -54.306  1.00  0.00     0.034 C 
ENDBRANCH   3   7
ENDBRANCH   2   3
BRANCH   2   9
HETATM    9  C   UNL     1     -41.836  54.227 -52.617  1.00  0.00    -0.023 A 
HETATM   10  C   UNL     1     -41.052  55.336 -52.231  1.00  0.00     0.046 A 
HETATM   11  C   UNL     1     -41.463  56.184 -51.200  1.00  0.00     0.068 A 
HETATM   12  C   UNL     1     -42.678  55.944 -50.562  1.00  0.00     0.037 A 
HETATM   13  C   UNL     1     -43.461  54.849 -50.919  1.00  0.00     0.003 A 
HETATM   14  C   UNL     1     -43.041  53.991 -51.935  1.00  0.00     0.009 A 
BRANCH  11  15
HETATM   15  O   UNL     1     -40.784  57.281 -50.753  1.00  0.00    -0.356 OA
HETATM   16  C   UNL     1     -41.238  58.549 -51.209  1.00  0.00     0.210 C 
ENDBRANCH  11  15
ENDBRANCH   2   9
ENDBRANCH   1   2
BRANCH   1  17
HETATM   17  N   UNL     1     -41.253  55.359 -55.401  1.00  0.00    -0.354 N 
HETATM   18  C   UNL     1     -42.586  55.374 -55.785  1.00  0.00     0.253 C 
HETATM   19  O   UNL     1     -43.100  54.368 -56.260  1.00  0.00    -0.268 OA
HETATM   20  H   UNL     1     -40.896  56.235 -55.030  1.00  0.00     0.162 HD
BRANCH  18  21
HETATM   21  C   UNL     1     -43.323  56.652 -55.556  1.00  0.00     0.059 A 
HETATM   22  C   UNL     1     -43.734  57.524 -56.594  1.00  0.00     0.046 A 
HETATM   23  C   UNL     1     -44.565  58.593 -56.190  1.00  0.00     0.031 A 
HETATM   24  C   UNL     1     -44.930  58.822 -54.857  1.00  0.00     0.009 A 
HETATM   25  C   UNL     1     -44.494  57.972 -53.851  1.00  0.00    -0.061 A 
HETATM   26  C   UNL     1     -44.927  58.180 -52.430  1.00  0.00     0.048 C 
HETATM   27  C   UNL     1     -43.716  56.873 -54.212  1.00  0.00     0.026 A 
BRANCH  22  28
HETATM   28  N   UNL     1     -43.393  57.391 -57.932  1.00  0.00    -0.380 N 
HETATM   29  C   UNL     1     -44.015  56.402 -58.811  1.00  0.00     0.123 C 
HETATM   30  C   UNL     1     -42.952  56.085 -59.862  1.00  0.00     0.021 C 
HETATM   31  C   UNL     1     -42.143  57.368 -59.925  1.00  0.00     0.021 C 
HETATM   32  C   UNL     1     -42.073  57.768 -58.457  1.00  0.00     0.123 C 
ENDBRANCH  22  28
ENDBRANCH  18  21
ENDBRANCH   1  17
TORSDOF 9
ENDMDL
MODEL 4
REMARK VINA RESULT:      -7.3      2.100      7.725
REMARK  9 active torsions:
REMARK  status: ('A' for Active; 'I' for Inactive)
REMARK    1  A    between atoms: C_2  and  N_3 
REMARK    2  A    between atoms: N_3  and  C_5 
REMARK    3  A    between atoms: N_3  and  C_30 
REMARK    4  A    between atoms: C_5  and  C_6 
REMARK    5  A    between atoms: C_5  and  C_14 
REMARK    6  A    between atoms: C_8  and  O_9 
REMARK    7  A    between atoms: C_14  and  N_15 
REMARK       I    between atoms: N_15  and  C_16 
REMARK    8  A    between atoms: C_16  and  C_17 
REMARK    9  A    between atoms: C_18  and  N_19 
ROOT
HETATM    1  C   UNL     1     -43.266  55.795 -54.866  1.00  0.00     0.161 C 
ENDROOT
BRANCH   1   2
HETATM    2  C   UNL     1     -41.901  55.973 -54.113  1.00  0.00     0.238 C 
BRANCH   2   3
HETATM    3  N   UNL     1     -42.023  56.927 -52.910  1.00  0.00    -0.062 N 
HETATM    4  H   UNL     1     -41.769  56.287 -52.132  1.00  0.00     0.280 HD
BRANCH   3   5
HETATM    5  C   UNL     1     -43.444  57.380 -52.630  1.00  0.00     0.231 C 
HETATM    6  C   UNL     1     -43.931  56.915 -51.271  1.00  0.00     0.034 C 
ENDBRANCH   3   5
BRANCH   3   7
HETATM    7  C   UNL     1     -41.053  58.082 -52.907  1.00  0.00     0.231 C 
HETATM    8  C   UNL     1     -41.442  59.118 -53.945  1.00  0.00     0.034 C 
ENDBRANCH   3   7
ENDBRANCH   2   3
BRANCH   2   9
HETATM    9  C   UNL     1     -41.228  54.642 -53.812  1.00  0.00    -0.023 A 
HETATM   10  C   UNL     1     -40.973  54.290 -52.468  1.00  0.00     0.046 A 
HETATM   11  C   UNL     1     -40.365  53.076 -52.146  1.00  0.00     0.068 A 
HETATM   12  C   UNL     1     -40.028  52.187 -53.166  1.00  0.00     0.037 A 
HETATM   13  C   UNL     1     -40.260  52.520 -54.498  1.00  0.00     0.003 A 
HETATM   14  C   UNL     1     -40.850  53.742 -54.821  1.00  0.00     0.009 A 
BRANCH  11  15
HETATM   15  O   UNL     1     -40.078  52.639 -50.884  1.00  0.00    -0.356 OA
HETATM   16  C   UNL     1     -40.430  53.499 -49.808  1.00  0.00     0.210 C 
ENDBRANCH  11  15
ENDBRANCH   2   9
ENDBRANCH   1   2
BRANCH   1  17
HETATM   17  N   UNL     1     -43.366  56.259 -56.255  1.00  0.00    -0.354 N 
HETATM   18  C   UNL     1     -43.884  57.505 -56.575  1.00  0.00     0.253 C 
HETATM   19  O   UNL     1     -44.771  57.997 -55.887  1.00  0.00    -0.268 OA
HETATM   20  H   UNL     1     -42.645  55.911 -56.882  1.00  0.00     0.162 HD
BRANCH  18  21
HETATM   21  C   UNL     1     -43.280  58.184 -57.760  1.00  0.00     0.059 A 
HETATM   22  C   UNL     1     -43.606  57.871 -59.101  1.00  0.00     0.046 A 
HETATM   23  C   UNL     1     -43.058  58.737 -60.074  1.00  0.00     0.031 A 
HETATM   24  C   UNL     1     -42.211  59.808 -59.760  1.00  0.00     0.009 A 
HETATM   25  C   UNL     1     -41.881  60.082 -58.440  1.00  0.00    -0.061 A 
HETATM   26  C   UNL     1     -41.020  61.260 -58.093  1.00  0.00     0.048 C 
HETATM   27  C   UNL     1     -42.444  59.284 -57.444  1.00  0.00     0.026 A 
BRANCH  22  28
HETATM   28  N   UNL     1     -44.408  56.813 -59.504  1.00  0.00    -0.380 N 
HETATM   29  C   UNL     1     -43.862  55.526 -59.931  1.00  0.00     0.123 C 
HETATM   30  C   UNL     1     -44.892  54.967 -60.912  1.00  0.00     0.021 C 
HETATM   31  C   UNL     1     -46.191  55.591 -60.436  1.00  0.00     0.021 C 
HETATM   32  C   UNL     1     -45.748  57.004 -60.078  1.00  0.00     0.123 C 
ENDBRANCH  22  28
ENDBRANCH  18  21
ENDBRANCH   1  17
TORSDOF 9
ENDMDL
MODEL 5
REMARK VINA RESULT:      -7.1      1.777      3.840
REMARK  9 active torsions:
REMARK  status: ('A' for Active; 'I' for Inactive)
REMARK    1  A    between atoms: C_2  and  N_3 
REMARK    2  A    between atoms: N_3  and  C_5 
REMARK    3  A    between atoms: N_3  and  C_30 
REMARK    4  A    between atoms: C_5  and  C_6 
REMARK    5  A    between atoms: C_5  and  C_14 
REMARK    6  A    between atoms: C_8  and  O_9 
REMARK    7  A    between atoms: C_14  and  N_15 
REMARK       I    between atoms: N_15  and  C_16 
REMARK    8  A    between atoms: C_16  and  C_17 
REMARK    9  A    between atoms: C_18  and  N_19 
ROOT
HETATM    1  C   UNL     1     -42.710  56.108 -56.830  1.00  0.00     0.161 C 
ENDROOT
BRANCH   1   2
HETATM    2  C   UNL     1     -43.309  57.535 -57.087  1.00  0.00     0.238 C 
BRANCH   2   3
HETATM    3  N   UNL     1     -42.255  58.515 -57.637  1.00  0.00    -0.062 N 
HETATM    4  H   UNL     1     -41.389  57.956 -57.509  1.00  0.00     0.280 HD
BRANCH   3   5
HETATM    5  C   UNL     1     -42.077  59.761 -56.789  1.00  0.00     0.231 C 
HETATM    6  C   UNL     1     -42.110  59.447 -55.305  1.00  0.00     0.034 C 
ENDBRANCH   3   5
BRANCH   3   7
HETATM    7  C   UNL     1     -42.391  58.846 -59.102  1.00  0.00     0.231 C 
HETATM    8  C   UNL     1     -41.592  57.877 -59.953  1.00  0.00     0.034 C 
ENDBRANCH   3   7
ENDBRANCH   2   3
BRANCH   2   9
HETATM    9  C   UNL     1     -44.611  57.484 -57.873  1.00  0.00    -0.023 A 
HETATM   10  C   UNL     1     -44.721  56.594 -58.964  1.00  0.00     0.046 A 
HETATM   11  C   UNL     1     -45.899  56.509 -59.707  1.00  0.00     0.068 A 
HETATM   12  C   UNL     1     -46.992  57.297 -59.349  1.00  0.00     0.037 A 
HETATM   13  C   UNL     1     -46.901  58.190 -58.284  1.00  0.00     0.003 A 
HETATM   14  C   UNL     1     -45.717  58.289 -57.554  1.00  0.00     0.009 A 
BRANCH  11  15
HETATM   15  O   UNL     1     -46.110  55.684 -60.774  1.00  0.00    -0.356 OA
HETATM   16  C   UNL     1     -45.004  54.909 -61.219  1.00  0.00     0.210 C 
ENDBRANCH  11  15
ENDBRANCH   2   9
ENDBRANCH   1   2
BRANCH   1  17
HETATM   17  N   UNL     1     -42.150  55.810 -55.506  1.00  0.00    -0.354 N 
HETATM   18  C   UNL     1     -42.675  54.811 -54.699  1.00  0.00     0.253 C 
HETATM   19  O   UNL     1     -43.874  54.561 -54.732  1.00  0.00    -0.268 OA
HETATM   20  H   UNL     1     -41.151  55.969 -55.411  1.00  0.00     0.162 HD
BRANCH  18  21
HETATM   21  C   UNL     1     -41.697  54.077 -53.842  1.00  0.00     0.059 A 
HETATM   22  C   UNL     1     -41.380  54.444 -52.512  1.00  0.00     0.046 A 
HETATM   23  C   UNL     1     -40.564  53.528 -51.811  1.00  0.00     0.031 A 
HETATM   24  C   UNL     1     -40.053  52.357 -52.386  1.00  0.00     0.009 A 
HETATM   25  C   UNL     1     -40.352  52.029 -53.701  1.00  0.00    -0.061 A 
HETATM   26  C   UNL     1     -39.853  50.750 -54.305  1.00  0.00     0.048 C 
HETATM   27  C   UNL     1     -41.199  52.879 -54.412  1.00  0.00     0.026 A 
BRANCH  22  28
HETATM   28  N   UNL     1     -41.815  55.598 -51.875  1.00  0.00    -0.380 N 
HETATM   29  C   UNL     1     -43.158  55.730 -51.313  1.00  0.00     0.123 C 
HETATM   30  C   UNL     1     -43.470  57.224 -51.388  1.00  0.00     0.021 C 
HETATM   31  C   UNL     1     -42.096  57.864 -51.309  1.00  0.00     0.021 C 
HETATM   32  C   UNL     1     -41.263  56.927 -52.174  1.00  0.00     0.123 C 
ENDBRANCH  22  28
ENDBRANCH  18  21
ENDBRANCH   1  17
TORSDOF 9
ENDMDL
MODEL 6
REMARK VINA RESULT:      -7.1      2.098      4.055
REMARK  9 active torsions:
REMARK  status: ('A' for Active; 'I' for Inactive)
REMARK    1  A    between atoms: C_2  and  N_3 
REMARK    2  A    between atoms: N_3  and  C_5 
REMARK    3  A    between atoms: N_3  and  C_30 
REMARK    4  A    between atoms: C_5  and  C_6 
REMARK    5  A    between atoms: C_5  and  C_14 
REMARK    6  A    between atoms: C_8  and  O_9 
REMARK    7  A    between atoms: C_14  and  N_15 
REMARK       I    between atoms: N_15  and  C_16 
REMARK    8  A    between atoms: C_16  and  C_17 
REMARK    9  A    between atoms: C_18  and  N_19 
ROOT
HETATM    1  C   UNL     1     -41.671  56.179 -55.067  1.00  0.00     0.161 C 
ENDROOT
BRANCH   1   2
HETATM    2  C   UNL     1     -43.060  56.883 -54.874  1.00  0.00     0.238 C 
BRANCH   2   3
HETATM    3  N   UNL     1     -43.003  57.996 -53.811  1.00  0.00    -0.062 N 
HETATM    4  H   UNL     1     -43.830  58.563 -54.084  1.00  0.00     0.280 HD
BRANCH   3   5
HETATM    5  C   UNL     1     -41.803  58.914 -53.950  1.00  0.00     0.231 C 
HETATM    6  C   UNL     1     -42.179  60.253 -54.555  1.00  0.00     0.034 C 
ENDBRANCH   3   5
BRANCH   3   7
HETATM    7  C   UNL     1     -43.197  57.534 -52.388  1.00  0.00     0.231 C 
HETATM    8  C   UNL     1     -44.554  57.962 -51.860  1.00  0.00     0.034 C 
ENDBRANCH   3   7
ENDBRANCH   2   3
BRANCH   2   9
HETATM    9  C   UNL     1     -43.693  57.290 -56.197  1.00  0.00    -0.023 A 
HETATM   10  C   UNL     1     -43.043  56.948 -57.403  1.00  0.00     0.046 A 
HETATM   11  C   UNL     1     -43.592  57.295 -58.639  1.00  0.00     0.068 A 
HETATM   12  C   UNL     1     -44.813  57.965 -58.681  1.00  0.00     0.037 A 
HETATM   13  C   UNL     1     -45.465  58.321 -57.503  1.00  0.00     0.003 A 
HETATM   14  C   UNL     1     -44.907  57.992 -56.268  1.00  0.00     0.009 A 
BRANCH  11  15
HETATM   15  O   UNL     1     -43.049  57.011 -59.859  1.00  0.00    -0.356 OA
HETATM   16  C   UNL     1     -41.953  57.815 -60.279  1.00  0.00     0.210 C 
ENDBRANCH  11  15
ENDBRANCH   2   9
ENDBRANCH   1   2
BRANCH   1  17
HETATM   17  N   UNL     1     -41.158  55.331 -53.984  1.00  0.00    -0.354 N 
HETATM   18  C   UNL     1     -41.777  54.141 -53.631  1.00  0.00     0.253 C 
HETATM   19  O   UNL     1     -42.992  54.026 -53.735  1.00  0.00    -0.268 OA
HETATM   20  H   UNL     1     -40.150  55.355 -53.855  1.00  0.00     0.162 HD
BRANCH  18  21
HETATM   21  C   UNL     1     -40.877  53.047 -53.160  1.00  0.00     0.059 A 
HETATM   22  C   UNL     1     -40.413  52.924 -51.828  1.00  0.00     0.046 A 
HETATM   23  C   UNL     1     -39.713  51.730 -51.541  1.00  0.00     0.031 A 
HETATM   24  C   UNL     1     -39.444  50.746 -52.501  1.00  0.00     0.009 A 
HETATM   25  C   UNL     1     -39.883  50.899 -53.808  1.00  0.00    -0.061 A 
HETATM   26  C   UNL     1     -39.647  49.824 -54.827  1.00  0.00     0.048 C 
HETATM   27  C   UNL     1     -40.625  52.037 -54.123  1.00  0.00     0.026 A 
BRANCH  22  28
HETATM   28  N   UNL     1     -40.605  53.862 -50.824  1.00  0.00    -0.380 N 
HETATM   29  C   UNL     1     -39.657  54.049 -49.727  1.00  0.00     0.123 C 
HETATM   30  C   UNL     1     -40.502  54.557 -48.560  1.00  0.00     0.021 C 
HETATM   31  C   UNL     1     -41.650  55.267 -49.253  1.00  0.00     0.021 C 
HETATM   32  C   UNL     1     -41.938  54.333 -50.422  1.00  0.00     0.123 C 
ENDBRANCH  22  28
ENDBRANCH  18  21
ENDBRANCH   1  17
TORSDOF 9
ENDMDL
MODEL 7
REMARK VINA RESULT:      -7.1      1.889      3.949
REMARK  9 active torsions:
REMARK  status: ('A' for Active; 'I' for Inactive)
REMARK    1  A    between atoms: C_2  and  N_3 
REMARK    2  A    between atoms: N_3  and  C_5 
REMARK    3  A    between atoms: N_3  and  C_30 
REMARK    4  A    between atoms: C_5  and  C_6 
REMARK    5  A    between atoms: C_5  and  C_14 
REMARK    6  A    between atoms: C_8  and  O_9 
REMARK    7  A    between atoms: C_14  and  N_15 
REMARK       I    between atoms: N_15  and  C_16 
REMARK    8  A    between atoms: C_16  and  C_17 
REMARK    9  A    between atoms: C_18  and  N_19 
ROOT
HETATM    1  C   UNL     1     -42.473  54.942 -56.138  1.00  0.00     0.161 C 
ENDROOT
BRANCH   1   2
HETATM    2  C   UNL     1     -42.116  56.470 -56.125  1.00  0.00     0.238 C 
BRANCH   2   3
HETATM    3  N   UNL     1     -42.478  57.161 -57.454  1.00  0.00    -0.062 N 
HETATM    4  H   UNL     1     -41.541  57.229 -57.896  1.00  0.00     0.280 HD
BRANCH   3   5
HETATM    5  C   UNL     1     -42.965  58.588 -57.288  1.00  0.00     0.231 C 
HETATM    6  C   UNL     1     -44.417  58.745 -57.701  1.00  0.00     0.034 C 
ENDBRANCH   3   5
BRANCH   3   7
HETATM    7  C   UNL     1     -43.374  56.363 -58.367  1.00  0.00     0.231 C 
HETATM    8  C   UNL     1     -42.687  56.085 -59.692  1.00  0.00     0.034 C 
ENDBRANCH   3   7
ENDBRANCH   2   3
BRANCH   2   9
HETATM    9  C   UNL     1     -42.624  57.174 -54.876  1.00  0.00    -0.023 A 
HETATM   10  C   UNL     1     -41.749  58.021 -54.161  1.00  0.00     0.046 A 
HETATM   11  C   UNL     1     -42.175  58.693 -53.014  1.00  0.00     0.068 A 
HETATM   12  C   UNL     1     -43.493  58.544 -52.585  1.00  0.00     0.037 A 
HETATM   13  C   UNL     1     -44.369  57.705 -53.268  1.00  0.00     0.003 A 
HETATM   14  C   UNL     1     -43.937  57.018 -54.403  1.00  0.00     0.009 A 
BRANCH  11  15
HETATM   15  O   UNL     1     -41.414  59.534 -52.254  1.00  0.00    -0.356 OA
HETATM   16  C   UNL     1     -40.102  59.095 -51.924  1.00  0.00     0.210 C 
ENDBRANCH  11  15
ENDBRANCH   2   9
ENDBRANCH   1   2
BRANCH   1  17
HETATM   17  N   UNL     1     -42.114  54.128 -54.970  1.00  0.00    -0.354 N 
HETATM   18  C   UNL     1     -40.850  54.185 -54.400  1.00  0.00     0.253 C 
HETATM   19  O   UNL     1     -39.868  54.397 -55.103  1.00  0.00    -0.268 OA
HETATM   20  H   UNL     1     -42.875  53.933 -54.326  1.00  0.00     0.162 HD
BRANCH  18  21
HETATM   21  C   UNL     1     -40.787  54.002 -52.920  1.00  0.00     0.059 A 
HETATM   22  C   UNL     1     -40.267  52.847 -52.288  1.00  0.00     0.046 A 
HETATM   23  C   UNL     1     -40.137  52.934 -50.883  1.00  0.00     0.031 A 
HETATM   24  C   UNL     1     -40.532  54.056 -50.143  1.00  0.00     0.009 A 
HETATM   25  C   UNL     1     -41.066  55.168 -50.779  1.00  0.00    -0.061 A 
HETATM   26  C   UNL     1     -41.440  56.392 -49.998  1.00  0.00     0.048 C 
HETATM   27  C   UNL     1     -41.162  55.145 -52.170  1.00  0.00     0.026 A 
BRANCH  22  28
HETATM   28  N   UNL     1     -39.881  51.684 -52.939  1.00  0.00    -0.380 N 
HETATM   29  C   UNL     1     -40.311  51.361 -54.298  1.00  0.00     0.123 C 
HETATM   30  C   UNL     1     -40.317  49.834 -54.356  1.00  0.00     0.021 C 
HETATM   31  C   UNL     1     -39.261  49.449 -53.336  1.00  0.00     0.021 C 
HETATM   32  C   UNL     1     -39.522  50.453 -52.220  1.00  0.00     0.123 C 
ENDBRANCH  22  28
ENDBRANCH  18  21
ENDBRANCH   1  17
TORSDOF 9
ENDMDL
MODEL 8
REMARK VINA RESULT:      -6.9      2.114      7.907
REMARK  9 active torsions:
REMARK  status: ('A' for Active; 'I' for Inactive)
REMARK    1  A    between atoms: C_2  and  N_3 
REMARK    2  A    between atoms: N_3  and  C_5 
REMARK    3  A    between atoms: N_3  and  C_30 
REMARK    4  A    between atoms: C_5  and  C_6 
REMARK    5  A    between atoms: C_5  and  C_14 
REMARK    6  A    between atoms: C_8  and  O_9 
REMARK    7  A    between atoms: C_14  and  N_15 
REMARK       I    between atoms: N_15  and  C_16 
REMARK    8  A    between atoms: C_16  and  C_17 
REMARK    9  A    between atoms: C_18  and  N_19 
ROOT
HETATM    1  C   UNL     1     -41.314  54.155 -55.083  1.00  0.00     0.161 C 
ENDROOT
BRANCH   1   2
HETATM    2  C   UNL     1     -40.743  53.861 -53.652  1.00  0.00     0.238 C 
BRANCH   2   3
HETATM    3  N   UNL     1     -41.662  54.398 -52.539  1.00  0.00    -0.062 N 
HETATM    4  H   UNL     1     -41.629  53.608 -51.866  1.00  0.00     0.280 HD
BRANCH   3   5
HETATM    5  C   UNL     1     -43.115  54.530 -52.956  1.00  0.00     0.231 C 
HETATM    6  C   UNL     1     -43.722  55.841 -52.494  1.00  0.00     0.034 C 
ENDBRANCH   3   5
BRANCH   3   7
HETATM    7  C   UNL     1     -41.163  55.636 -51.838  1.00  0.00     0.231 C 
HETATM    8  C   UNL     1     -40.723  55.316 -50.421  1.00  0.00     0.034 C 
ENDBRANCH   3   7
ENDBRANCH   2   3
BRANCH   2   9
HETATM    9  C   UNL     1     -40.313  52.410 -53.486  1.00  0.00    -0.023 A 
HETATM   10  C   UNL     1     -40.039  51.919 -52.191  1.00  0.00     0.046 A 
HETATM   11  C   UNL     1     -39.649  50.593 -51.992  1.00  0.00     0.068 A 
HETATM   12  C   UNL     1     -39.557  49.736 -53.087  1.00  0.00     0.037 A 
HETATM   13  C   UNL     1     -39.812  50.203 -54.374  1.00  0.00     0.003 A 
HETATM   14  C   UNL     1     -40.182  51.533 -54.575  1.00  0.00     0.009 A 
BRANCH  11  15
HETATM   15  O   UNL     1     -39.365  50.019 -50.786  1.00  0.00    -0.356 OA
HETATM   16  C   UNL     1     -40.242  50.317 -49.707  1.00  0.00     0.210 C 
ENDBRANCH  11  15
ENDBRANCH   2   9
ENDBRANCH   1   2
BRANCH   1  17
HETATM   17  N   UNL     1     -41.180  55.512 -55.627  1.00  0.00    -0.354 N 
HETATM   18  C   UNL     1     -42.275  56.224 -56.095  1.00  0.00     0.253 C 
HETATM   19  O   UNL     1     -43.212  55.634 -56.621  1.00  0.00    -0.268 OA
HETATM   20  H   UNL     1     -40.437  56.072 -55.218  1.00  0.00     0.162 HD
BRANCH  18  21
HETATM   21  C   UNL     1     -42.235  57.702 -55.890  1.00  0.00     0.059 A 
HETATM   22  C   UNL     1     -42.569  58.648 -56.889  1.00  0.00     0.046 A 
HETATM   23  C   UNL     1     -42.634  59.990 -56.452  1.00  0.00     0.031 A 
HETATM   24  C   UNL     1     -42.347  60.386 -55.139  1.00  0.00     0.009 A 
HETATM   25  C   UNL     1     -41.994  59.447 -54.181  1.00  0.00    -0.061 A 
HETATM   26  C   UNL     1     -41.740  59.858 -52.762  1.00  0.00     0.048 C 
HETATM   27  C   UNL     1     -41.970  58.104 -54.556  1.00  0.00     0.026 A 
BRANCH  22  28
HETATM   28  N   UNL     1     -42.836  58.348 -58.217  1.00  0.00    -0.380 N 
HETATM   29  C   UNL     1     -41.782  58.186 -59.217  1.00  0.00     0.123 C 
HETATM   30  C   UNL     1     -42.431  58.587 -60.541  1.00  0.00     0.021 C 
HETATM   31  C   UNL     1     -43.896  58.259 -60.316  1.00  0.00     0.021 C 
HETATM   32  C   UNL     1     -44.100  58.708 -58.874  1.00  0.00     0.123 C 
ENDBRANCH  22  28
ENDBRANCH  18  21
ENDBRANCH   1  17
TORSDOF 9
ENDMDL
MODEL 9
REMARK VINA RESULT:      -6.9      1.498      1.999
REMARK  9 active torsions:
REMARK  status: ('A' for Active; 'I' for Inactive)
REMARK    1  A    between atoms: C_2  and  N_3 
REMARK    2  A    between atoms: N_3  and  C_5 
REMARK    3  A    between atoms: N_3  and  C_30 
REMARK    4  A    between atoms: C_5  and  C_6 
REMARK    5  A    between atoms: C_5  and  C_14 
REMARK    6  A    between atoms: C_8  and  O_9 
REMARK    7  A    between atoms: C_14  and  N_15 
REMARK       I    between atoms: N_15  and  C_16 
REMARK    8  A    between atoms: C_16  and  C_17 
REMARK    9  A    between atoms: C_18  and  N_19 
ROOT
HETATM    1  C   UNL     1     -43.993  55.564 -54.565  1.00  0.00     0.161 C 
ENDROOT
BRANCH   1   2
HETATM    2  C   UNL     1     -43.346  56.750 -55.362  1.00  0.00     0.238 C 
BRANCH   2   3
HETATM    3  N   UNL     1     -44.086  57.032 -56.683  1.00  0.00    -0.062 N 
HETATM    4  H   UNL     1     -44.780  56.259 -56.683  1.00  0.00     0.280 HD
BRANCH   3   5
HETATM    5  C   UNL     1     -43.231  56.825 -57.920  1.00  0.00     0.231 C 
HETATM    6  C   UNL     1     -43.538  55.508 -58.609  1.00  0.00     0.034 C 
ENDBRANCH   3   5
BRANCH   3   7
HETATM    7  C   UNL     1     -44.836  58.339 -56.731  1.00  0.00     0.231 C 
HETATM    8  C   UNL     1     -46.260  58.129 -57.216  1.00  0.00     0.034 C 
ENDBRANCH   3   7
ENDBRANCH   2   3
BRANCH   2   9
HETATM    9  C   UNL     1     -43.103  57.972 -54.488  1.00  0.00    -0.023 A 
HETATM   10  C   UNL     1     -44.099  58.368 -53.569  1.00  0.00     0.046 A 
HETATM   11  C   UNL     1     -43.915  59.478 -52.742  1.00  0.00     0.068 A 
HETATM   12  C   UNL     1     -42.719  60.189 -52.810  1.00  0.00     0.037 A 
HETATM   13  C   UNL     1     -41.728  59.823 -53.718  1.00  0.00     0.003 A 
HETATM   14  C   UNL     1     -41.920  58.726 -54.557  1.00  0.00     0.009 A 
BRANCH  11  15
HETATM   15  O   UNL     1     -44.809  59.941 -51.820  1.00  0.00    -0.356 OA
HETATM   16  C   UNL     1     -44.290  60.318 -50.551  1.00  0.00     0.210 C 
ENDBRANCH  11  15
ENDBRANCH   2   9
ENDBRANCH   1   2
BRANCH   1  17
HETATM   17  N   UNL     1     -43.204  54.343 -54.360  1.00  0.00    -0.354 N 
HETATM   18  C   UNL     1     -41.840  54.304 -54.608  1.00  0.00     0.253 C 
HETATM   19  O   UNL     1     -41.358  54.989 -55.502  1.00  0.00    -0.268 OA
HETATM   20  H   UNL     1     -43.530  53.736 -53.613  1.00  0.00     0.162 HD
BRANCH  18  21
HETATM   21  C   UNL     1     -41.034  53.418 -53.716  1.00  0.00     0.059 A 
HETATM   22  C   UNL     1     -40.878  53.629 -52.325  1.00  0.00     0.046 A 
HETATM   23  C   UNL     1     -40.222  52.591 -51.627  1.00  0.00     0.031 A 
HETATM   24  C   UNL     1     -39.711  51.446 -52.253  1.00  0.00     0.009 A 
HETATM   25  C   UNL     1     -39.850  51.271 -53.623  1.00  0.00    -0.061 A 
HETATM   26  C   UNL     1     -39.355  50.023 -54.291  1.00  0.00     0.048 C 
HETATM   27  C   UNL     1     -40.539  52.247 -54.342  1.00  0.00     0.026 A 
BRANCH  22  28
HETATM   28  N   UNL     1     -41.322  54.745 -51.630  1.00  0.00    -0.380 N 
HETATM   29  C   UNL     1     -42.547  54.741 -50.831  1.00  0.00     0.123 C 
HETATM   30  C   UNL     1     -43.041  56.187 -50.861  1.00  0.00     0.021 C 
HETATM   31  C   UNL     1     -41.760  56.981 -51.043  1.00  0.00     0.021 C 
HETATM   32  C   UNL     1     -40.994  56.118 -52.038  1.00  0.00     0.123 C 
ENDBRANCH  22  28
ENDBRANCH  18  21
ENDBRANCH   1  17
TORSDOF 9
ENDMDL
MODEL 10
REMARK VINA RESULT:      -6.9      1.987      7.147
REMARK  9 active torsions:
REMARK  status: ('A' for Active; 'I' for Inactive)
REMARK    1  A    between atoms: C_2  and  N_3 
REMARK    2  A    between atoms: N_3  and  C_5 
REMARK    3  A    between atoms: N_3  and  C_30 
REMARK    4  A    between atoms: C_5  and  C_6 
REMARK    5  A    between atoms: C_5  and  C_14 
REMARK    6  A    between atoms: C_8  and  O_9 
REMARK    7  A    between atoms: C_14  and  N_15 
REMARK       I    between atoms: N_15  and  C_16 
REMARK    8  A    between atoms: C_16  and  C_17 
REMARK    9  A    between atoms: C_18  and  N_19 
ROOT
HETATM    1  C   UNL     1     -43.432  54.877 -53.925  1.00  0.00     0.161 C 
ENDROOT
BRANCH   1   2
HETATM    2  C   UNL     1     -42.049  55.011 -53.195  1.00  0.00     0.238 C 
BRANCH   2   3
HETATM    3  N   UNL     1     -42.196  55.594 -51.777  1.00  0.00    -0.062 N 
HETATM    4  H   UNL     1     -41.757  54.839 -51.213  1.00  0.00     0.280 HD
BRANCH   3   5
HETATM    5  C   UNL     1     -43.634  55.688 -51.300  1.00  0.00     0.231 C 
HETATM    6  C   UNL     1     -44.007  54.533 -50.390  1.00  0.00     0.034 C 
ENDBRANCH   3   5
BRANCH   3   7
HETATM    7  C   UNL     1     -41.436  56.872 -51.527  1.00  0.00     0.231 C 
HETATM    8  C   UNL     1     -40.854  56.891 -50.125  1.00  0.00     0.034 C 
ENDBRANCH   3   7
ENDBRANCH   2   3
BRANCH   2   9
HETATM    9  C   UNL     1     -41.221  53.737 -53.283  1.00  0.00    -0.023 A 
HETATM   10  C   UNL     1     -40.670  53.193 -52.103  1.00  0.00     0.046 A 
HETATM   11  C   UNL     1     -39.911  52.022 -52.136  1.00  0.00     0.068 A 
HETATM   12  C   UNL     1     -39.717  51.368 -53.351  1.00  0.00     0.037 A 
HETATM   13  C   UNL     1     -40.242  51.894 -54.529  1.00  0.00     0.003 A 
HETATM   14  C   UNL     1     -40.984  53.074 -54.498  1.00  0.00     0.009 A 
BRANCH  11  15
HETATM   15  O   UNL     1     -39.339  51.413 -51.057  1.00  0.00    -0.356 OA
HETATM   16  C   UNL     1     -40.015  50.282 -50.521  1.00  0.00     0.210 C 
ENDBRANCH  11  15
ENDBRANCH   2   9
ENDBRANCH   1   2
BRANCH   1  17
HETATM   17  N   UNL     1     -43.624  55.582 -55.198  1.00  0.00    -0.354 N 
HETATM   18  C   UNL     1     -43.725  56.964 -55.261  1.00  0.00     0.253 C 
HETATM   19  O   UNL     1     -44.237  57.585 -54.338  1.00  0.00    -0.268 OA
HETATM   20  H   UNL     1     -43.202  55.136 -56.008  1.00  0.00     0.162 HD
BRANCH  18  21
HETATM   21  C   UNL     1     -43.157  57.609 -56.482  1.00  0.00     0.059 A 
HETATM   22  C   UNL     1     -42.471  58.848 -56.474  1.00  0.00     0.046 A 
HETATM   23  C   UNL     1     -41.861  59.208 -57.697  1.00  0.00     0.031 A 
HETATM   24  C   UNL     1     -41.956  58.434 -58.861  1.00  0.00     0.009 A 
HETATM   25  C   UNL     1     -42.657  57.236 -58.855  1.00  0.00    -0.061 A 
HETATM   26  C   UNL     1     -42.715  56.376 -60.082  1.00  0.00     0.048 C 
HETATM   27  C   UNL     1     -43.229  56.817 -57.654  1.00  0.00     0.026 A 
BRANCH  22  28
HETATM   28  N   UNL     1     -42.355  59.692 -55.378  1.00  0.00    -0.380 N 
HETATM   29  C   UNL     1     -41.516  59.375 -54.224  1.00  0.00     0.123 C 
HETATM   30  C   UNL     1     -42.183  60.085 -53.046  1.00  0.00     0.021 C 
HETATM   31  C   UNL     1     -42.876  61.263 -53.706  1.00  0.00     0.021 C 
HETATM   32  C   UNL     1     -43.412  60.635 -54.987  1.00  0.00     0.123 C 
ENDBRANCH  22  28
ENDBRANCH  18  21
ENDBRANCH   1  17
TORSDOF 9
ENDMDL
