MODEL 1
REMARK VINA RESULT:      -8.5      0.000      0.000
REMARK  6 active torsions:
REMARK  status: ('A' for Active; 'I' for Inactive)
REMARK    1  A    between atoms: C_8  and  C_9 
REMARK    2  A    between atoms: C_9  and  C_10 
REMARK       I    between atoms: C_10  and  N_11 
REMARK    3  A    between atoms: N_11  and  C_12 
REMARK    4  A    between atoms: C_12  and  C_13 
REMARK    5  A    between atoms: C_13  and  N_14 
REMARK    6  A    between atoms: C_13  and  C_20 
ROOT
HETATM    1  C   UNL     1     -40.698  55.134 -55.071  1.00  0.00     0.160 C 
ENDROOT
BRANCH   1   2
HETATM    2  N   UNL     1     -41.915  55.418 -55.826  1.00  0.00    -0.358 N 
HETATM    3  C   UNL     1     -42.429  56.703 -55.892  1.00  0.00     0.226 C 
HETATM    4  O   UNL     1     -42.045  57.581 -55.124  1.00  0.00    -0.273 OA
HETATM    5  H   UNL     1     -42.036  54.878 -56.680  1.00  0.00     0.162 HD
BRANCH   3   6
HETATM    6  C   UNL     1     -43.537  56.892 -56.935  1.00  0.00     0.111 C 
HETATM    7  C   UNL     1     -44.475  58.023 -56.522  1.00  0.00     0.025 C 
BRANCH   6   8
HETATM    8  C   UNL     1     -42.950  57.083 -58.303  1.00  0.00     0.004 A 
HETATM    9  C   UNL     1     -42.172  58.121 -58.794  1.00  0.00     0.033 A 
HETATM   10  C   UNL     1     -41.648  59.368 -58.183  1.00  0.00     0.070 C 
HETATM   11  N   UNL     1     -41.908  57.814 -60.100  1.00  0.00    -0.282 N 
HETATM   12  H   UNL     1     -41.378  58.352 -60.779  1.00  0.00     0.189 HD
HETATM   13  N   UNL     1     -42.429  56.646 -60.489  1.00  0.00    -0.179 NA
HETATM   14  C   UNL     1     -43.092  56.203 -59.419  1.00  0.00     0.060 A 
HETATM   15  C   UNL     1     -43.844  54.924 -59.504  1.00  0.00     0.073 C 
ENDBRANCH   6   8
ENDBRANCH   3   6
ENDBRANCH   1   2
BRANCH   1  16
HETATM   16  C   UNL     1     -40.813  54.900 -53.525  1.00  0.00     0.238 C 
BRANCH  16  17
HETATM   17  N   UNL     1     -42.193  55.200 -52.923  1.00  0.00    -0.061 N 
HETATM   18  H   UNL     1     -42.713  55.604 -53.713  1.00  0.00     0.280 HD
HETATM   19  C   UNL     1     -42.290  56.206 -51.808  1.00  0.00     0.236 C 
HETATM   20  C   UNL     1     -42.610  55.380 -50.583  1.00  0.00     0.029 C 
HETATM   21  C   UNL     1     -43.523  54.297 -51.118  1.00  0.00     0.029 C 
HETATM   22  C   UNL     1     -42.992  53.982 -52.505  1.00  0.00     0.236 C 
ENDBRANCH  16  17
BRANCH  16  23
HETATM   23  C   UNL     1     -40.365  53.497 -53.114  1.00  0.00    -0.024 A 
HETATM   24  C   UNL     1     -40.278  52.431 -54.027  1.00  0.00     0.033 A 
HETATM   25  C   UNL     1     -39.898  51.156 -53.597  1.00  0.00     0.034 A 
HETATM   26 CL   UNL     1     -39.813  49.872 -54.738  1.00  0.00    -0.084 Cl
HETATM   27  C   UNL     1     -39.596  50.918 -52.261  1.00  0.00     0.024 A 
HETATM   28  C   UNL     1     -39.679  51.963 -51.343  1.00  0.00     0.002 A 
HETATM   29  C   UNL     1     -40.063  53.239 -51.763  1.00  0.00     0.009 A 
ENDBRANCH  16  23
ENDBRANCH   1  16
TORSDOF 6
ENDMDL
MODEL 2
REMARK VINA RESULT:      -8.1      1.570      2.124
REMARK  6 active torsions:
REMARK  status: ('A' for Active; 'I' for Inactive)
REMARK    1  A    between atoms: C_8  and  C_9 
REMARK    2  A    between atoms: C_9  and  C_10 
REMARK       I    between atoms: C_10  and  N_11 
REMARK    3  A    between atoms: N_11  and  C_12 
REMARK    4  A    between atoms: C_12  and  C_13 
REMARK    5  A    between atoms: C_13  and  N_14 
REMARK    6  A    between atoms: C_13  and  C_20 
ROOT
HETATM    1  C   UNL     1     -41.415  54.834 -55.274  1.00  0.00     0.160 C 
ENDROOT
BRANCH   1   2
HETATM    2  N   UNL     1     -41.854  56.079 -55.899  1.00  0.00    -0.358 N 
HETATM    3  C   UNL     1     -42.914  56.092 -56.792  1.00  0.00     0.226 C 
HETATM    4  O   UNL     1     -43.344  55.052 -57.284  1.00  0.00    -0.273 OA
HETATM    5  H   UNL     1     -41.794  56.908 -55.313  1.00  0.00     0.162 HD
BRANCH   3   6
HETATM    6  C   UNL     1     -43.429  57.493 -57.145  1.00  0.00     0.111 C 
HETATM    7  C   UNL     1     -42.329  58.533 -56.950  1.00  0.00     0.025 C 
BRANCH   6   8
HETATM    8  C   UNL     1     -44.016  57.508 -58.527  1.00  0.00     0.004 A 
HETATM    9  C   UNL     1     -43.390  57.357 -59.755  1.00  0.00     0.033 A 
HETATM   10  C   UNL     1     -41.978  57.126 -60.149  1.00  0.00     0.070 C 
HETATM   11  N   UNL     1     -44.375  57.460 -60.699  1.00  0.00    -0.282 N 
HETATM   12  H   UNL     1     -44.286  57.414 -61.709  1.00  0.00     0.189 HD
HETATM   13  N   UNL     1     -45.593  57.640 -60.180  1.00  0.00    -0.179 NA
HETATM   14  C   UNL     1     -45.391  57.704 -58.863  1.00  0.00     0.060 A 
HETATM   15  C   UNL     1     -46.544  57.944 -57.957  1.00  0.00     0.073 C 
ENDBRANCH   6   8
ENDBRANCH   3   6
ENDBRANCH   1   2
BRANCH   1  16
HETATM   16  C   UNL     1     -40.832  54.892 -53.820  1.00  0.00     0.238 C 
BRANCH  16  17
HETATM   17  N   UNL     1     -41.750  55.546 -52.777  1.00  0.00    -0.061 N 
HETATM   18  H   UNL     1     -41.436  55.129 -51.891  1.00  0.00     0.280 HD
HETATM   19  C   UNL     1     -43.230  55.284 -52.854  1.00  0.00     0.236 C 
HETATM   20  C   UNL     1     -43.821  56.599 -53.307  1.00  0.00     0.029 C 
HETATM   21  C   UNL     1     -42.960  57.631 -52.608  1.00  0.00     0.029 C 
HETATM   22  C   UNL     1     -41.562  57.039 -52.600  1.00  0.00     0.236 C 
ENDBRANCH  16  17
BRANCH  16  23
HETATM   23  C   UNL     1     -40.379  53.519 -53.320  1.00  0.00    -0.024 A 
HETATM   24  C   UNL     1     -40.222  52.415 -54.176  1.00  0.00     0.033 A 
HETATM   25  C   UNL     1     -39.841  51.169 -53.667  1.00  0.00     0.034 A 
HETATM   26 CL   UNL     1     -39.669  49.837 -54.740  1.00  0.00    -0.084 Cl
HETATM   27  C   UNL     1     -39.608  50.999 -52.307  1.00  0.00     0.024 A 
HETATM   28  C   UNL     1     -39.761  52.083 -51.445  1.00  0.00     0.002 A 
HETATM   29  C   UNL     1     -40.147  53.330 -51.944  1.00  0.00     0.009 A 
ENDBRANCH  16  23
ENDBRANCH   1  16
TORSDOF 6
ENDMDL
MODEL 3
REMARK VINA RESULT:      -8.0      2.559      4.206
REMARK  6 active torsions:
REMARK  status: ('A' for Active; 'I' for Inactive)
REMARK    1  A    between atoms: C_8  and  C_9 
REMARK    2  A    between atoms: C_9  and  C_10 
REMARK       I    between atoms: C_10  and  N_11 
REMARK    3  A    between atoms: N_11  and  C_12 
REMARK    4  A    between atoms: C_12  and  C_13 
REMARK    5  A    between atoms: C_13  and  N_14 
REMARK    6  A    between atoms: C_13  and  C_20 
ROOT
HETATM    1  C   UNL     1     -41.399  54.455 -54.430  1.00  0.00     0.160 C 
ENDROOT
BRANCH   1   2
HETATM    2  N   UNL     1     -41.290  55.866 -54.790  1.00  0.00    -0.358 N 
HETATM    3  C   UNL     1     -42.418  56.614 -55.092  1.00  0.00     0.226 C 
HETATM    4  O   UNL     1     -43.496  56.073 -55.321  1.00  0.00    -0.273 OA
HETATM    5  H   UNL     1     -40.564  56.387 -54.304  1.00  0.00     0.162 HD
BRANCH   3   6
HETATM    6  C   UNL     1     -42.173  58.125 -55.177  1.00  0.00     0.111 C 
HETATM    7  C   UNL     1     -42.959  58.731 -56.337  1.00  0.00     0.025 C 
BRANCH   6   8
HETATM    8  C   UNL     1     -42.464  58.784 -53.860  1.00  0.00     0.004 A 
HETATM    9  C   UNL     1     -43.673  59.218 -53.337  1.00  0.00     0.033 A 
HETATM   10  C   UNL     1     -45.066  59.190 -53.850  1.00  0.00     0.070 C 
HETATM   11  N   UNL     1     -43.387  59.753 -52.111  1.00  0.00    -0.282 N 
HETATM   12  H   UNL     1     -44.024  60.181 -51.447  1.00  0.00     0.189 HD
HETATM   13  N   UNL     1     -42.093  59.677 -51.785  1.00  0.00    -0.179 NA
HETATM   14  C   UNL     1     -41.512  59.120 -52.849  1.00  0.00     0.060 A 
HETATM   15  C   UNL     1     -40.040  58.917 -52.855  1.00  0.00     0.073 C 
ENDBRANCH   6   8
ENDBRANCH   3   6
ENDBRANCH   1   2
BRANCH   1  16
HETATM   16  C   UNL     1     -40.734  53.969 -53.096  1.00  0.00     0.238 C 
BRANCH  16  17
HETATM   17  N   UNL     1     -41.539  54.266 -51.822  1.00  0.00    -0.061 N 
HETATM   18  H   UNL     1     -41.288  53.489 -51.197  1.00  0.00     0.280 HD
HETATM   19  C   UNL     1     -43.042  54.261 -51.902  1.00  0.00     0.236 C 
HETATM   20  C   UNL     1     -43.431  55.715 -51.755  1.00  0.00     0.029 C 
HETATM   21  C   UNL     1     -42.422  56.249 -50.761  1.00  0.00     0.029 C 
HETATM   22  C   UNL     1     -41.129  55.520 -51.078  1.00  0.00     0.236 C 
ENDBRANCH  16  17
BRANCH  16  23
HETATM   23  C   UNL     1     -40.363  52.486 -53.138  1.00  0.00    -0.024 A 
HETATM   24  C   UNL     1     -39.958  51.773 -51.995  1.00  0.00     0.033 A 
HETATM   25  C   UNL     1     -39.594  50.427 -52.089  1.00  0.00     0.034 A 
HETATM   26 CL   UNL     1     -39.092  49.588 -50.674  1.00  0.00    -0.084 Cl
HETATM   27  C   UNL     1     -39.627  49.766 -53.312  1.00  0.00     0.024 A 
HETATM   28  C   UNL     1     -40.025  50.458 -54.454  1.00  0.00     0.002 A 
HETATM   29  C   UNL     1     -40.385  51.806 -54.370  1.00  0.00     0.009 A 
ENDBRANCH  16  23
ENDBRANCH   1  16
TORSDOF 6
ENDMDL
MODEL 4
REMARK VINA RESULT:      -7.8      1.930      2.758
REMARK  6 active torsions:
REMARK  status: ('A' for Active; 'I' for Inactive)
REMARK    1  A    between atoms: C_8  and  C_9 
REMARK    2  A    between atoms: C_9  and  C_10 
REMARK       I    between atoms: C_10  and  N_11 
REMARK    3  A    between atoms: N_11  and  C_12 
REMARK    4  A    between atoms: C_12  and  C_13 
REMARK    5  A    between atoms: C_13  and  N_14 
REMARK    6  A    between atoms: C_13  and  C_20 
ROOT
HETATM    1  C   UNL     1     -43.553  56.215 -54.330  1.00  0.00     0.160 C 
ENDROOT
BRANCH   1   2
HETATM    2  N   UNL     1     -44.143  56.380 -55.656  1.00  0.00    -0.358 N 
HETATM    3  C   UNL     1     -44.248  57.635 -56.238  1.00  0.00     0.226 C 
HETATM    4  O   UNL     1     -44.098  58.657 -55.574  1.00  0.00    -0.273 OA
HETATM    5  H   UNL     1     -43.952  55.631 -56.316  1.00  0.00     0.162 HD
BRANCH   3   6
HETATM    6  C   UNL     1     -44.627  57.615 -57.723  1.00  0.00     0.111 C 
HETATM    7  C   UNL     1     -45.340  58.908 -58.111  1.00  0.00     0.025 C 
BRANCH   6   8
HETATM    8  C   UNL     1     -43.424  57.328 -58.574  1.00  0.00     0.004 A 
HETATM    9  C   UNL     1     -42.262  58.066 -58.741  1.00  0.00     0.033 A 
HETATM   10  C   UNL     1     -41.790  59.351 -58.167  1.00  0.00     0.070 C 
HETATM   11  N   UNL     1     -41.492  57.367 -59.628  1.00  0.00    -0.282 N 
HETATM   12  H   UNL     1     -40.578  57.612 -59.998  1.00  0.00     0.189 HD
HETATM   13  N   UNL     1     -42.049  56.220 -60.030  1.00  0.00    -0.179 NA
HETATM   14  C   UNL     1     -43.237  56.195 -59.424  1.00  0.00     0.060 A 
HETATM   15  C   UNL     1     -44.162  55.061 -59.678  1.00  0.00     0.073 C 
ENDBRANCH   6   8
ENDBRANCH   3   6
ENDBRANCH   1   2
BRANCH   1  16
HETATM   16  C   UNL     1     -41.997  56.341 -54.183  1.00  0.00     0.238 C 
BRANCH  16  17
HETATM   17  N   UNL     1     -41.523  57.384 -53.160  1.00  0.00    -0.061 N 
HETATM   18  H   UNL     1     -40.704  56.938 -52.729  1.00  0.00     0.280 HD
HETATM   19  C   UNL     1     -42.440  57.747 -52.023  1.00  0.00     0.236 C 
HETATM   20  C   UNL     1     -42.893  59.155 -52.339  1.00  0.00     0.029 C 
HETATM   21  C   UNL     1     -41.664  59.789 -52.956  1.00  0.00     0.029 C 
HETATM   22  C   UNL     1     -41.004  58.678 -53.754  1.00  0.00     0.236 C 
ENDBRANCH  16  17
BRANCH  16  23
HETATM   23  C   UNL     1     -41.329  54.995 -53.893  1.00  0.00    -0.024 A 
HETATM   24  C   UNL     1     -41.131  54.513 -52.588  1.00  0.00     0.033 A 
HETATM   25  C   UNL     1     -40.483  53.294 -52.371  1.00  0.00     0.034 A 
HETATM   26 CL   UNL     1     -40.246  52.739 -50.761  1.00  0.00    -0.084 Cl
HETATM   27  C   UNL     1     -40.026  52.533 -53.441  1.00  0.00     0.024 A 
HETATM   28  C   UNL     1     -40.214  52.997 -54.741  1.00  0.00     0.002 A 
HETATM   29  C   UNL     1     -40.855  54.218 -54.966  1.00  0.00     0.009 A 
ENDBRANCH  16  23
ENDBRANCH   1  16
TORSDOF 6
ENDMDL
MODEL 5
REMARK VINA RESULT:      -7.7      2.258      3.309
REMARK  6 active torsions:
REMARK  status: ('A' for Active; 'I' for Inactive)
REMARK    1  A    between atoms: C_8  and  C_9 
REMARK    2  A    between atoms: C_9  and  C_10 
REMARK       I    between atoms: C_10  and  N_11 
REMARK    3  A    between atoms: N_11  and  C_12 
REMARK    4  A    between atoms: C_12  and  C_13 
REMARK    5  A    between atoms: C_13  and  N_14 
REMARK    6  A    between atoms: C_13  and  C_20 
ROOT
HETATM    1  C   UNL     1     -43.258  55.371 -55.085  1.00  0.00     0.160 C 
ENDROOT
BRANCH   1   2
HETATM    2  N   UNL     1     -43.390  55.258 -56.535  1.00  0.00    -0.358 N 
HETATM    3  C   UNL     1     -43.515  56.388 -57.329  1.00  0.00     0.226 C 
HETATM    4  O   UNL     1     -43.780  57.482 -56.839  1.00  0.00    -0.273 OA
HETATM    5  H   UNL     1     -42.859  54.505 -56.964  1.00  0.00     0.162 HD
BRANCH   3   6
HETATM    6  C   UNL     1     -43.364  56.126 -58.832  1.00  0.00     0.111 C 
HETATM    7  C   UNL     1     -43.934  54.757 -59.197  1.00  0.00     0.025 C 
BRANCH   6   8
HETATM    8  C   UNL     1     -43.968  57.246 -59.628  1.00  0.00     0.004 A 
HETATM    9  C   UNL     1     -45.301  57.525 -59.893  1.00  0.00     0.033 A 
HETATM   10  C   UNL     1     -46.569  56.859 -59.506  1.00  0.00     0.070 C 
HETATM   11  N   UNL     1     -45.306  58.651 -60.669  1.00  0.00    -0.282 N 
HETATM   12  H   UNL     1     -46.105  59.138 -61.065  1.00  0.00     0.189 HD
HETATM   13  N   UNL     1     -44.086  59.142 -60.906  1.00  0.00    -0.179 NA
HETATM   14  C   UNL     1     -43.258  58.283 -60.308  1.00  0.00     0.060 A 
HETATM   15  C   UNL     1     -41.791  58.497 -60.403  1.00  0.00     0.073 C 
ENDBRANCH   6   8
ENDBRANCH   3   6
ENDBRANCH   1   2
BRANCH   1  16
HETATM   16  C   UNL     1     -41.840  55.657 -54.481  1.00  0.00     0.238 C 
BRANCH  16  17
HETATM   17  N   UNL     1     -41.787  56.802 -53.459  1.00  0.00    -0.061 N 
HETATM   18  H   UNL     1     -41.599  56.318 -52.571  1.00  0.00     0.280 HD
HETATM   19  C   UNL     1     -43.028  57.620 -53.228  1.00  0.00     0.236 C 
HETATM   20  C   UNL     1     -42.712  58.965 -53.841  1.00  0.00     0.029 C 
HETATM   21  C   UNL     1     -41.242  59.155 -53.530  1.00  0.00     0.029 C 
HETATM   22  C   UNL     1     -40.633  57.768 -53.635  1.00  0.00     0.236 C 
ENDBRANCH  16  17
BRANCH  16  23
HETATM   23  C   UNL     1     -41.199  54.402 -53.884  1.00  0.00    -0.024 A 
HETATM   24  C   UNL     1     -41.082  54.198 -52.498  1.00  0.00     0.033 A 
HETATM   25  C   UNL     1     -40.455  53.052 -52.000  1.00  0.00     0.034 A 
HETATM   26 CL   UNL     1     -40.318  52.838 -50.299  1.00  0.00    -0.084 Cl
HETATM   27  C   UNL     1     -39.939  52.092 -52.863  1.00  0.00     0.024 A 
HETATM   28  C   UNL     1     -40.046  52.281 -54.239  1.00  0.00     0.002 A 
HETATM   29  C   UNL     1     -40.666  53.426 -54.746  1.00  0.00     0.009 A 
ENDBRANCH  16  23
ENDBRANCH   1  16
TORSDOF 6
ENDMDL
MODEL 6
REMARK VINA RESULT:      -7.5      1.976      2.775
REMARK  6 active torsions:
REMARK  status: ('A' for Active; 'I' for Inactive)
REMARK    1  A    between atoms: C_8  and  C_9 
REMARK    2  A    between atoms: C_9  and  C_10 
REMARK       I    between atoms: C_10  and  N_11 
REMARK    3  A    between atoms: N_11  and  C_12 
REMARK    4  A    between atoms: C_12  and  C_13 
REMARK    5  A    between atoms: C_13  and  N_14 
REMARK    6  A    between atoms: C_13  and  C_20 
ROOT
HETATM    1  C   UNL     1     -41.564  54.792 -55.038  1.00  0.00     0.160 C 
ENDROOT
BRANCH   1   2
HETATM    2  N   UNL     1     -41.546  56.037 -55.800  1.00  0.00    -0.358 N 
HETATM    3  C   UNL     1     -42.509  56.297 -56.763  1.00  0.00     0.226 C 
HETATM    4  O   UNL     1     -43.238  55.405 -57.190  1.00  0.00    -0.273 OA
HETATM    5  H   UNL     1     -41.240  56.860 -55.287  1.00  0.00     0.162 HD
BRANCH   3   6
HETATM    6  C   UNL     1     -42.522  57.743 -57.274  1.00  0.00     0.111 C 
HETATM    7  C   UNL     1     -42.870  57.783 -58.760  1.00  0.00     0.025 C 
BRANCH   6   8
HETATM    8  C   UNL     1     -43.429  58.594 -56.434  1.00  0.00     0.004 A 
HETATM    9  C   UNL     1     -43.121  59.442 -55.381  1.00  0.00     0.033 A 
HETATM   10  C   UNL     1     -41.844  59.816 -54.725  1.00  0.00     0.070 C 
HETATM   11  N   UNL     1     -44.310  59.969 -54.957  1.00  0.00    -0.282 N 
HETATM   12  H   UNL     1     -44.474  60.619 -54.195  1.00  0.00     0.189 HD
HETATM   13  N   UNL     1     -45.362  59.552 -55.668  1.00  0.00    -0.179 NA
HETATM   14  C   UNL     1     -44.850  58.691 -56.550  1.00  0.00     0.060 A 
HETATM   15  C   UNL     1     -45.756  57.988 -57.494  1.00  0.00     0.073 C 
ENDBRANCH   6   8
ENDBRANCH   3   6
ENDBRANCH   1   2
BRANCH   1  16
HETATM   16  C   UNL     1     -40.954  54.789 -53.594  1.00  0.00     0.238 C 
BRANCH  16  17
HETATM   17  N   UNL     1     -41.869  55.361 -52.501  1.00  0.00    -0.061 N 
HETATM   18  H   UNL     1     -41.657  54.774 -51.684  1.00  0.00     0.280 HD
HETATM   19  C   UNL     1     -43.359  55.280 -52.693  1.00  0.00     0.236 C 
HETATM   20  C   UNL     1     -43.785  56.708 -52.945  1.00  0.00     0.029 C 
HETATM   21  C   UNL     1     -42.873  57.511 -52.041  1.00  0.00     0.029 C 
HETATM   22  C   UNL     1     -41.544  56.776 -52.065  1.00  0.00     0.236 C 
ENDBRANCH  16  17
BRANCH  16  23
HETATM   23  C   UNL     1     -40.455  53.404 -53.176  1.00  0.00    -0.024 A 
HETATM   24  C   UNL     1     -40.288  52.351 -54.092  1.00  0.00     0.033 A 
HETATM   25  C   UNL     1     -39.863  51.092 -53.657  1.00  0.00     0.034 A 
HETATM   26 CL   UNL     1     -39.681  49.822 -54.802  1.00  0.00    -0.084 Cl
HETATM   27  C   UNL     1     -39.595  50.858 -52.313  1.00  0.00     0.024 A 
HETATM   28  C   UNL     1     -39.757  51.891 -51.393  1.00  0.00     0.002 A 
HETATM   29  C   UNL     1     -40.187  53.151 -51.818  1.00  0.00     0.009 A 
ENDBRANCH  16  23
ENDBRANCH   1  16
TORSDOF 6
ENDMDL
MODEL 7
REMARK VINA RESULT:      -7.5      2.388      3.715
REMARK  6 active torsions:
REMARK  status: ('A' for Active; 'I' for Inactive)
REMARK    1  A    between atoms: C_8  and  C_9 
REMARK    2  A    between atoms: C_9  and  C_10 
REMARK       I    between atoms: C_10  and  N_11 
REMARK    3  A    between atoms: N_11  and  C_12 
REMARK    4  A    between atoms: C_12  and  C_13 
REMARK    5  A    between atoms: C_13  and  N_14 
REMARK    6  A    between atoms: C_13  and  C_20 
ROOT
HETATM    1  C   UNL     1     -43.996  56.749 -54.488  1.00  0.00     0.160 C 
ENDROOT
BRANCH   1   2
HETATM    2  N   UNL     1     -44.491  56.758 -55.862  1.00  0.00    -0.358 N 
HETATM    3  C   UNL     1     -44.538  57.934 -56.594  1.00  0.00     0.226 C 
HETATM    4  O   UNL     1     -44.420  59.028 -56.047  1.00  0.00    -0.273 OA
HETATM    5  H   UNL     1     -44.265  55.934 -56.413  1.00  0.00     0.162 HD
BRANCH   3   6
HETATM    6  C   UNL     1     -44.813  57.740 -58.090  1.00  0.00     0.111 C 
HETATM    7  C   UNL     1     -45.507  58.970 -58.671  1.00  0.00     0.025 C 
BRANCH   6   8
HETATM    8  C   UNL     1     -43.552  57.376 -58.818  1.00  0.00     0.004 A 
HETATM    9  C   UNL     1     -42.368  58.086 -58.946  1.00  0.00     0.033 A 
HETATM   10  C   UNL     1     -41.920  59.405 -58.432  1.00  0.00     0.070 C 
HETATM   11  N   UNL     1     -41.543  57.313 -59.715  1.00  0.00    -0.282 N 
HETATM   12  H   UNL     1     -40.598  57.519 -60.027  1.00  0.00     0.189 HD
HETATM   13  N   UNL     1     -42.086  56.146 -60.073  1.00  0.00    -0.179 NA
HETATM   14  C   UNL     1     -43.318  56.180 -59.564  1.00  0.00     0.060 A 
HETATM   15  C   UNL     1     -44.240  55.041 -59.808  1.00  0.00     0.073 C 
ENDBRANCH   6   8
ENDBRANCH   3   6
ENDBRANCH   1   2
BRANCH   1  16
HETATM   16  C   UNL     1     -43.425  55.410 -53.906  1.00  0.00     0.238 C 
BRANCH  16  17
HETATM   17  N   UNL     1     -42.451  54.663 -54.830  1.00  0.00    -0.061 N 
HETATM   18  H   UNL     1     -42.978  54.576 -55.708  1.00  0.00     0.280 HD
HETATM   19  C   UNL     1     -42.034  53.266 -54.458  1.00  0.00     0.236 C 
HETATM   20  C   UNL     1     -40.584  53.402 -54.049  1.00  0.00     0.029 C 
HETATM   21  C   UNL     1     -40.049  54.453 -54.998  1.00  0.00     0.029 C 
HETATM   22  C   UNL     1     -41.195  55.429 -55.196  1.00  0.00     0.236 C 
ENDBRANCH  16  17
BRANCH  16  23
HETATM   23  C   UNL     1     -42.787  55.599 -52.529  1.00  0.00    -0.024 A 
HETATM   24  C   UNL     1     -41.967  56.697 -52.218  1.00  0.00     0.033 A 
HETATM   25  C   UNL     1     -41.376  56.808 -50.956  1.00  0.00     0.034 A 
HETATM   26 CL   UNL     1     -40.369  58.159 -50.612  1.00  0.00    -0.084 Cl
HETATM   27  C   UNL     1     -41.590  55.838 -49.983  1.00  0.00     0.024 A 
HETATM   28  C   UNL     1     -42.400  54.743 -50.276  1.00  0.00     0.002 A 
HETATM   29  C   UNL     1     -42.989  54.620 -51.537  1.00  0.00     0.009 A 
ENDBRANCH  16  23
ENDBRANCH   1  16
TORSDOF 6
ENDMDL
MODEL 8
REMARK VINA RESULT:      -7.2      2.843      7.019
REMARK  6 active torsions:
REMARK  status: ('A' for Active; 'I' for Inactive)
REMARK    1  A    between atoms: C_8  and  C_9 
REMARK    2  A    between atoms: C_9  and  C_10 
REMARK       I    between atoms: C_10  and  N_11 
REMARK    3  A    between atoms: N_11  and  C_12 
REMARK    4  A    between atoms: C_12  and  C_13 
REMARK    5  A    between atoms: C_13  and  N_14 
REMARK    6  A    between atoms: C_13  and  C_20 
ROOT
HETATM    1  C   UNL     1     -43.243  56.463 -54.544  1.00  0.00     0.160 C 
ENDROOT
BRANCH   1   2
HETATM    2  N   UNL     1     -42.070  55.594 -54.585  1.00  0.00    -0.358 N 
HETATM    3  C   UNL     1     -42.143  54.277 -54.157  1.00  0.00     0.226 C 
HETATM    4  O   UNL     1     -43.098  53.876 -53.498  1.00  0.00    -0.273 OA
HETATM    5  H   UNL     1     -41.445  55.741 -55.374  1.00  0.00     0.162 HD
BRANCH   3   6
HETATM    6  C   UNL     1     -40.920  53.424 -54.517  1.00  0.00     0.111 C 
HETATM    7  C   UNL     1     -39.839  54.285 -55.165  1.00  0.00     0.025 C 
BRANCH   6   8
HETATM    8  C   UNL     1     -40.430  52.668 -53.317  1.00  0.00     0.004 A 
HETATM    9  C   UNL     1     -40.270  53.096 -52.007  1.00  0.00     0.033 A 
HETATM   10  C   UNL     1     -40.515  54.394 -51.330  1.00  0.00     0.070 C 
HETATM   11  N   UNL     1     -39.787  52.021 -51.313  1.00  0.00    -0.282 N 
HETATM   12  H   UNL     1     -39.537  51.967 -50.330  1.00  0.00     0.189 HD
HETATM   13  N   UNL     1     -39.647  50.922 -52.061  1.00  0.00    -0.179 NA
HETATM   14  C   UNL     1     -40.003  51.305 -53.288  1.00  0.00     0.060 A 
HETATM   15  C   UNL     1     -39.929  50.331 -54.407  1.00  0.00     0.073 C 
ENDBRANCH   6   8
ENDBRANCH   3   6
ENDBRANCH   1   2
BRANCH   1  16
HETATM   16  C   UNL     1     -43.245  57.762 -55.422  1.00  0.00     0.238 C 
BRANCH  16  17
HETATM   17  N   UNL     1     -42.287  58.866 -54.951  1.00  0.00    -0.061 N 
HETATM   18  H   UNL     1     -41.700  59.038 -55.777  1.00  0.00     0.280 HD
HETATM   19  C   UNL     1     -41.336  58.563 -53.825  1.00  0.00     0.236 C 
HETATM   20  C   UNL     1     -41.865  59.367 -52.658  1.00  0.00     0.029 C 
HETATM   21  C   UNL     1     -42.370  60.638 -53.309  1.00  0.00     0.029 C 
HETATM   22  C   UNL     1     -42.942  60.198 -54.645  1.00  0.00     0.236 C 
ENDBRANCH  16  17
BRANCH  16  23
HETATM   23  C   UNL     1     -42.999  57.463 -56.902  1.00  0.00    -0.024 A 
HETATM   24  C   UNL     1     -43.532  56.333 -57.546  1.00  0.00     0.033 A 
HETATM   25  C   UNL     1     -43.250  56.083 -58.892  1.00  0.00     0.034 A 
HETATM   26 CL   UNL     1     -43.908  54.684 -59.646  1.00  0.00    -0.084 Cl
HETATM   27  C   UNL     1     -42.442  56.948 -59.621  1.00  0.00     0.024 A 
HETATM   28  C   UNL     1     -41.906  58.072 -58.997  1.00  0.00     0.002 A 
HETATM   29  C   UNL     1     -42.177  58.327 -57.650  1.00  0.00     0.009 A 
ENDBRANCH  16  23
ENDBRANCH   1  16
TORSDOF 6
ENDMDL
MODEL 9
REMARK VINA RESULT:      -7.0      3.002      4.749
REMARK  6 active torsions:
REMARK  status: ('A' for Active; 'I' for Inactive)
REMARK    1  A    between atoms: C_8  and  C_9 
REMARK    2  A    between atoms: C_9  and  C_10 
REMARK       I    between atoms: C_10  and  N_11 
REMARK    3  A    between atoms: N_11  and  C_12 
REMARK    4  A    between atoms: C_12  and  C_13 
REMARK    5  A    between atoms: C_13  and  N_14 
REMARK    6  A    between atoms: C_13  and  C_20 
ROOT
HETATM    1  C   UNL     1     -41.905  56.041 -55.797  1.00  0.00     0.160 C 
ENDROOT
BRANCH   1   2
HETATM    2  N   UNL     1     -42.467  56.192 -57.137  1.00  0.00    -0.358 N 
HETATM    3  C   UNL     1     -43.006  57.401 -57.550  1.00  0.00     0.226 C 
HETATM    4  O   UNL     1     -43.268  58.289 -56.744  1.00  0.00    -0.273 OA
HETATM    5  H   UNL     1     -41.990  55.677 -57.872  1.00  0.00     0.162 HD
BRANCH   3   6
HETATM    6  C   UNL     1     -43.299  57.484 -59.054  1.00  0.00     0.111 C 
HETATM    7  C   UNL     1     -42.224  56.748 -59.850  1.00  0.00     0.025 C 
BRANCH   6   8
HETATM    8  C   UNL     1     -44.688  56.998 -59.350  1.00  0.00     0.004 A 
HETATM    9  C   UNL     1     -45.137  55.714 -59.620  1.00  0.00     0.033 A 
HETATM   10  C   UNL     1     -44.451  54.400 -59.706  1.00  0.00     0.070 C 
HETATM   11  N   UNL     1     -46.484  55.819 -59.828  1.00  0.00    -0.282 N 
HETATM   12  H   UNL     1     -47.144  55.083 -60.064  1.00  0.00     0.189 HD
HETATM   13  N   UNL     1     -46.951  57.063 -59.689  1.00  0.00    -0.179 NA
HETATM   14  C   UNL     1     -45.868  57.799 -59.429  1.00  0.00     0.060 A 
HETATM   15  C   UNL     1     -46.008  59.268 -59.255  1.00  0.00     0.073 C 
ENDBRANCH   6   8
ENDBRANCH   3   6
ENDBRANCH   1   2
BRANCH   1  16
HETATM   16  C   UNL     1     -42.864  55.642 -54.623  1.00  0.00     0.238 C 
BRANCH  16  17
HETATM   17  N   UNL     1     -42.659  54.224 -54.070  1.00  0.00    -0.061 N 
HETATM   18  H   UNL     1     -43.522  53.736 -54.343  1.00  0.00     0.280 HD
HETATM   19  C   UNL     1     -42.536  54.042 -52.581  1.00  0.00     0.236 C 
HETATM   20  C   UNL     1     -41.084  53.680 -52.365  1.00  0.00     0.029 C 
HETATM   21  C   UNL     1     -40.752  52.825 -53.570  1.00  0.00     0.029 C 
HETATM   22  C   UNL     1     -41.537  53.436 -54.717  1.00  0.00     0.236 C 
ENDBRANCH  16  17
BRANCH  16  23
HETATM   23  C   UNL     1     -42.832  56.652 -53.476  1.00  0.00    -0.024 A 
HETATM   24  C   UNL     1     -43.988  57.049 -52.782  1.00  0.00     0.033 A 
HETATM   25  C   UNL     1     -43.914  58.004 -51.764  1.00  0.00     0.034 A 
HETATM   26 CL   UNL     1     -45.350  58.475 -50.943  1.00  0.00    -0.084 Cl
HETATM   27  C   UNL     1     -42.696  58.577 -51.415  1.00  0.00     0.024 A 
HETATM   28  C   UNL     1     -41.541  58.196 -52.094  1.00  0.00     0.002 A 
HETATM   29  C   UNL     1     -41.607  57.246 -53.117  1.00  0.00     0.009 A 
ENDBRANCH  16  23
ENDBRANCH   1  16
TORSDOF 6
ENDMDL
MODEL 10
REMARK VINA RESULT:      -7.0      3.036      7.753
REMARK  6 active torsions:
REMARK  status: ('A' for Active; 'I' for Inactive)
REMARK    1  A    between atoms: C_8  and  C_9 
REMARK    2  A    between atoms: C_9  and  C_10 
REMARK       I    between atoms: C_10  and  N_11 
REMARK    3  A    between atoms: N_11  and  C_12 
REMARK    4  A    between atoms: C_12  and  C_13 
REMARK    5  A    between atoms: C_13  and  N_14 
REMARK    6  A    between atoms: C_13  and  C_20 
ROOT
HETATM    1  C   UNL     1     -43.115  55.775 -57.395  1.00  0.00     0.160 C 
ENDROOT
BRANCH   1   2
HETATM    2  N   UNL     1     -42.124  55.484 -56.362  1.00  0.00    -0.358 N 
HETATM    3  C   UNL     1     -42.512  55.052 -55.104  1.00  0.00     0.226 C 
HETATM    4  O   UNL     1     -43.679  55.146 -54.731  1.00  0.00    -0.273 OA
HETATM    5  H   UNL     1     -41.255  55.072 -56.693  1.00  0.00     0.162 HD
BRANCH   3   6
HETATM    6  C   UNL     1     -41.365  54.528 -54.231  1.00  0.00     0.111 C 
HETATM    7  C   UNL     1     -40.064  54.483 -55.027  1.00  0.00     0.025 C 
BRANCH   6   8
HETATM    8  C   UNL     1     -41.255  55.328 -52.965  1.00  0.00     0.004 A 
HETATM    9  C   UNL     1     -41.198  56.703 -52.791  1.00  0.00     0.033 A 
HETATM   10  C   UNL     1     -41.230  57.845 -53.739  1.00  0.00     0.070 C 
HETATM   11  N   UNL     1     -41.093  56.911 -51.443  1.00  0.00    -0.282 N 
HETATM   12  H   UNL     1     -41.014  57.793 -50.947  1.00  0.00     0.189 HD
HETATM   13  N   UNL     1     -41.104  55.782 -50.727  1.00  0.00    -0.179 NA
HETATM   14  C   UNL     1     -41.170  54.809 -51.637  1.00  0.00     0.060 A 
HETATM   15  C   UNL     1     -41.159  53.392 -51.192  1.00  0.00     0.073 C 
ENDBRANCH   6   8
ENDBRANCH   3   6
ENDBRANCH   1   2
BRANCH   1  16
HETATM   16  C   UNL     1     -42.769  56.847 -58.485  1.00  0.00     0.238 C 
BRANCH  16  17
HETATM   17  N   UNL     1     -43.711  56.869 -59.697  1.00  0.00    -0.061 N 
HETATM   18  H   UNL     1     -43.113  57.221 -60.455  1.00  0.00     0.280 HD
HETATM   19  C   UNL     1     -44.911  57.777 -59.662  1.00  0.00     0.236 C 
HETATM   20  C   UNL     1     -46.089  56.839 -59.531  1.00  0.00     0.029 C 
HETATM   21  C   UNL     1     -45.684  55.647 -60.373  1.00  0.00     0.029 C 
HETATM   22  C   UNL     1     -44.186  55.509 -60.168  1.00  0.00     0.236 C 
ENDBRANCH  16  17
BRANCH  16  23
HETATM   23  C   UNL     1     -42.651  58.255 -57.899  1.00  0.00    -0.024 A 
HETATM   24  C   UNL     1     -41.769  59.219 -58.416  1.00  0.00     0.033 A 
HETATM   25  C   UNL     1     -41.669  60.482 -57.823  1.00  0.00     0.034 A 
HETATM   26 CL   UNL     1     -40.571  61.634 -58.474  1.00  0.00    -0.084 Cl
HETATM   27  C   UNL     1     -42.442  60.809 -56.715  1.00  0.00     0.024 A 
HETATM   28  C   UNL     1     -43.320  59.864 -56.190  1.00  0.00     0.002 A 
HETATM   29  C   UNL     1     -43.422  58.598 -56.772  1.00  0.00     0.009 A 
ENDBRANCH  16  23
ENDBRANCH   1  16
TORSDOF 6
ENDMDL
