MODEL 1
REMARK VINA RESULT:      -8.1      0.000      0.000
REMARK  7 active torsions:
REMARK  status: ('A' for Active; 'I' for Inactive)
REMARK    1  A    between atoms: C_2  and  C_3 
REMARK    2  A    between atoms: C_2  and  C_20 
REMARK    3  A    between atoms: C_3  and  C_4 
REMARK       I    between atoms: C_4  and  N_5 
REMARK    4  A    between atoms: N_5  and  C_6 
REMARK    5  A    between atoms: C_13  and  C_14 
REMARK       I    between atoms: C_14  and  N_15 
REMARK    6  A    between atoms: C_20  and  C_21 
REMARK    7  A    between atoms: C_22  and  O_23 
ROOT
HETATM    1  C   UNL     1     -41.740  54.475 -55.412  1.00  0.00     0.222 C 
HETATM    2  N   UNL     1     -41.577  55.602 -56.202  1.00  0.00    -0.327 N 
HETATM    3  O   UNL     1     -42.786  53.875 -55.205  1.00  0.00    -0.273 OA
HETATM    4  H   UNL     1     -40.651  56.010 -56.219  1.00  0.00     0.169 HD
ENDROOT
BRANCH   2   5
HETATM    5  C   UNL     1     -42.538  56.237 -57.016  1.00  0.00     0.035 A 
HETATM    6  C   UNL     1     -43.172  55.625 -58.106  1.00  0.00     0.046 A 
HETATM    7  C   UNL     1     -44.105  56.360 -58.872  1.00  0.00     0.030 A 
HETATM    8  C   UNL     1     -44.368  57.679 -58.522  1.00  0.00     0.063 A 
HETATM    9  C   UNL     1     -44.931  56.109 -60.009  1.00  0.00     0.156 A 
HETATM   10  N   UNL     1     -45.287  58.119 -59.433  1.00  0.00    -0.277 N 
HETATM   11  C   UNL     1     -43.759  58.319 -57.443  1.00  0.00     0.034 A 
HETATM   12  H   UNL     1     -45.707  59.041 -59.484  1.00  0.00     0.189 HD
HETATM   13  N   UNL     1     -45.653  57.203 -60.343  1.00  0.00    -0.168 NA
HETATM   14  C   UNL     1     -42.841  57.569 -56.698  1.00  0.00     0.032 A 
BRANCH   9  15
HETATM   15  C   UNL     1     -45.047  54.862 -60.779  1.00  0.00     0.270 C 
HETATM   16  N   UNL     1     -45.288  53.754 -60.010  1.00  0.00    -0.365 N 
HETATM   17  H   UNL     1     -45.362  53.867 -59.007  1.00  0.00     0.159 HD
HETATM   18  H   UNL     1     -45.376  52.852 -60.450  1.00  0.00     0.159 HD
HETATM   19  O   UNL     1     -44.944  54.778 -61.996  1.00  0.00    -0.266 OA
ENDBRANCH   9  15
ENDBRANCH   2   5
BRANCH   1  20
HETATM   20  C   UNL     1     -40.427  54.048 -54.762  1.00  0.00     0.107 C 
BRANCH  20  21
HETATM   21  C   UNL     1     -40.623  53.106 -53.562  1.00  0.00    -0.006 C 
HETATM   22  C   UNL     1     -39.663  51.911 -53.563  1.00  0.00     0.011 C 
BRANCH  21  23
HETATM   23  C   UNL     1     -40.646  53.858 -52.209  1.00  0.00     0.046 C 
BRANCH  23  24
HETATM   24  C   UNL     1     -41.872  54.580 -51.671  1.00  0.00    -0.024 A 
HETATM   25  C   UNL     1     -41.943  55.987 -51.825  1.00  0.00     0.074 A 
HETATM   26  C   UNL     1     -43.041  56.702 -51.331  1.00  0.00     0.037 A 
HETATM   27  C   UNL     1     -44.092  56.036 -50.704  1.00  0.00     0.003 A 
HETATM   28  C   UNL     1     -44.051  54.655 -50.572  1.00  0.00     0.001 A 
HETATM   29  C   UNL     1     -42.954  53.935 -51.054  1.00  0.00     0.010 A 
BRANCH  25  30
HETATM   30  O   UNL     1     -40.874  56.575 -52.457  1.00  0.00    -0.355 OA
HETATM   31  C   UNL     1     -41.154  57.679 -53.308  1.00  0.00     0.210 C 
ENDBRANCH  25  30
ENDBRANCH  23  24
ENDBRANCH  21  23
ENDBRANCH  20  21
ENDBRANCH   1  20
TORSDOF 7
ENDMDL
MODEL 2
REMARK VINA RESULT:      -8.1      2.561      4.670
REMARK  7 active torsions:
REMARK  status: ('A' for Active; 'I' for Inactive)
REMARK    1  A    between atoms: C_2  and  C_3 
REMARK    2  A    between atoms: C_2  and  C_20 
REMARK    3  A    between atoms: C_3  and  C_4 
REMARK       I    between atoms: C_4  and  N_5 
REMARK    4  A    between atoms: N_5  and  C_6 
REMARK    5  A    between atoms: C_13  and  C_14 
REMARK       I    between atoms: C_14  and  N_15 
REMARK    6  A    between atoms: C_20  and  C_21 
REMARK    7  A    between atoms: C_22  and  O_23 
ROOT
HETATM    1  C   UNL     1     -43.043  55.344 -55.818  1.00  0.00     0.222 C 
HETATM    2  N   UNL     1     -42.580  55.367 -57.124  1.00  0.00    -0.327 N 
HETATM    3  O   UNL     1     -43.711  56.209 -55.266  1.00  0.00    -0.273 OA
HETATM    4  H   UNL     1     -41.987  54.597 -57.405  1.00  0.00     0.169 HD
ENDROOT
BRANCH   2   5
HETATM    5  C   UNL     1     -42.857  56.320 -58.126  1.00  0.00     0.035 A 
HETATM    6  C   UNL     1     -42.453  57.661 -58.067  1.00  0.00     0.046 A 
HETATM    7  C   UNL     1     -42.804  58.540 -59.117  1.00  0.00     0.030 A 
HETATM    8  C   UNL     1     -43.547  58.049 -60.183  1.00  0.00     0.063 A 
HETATM    9  C   UNL     1     -42.592  59.920 -59.420  1.00  0.00     0.156 A 
HETATM   10  N   UNL     1     -43.732  59.115 -61.018  1.00  0.00    -0.277 N 
HETATM   11  C   UNL     1     -43.963  56.721 -60.276  1.00  0.00     0.034 A 
HETATM   12  H   UNL     1     -44.235  59.124 -61.898  1.00  0.00     0.189 HD
HETATM   13  N   UNL     1     -43.171  60.259 -60.595  1.00  0.00    -0.168 NA
HETATM   14  C   UNL     1     -43.600  55.869 -59.226  1.00  0.00     0.032 A 
BRANCH   9  15
HETATM   15  C   UNL     1     -41.857  60.914 -58.624  1.00  0.00     0.270 C 
HETATM   16  N   UNL     1     -42.213  62.210 -58.886  1.00  0.00    -0.365 N 
HETATM   17  H   UNL     1     -42.925  62.386 -59.583  1.00  0.00     0.159 HD
HETATM   18  H   UNL     1     -41.757  62.961 -58.392  1.00  0.00     0.159 HD
HETATM   19  O   UNL     1     -40.998  60.648 -57.793  1.00  0.00    -0.266 OA
ENDBRANCH   9  15
ENDBRANCH   2   5
BRANCH   1  20
HETATM   20  C   UNL     1     -42.589  54.088 -55.080  1.00  0.00     0.107 C 
BRANCH  20  21
HETATM   21  C   UNL     1     -41.883  54.389 -53.748  1.00  0.00    -0.006 C 
HETATM   22  C   UNL     1     -42.735  54.057 -52.518  1.00  0.00     0.011 C 
BRANCH  21  23
HETATM   23  C   UNL     1     -40.459  53.783 -53.675  1.00  0.00     0.046 C 
BRANCH  23  24
HETATM   24  C   UNL     1     -40.187  52.312 -53.401  1.00  0.00    -0.024 A 
HETATM   25  C   UNL     1     -39.751  51.940 -52.106  1.00  0.00     0.074 A 
HETATM   26  C   UNL     1     -39.468  50.601 -51.807  1.00  0.00     0.037 A 
HETATM   27  C   UNL     1     -39.637  49.613 -52.775  1.00  0.00     0.003 A 
HETATM   28  C   UNL     1     -40.092  49.957 -54.040  1.00  0.00     0.001 A 
HETATM   29  C   UNL     1     -40.368  51.293 -54.348  1.00  0.00     0.010 A 
BRANCH  25  30
HETATM   30  O   UNL     1     -39.611  52.966 -51.203  1.00  0.00    -0.355 OA
HETATM   31  C   UNL     1     -40.360  52.874 -49.998  1.00  0.00     0.210 C 
ENDBRANCH  25  30
ENDBRANCH  23  24
ENDBRANCH  21  23
ENDBRANCH  20  21
ENDBRANCH   1  20
TORSDOF 7
ENDMDL
MODEL 3
REMARK VINA RESULT:      -8.0      2.680      4.961
REMARK  7 active torsions:
REMARK  status: ('A' for Active; 'I' for Inactive)
REMARK    1  A    between atoms: C_2  and  C_3 
REMARK    2  A    between atoms: C_2  and  C_20 
REMARK    3  A    between atoms: C_3  and  C_4 
REMARK       I    between atoms: C_4  and  N_5 
REMARK    4  A    between atoms: N_5  and  C_6 
REMARK    5  A    between atoms: C_13  and  C_14 
REMARK       I    between atoms: C_14  and  N_15 
REMARK    6  A    between atoms: C_20  and  C_21 
REMARK    7  A    between atoms: C_22  and  O_23 
ROOT
HETATM    1  C   UNL     1     -42.465  55.240 -51.371  1.00  0.00     0.222 C 
HETATM    2  N   UNL     1     -41.606  55.746 -52.333  1.00  0.00    -0.327 N 
HETATM    3  O   UNL     1     -43.434  55.810 -50.887  1.00  0.00    -0.273 OA
HETATM    4  H   UNL     1     -40.816  55.166 -52.582  1.00  0.00     0.169 HD
ENDROOT
BRANCH   2   5
HETATM    5  C   UNL     1     -41.713  56.964 -53.038  1.00  0.00     0.035 A 
HETATM    6  C   UNL     1     -42.120  57.063 -54.376  1.00  0.00     0.046 A 
HETATM    7  C   UNL     1     -42.171  58.332 -54.996  1.00  0.00     0.030 A 
HETATM    8  C   UNL     1     -41.810  59.453 -54.259  1.00  0.00     0.063 A 
HETATM    9  C   UNL     1     -42.519  58.836 -56.286  1.00  0.00     0.156 A 
HETATM   10  N   UNL     1     -41.952  60.510 -55.113  1.00  0.00    -0.277 N 
HETATM   11  C   UNL     1     -41.403  59.392 -52.926  1.00  0.00     0.034 A 
HETATM   12  H   UNL     1     -41.773  61.488 -54.914  1.00  0.00     0.189 HD
HETATM   13  N   UNL     1     -42.379  60.180 -56.342  1.00  0.00    -0.168 NA
HETATM   14  C   UNL     1     -41.365  58.125 -52.333  1.00  0.00     0.032 A 
BRANCH   9  15
HETATM   15  C   UNL     1     -42.980  58.073 -57.456  1.00  0.00     0.270 C 
HETATM   16  N   UNL     1     -42.002  57.322 -58.050  1.00  0.00    -0.365 N 
HETATM   17  H   UNL     1     -41.068  57.346 -57.661  1.00  0.00     0.159 HD
HETATM   18  H   UNL     1     -42.223  56.770 -58.864  1.00  0.00     0.159 HD
HETATM   19  O   UNL     1     -44.124  58.083 -57.891  1.00  0.00    -0.266 OA
ENDBRANCH   9  15
ENDBRANCH   2   5
BRANCH   1  20
HETATM   20  C   UNL     1     -42.047  53.844 -50.920  1.00  0.00     0.107 C 
BRANCH  20  21
HETATM   21  C   UNL     1     -40.677  53.817 -50.222  1.00  0.00    -0.006 C 
HETATM   22  C   UNL     1     -40.704  53.123 -48.856  1.00  0.00     0.011 C 
BRANCH  21  23
HETATM   23  C   UNL     1     -39.547  53.291 -51.141  1.00  0.00     0.046 C 
BRANCH  23  24
HETATM   24  C   UNL     1     -39.705  52.089 -52.061  1.00  0.00    -0.024 A 
HETATM   25  C   UNL     1     -40.027  52.323 -53.420  1.00  0.00     0.074 A 
HETATM   26  C   UNL     1     -40.203  51.251 -54.305  1.00  0.00     0.037 A 
HETATM   27  C   UNL     1     -40.038  49.940 -53.864  1.00  0.00     0.003 A 
HETATM   28  C   UNL     1     -39.694  49.696 -52.541  1.00  0.00     0.001 A 
HETATM   29  C   UNL     1     -39.526  50.760 -51.651  1.00  0.00     0.010 A 
BRANCH  25  30
HETATM   30  O   UNL     1     -40.169  53.641 -53.785  1.00  0.00    -0.355 OA
HETATM   31  C   UNL     1     -40.244  53.923 -55.177  1.00  0.00     0.210 C 
ENDBRANCH  25  30
ENDBRANCH  23  24
ENDBRANCH  21  23
ENDBRANCH  20  21
ENDBRANCH   1  20
TORSDOF 7
ENDMDL
MODEL 4
REMARK VINA RESULT:      -7.9      2.554      4.281
REMARK  7 active torsions:
REMARK  status: ('A' for Active; 'I' for Inactive)
REMARK    1  A    between atoms: C_2  and  C_3 
REMARK    2  A    between atoms: C_2  and  C_20 
REMARK    3  A    between atoms: C_3  and  C_4 
REMARK       I    between atoms: C_4  and  N_5 
REMARK    4  A    between atoms: N_5  and  C_6 
REMARK    5  A    between atoms: C_13  and  C_14 
REMARK       I    between atoms: C_14  and  N_15 
REMARK    6  A    between atoms: C_20  and  C_21 
REMARK    7  A    between atoms: C_22  and  O_23 
ROOT
HETATM    1  C   UNL     1     -42.553  55.559 -55.974  1.00  0.00     0.222 C 
HETATM    2  N   UNL     1     -43.219  55.389 -57.177  1.00  0.00    -0.327 N 
HETATM    3  O   UNL     1     -41.995  56.578 -55.587  1.00  0.00    -0.273 OA
HETATM    4  H   UNL     1     -43.573  54.461 -57.369  1.00  0.00     0.169 HD
ENDROOT
BRANCH   2   5
HETATM    5  C   UNL     1     -43.494  56.361 -58.162  1.00  0.00     0.035 A 
HETATM    6  C   UNL     1     -44.528  57.302 -58.067  1.00  0.00     0.046 A 
HETATM    7  C   UNL     1     -44.733  58.220 -59.123  1.00  0.00     0.030 A 
HETATM    8  C   UNL     1     -43.901  58.161 -60.234  1.00  0.00     0.063 A 
HETATM    9  C   UNL     1     -45.638  59.290 -59.398  1.00  0.00     0.156 A 
HETATM   10  N   UNL     1     -44.341  59.148 -61.070  1.00  0.00    -0.277 N 
HETATM   11  C   UNL     1     -42.861  57.240 -60.361  1.00  0.00     0.034 A 
HETATM   12  H   UNL     1     -43.967  59.393 -61.980  1.00  0.00     0.189 HD
HETATM   13  N   UNL     1     -45.384  59.851 -60.602  1.00  0.00    -0.168 NA
HETATM   14  C   UNL     1     -42.676  56.345 -59.301  1.00  0.00     0.032 A 
BRANCH   9  15
HETATM   15  C   UNL     1     -46.730  59.786 -58.546  1.00  0.00     0.270 C 
HETATM   16  N   UNL     1     -47.926  59.923 -59.199  1.00  0.00    -0.365 N 
HETATM   17  H   UNL     1     -47.972  59.687 -60.182  1.00  0.00     0.159 HD
HETATM   18  H   UNL     1     -48.731  60.264 -58.698  1.00  0.00     0.159 HD
HETATM   19  O   UNL     1     -46.621  60.063 -57.359  1.00  0.00    -0.266 OA
ENDBRANCH   9  15
ENDBRANCH   2   5
BRANCH   1  20
HETATM   20  C   UNL     1     -42.548  54.277 -55.146  1.00  0.00     0.107 C 
BRANCH  20  21
HETATM   21  C   UNL     1     -41.877  54.445 -53.773  1.00  0.00    -0.006 C 
HETATM   22  C   UNL     1     -42.762  53.999 -52.604  1.00  0.00     0.011 C 
BRANCH  21  23
HETATM   23  C   UNL     1     -40.457  53.829 -53.721  1.00  0.00     0.046 C 
BRANCH  23  24
HETATM   24  C   UNL     1     -40.191  52.358 -53.438  1.00  0.00    -0.024 A 
HETATM   25  C   UNL     1     -39.775  51.991 -52.135  1.00  0.00     0.074 A 
HETATM   26  C   UNL     1     -39.498  50.652 -51.828  1.00  0.00     0.037 A 
HETATM   27  C   UNL     1     -39.653  49.661 -52.794  1.00  0.00     0.003 A 
HETATM   28  C   UNL     1     -40.088  50.001 -54.067  1.00  0.00     0.001 A 
HETATM   29  C   UNL     1     -40.357  51.336 -54.384  1.00  0.00     0.010 A 
BRANCH  25  30
HETATM   30  O   UNL     1     -39.648  53.020 -51.234  1.00  0.00    -0.355 OA
HETATM   31  C   UNL     1     -40.363  52.899 -50.010  1.00  0.00     0.210 C 
ENDBRANCH  25  30
ENDBRANCH  23  24
ENDBRANCH  21  23
ENDBRANCH  20  21
ENDBRANCH   1  20
TORSDOF 7
ENDMDL
MODEL 5
REMARK VINA RESULT:      -7.8      2.581      4.966
REMARK  7 active torsions:
REMARK  status: ('A' for Active; 'I' for Inactive)
REMARK    1  A    between atoms: C_2  and  C_3 
REMARK    2  A    between atoms: C_2  and  C_20 
REMARK    3  A    between atoms: C_3  and  C_4 
REMARK       I    between atoms: C_4  and  N_5 
REMARK    4  A    between atoms: N_5  and  C_6 
REMARK    5  A    between atoms: C_13  and  C_14 
REMARK       I    between atoms: C_14  and  N_15 
REMARK    6  A    between atoms: C_20  and  C_21 
REMARK    7  A    between atoms: C_22  and  O_23 
ROOT
HETATM    1  C   UNL     1     -41.586  56.589 -50.743  1.00  0.00     0.222 C 
HETATM    2  N   UNL     1     -42.833  56.338 -51.291  1.00  0.00    -0.327 N 
HETATM    3  O   UNL     1     -40.724  57.329 -51.200  1.00  0.00    -0.273 OA
HETATM    4  H   UNL     1     -43.404  55.650 -50.817  1.00  0.00     0.169 HD
ENDROOT
BRANCH   2   5
HETATM    5  C   UNL     1     -43.424  56.947 -52.418  1.00  0.00     0.035 A 
HETATM    6  C   UNL     1     -43.117  56.609 -53.743  1.00  0.00     0.046 A 
HETATM    7  C   UNL     1     -43.751  57.299 -54.802  1.00  0.00     0.030 A 
HETATM    8  C   UNL     1     -44.665  58.301 -54.498  1.00  0.00     0.063 A 
HETATM    9  C   UNL     1     -43.716  57.254 -56.229  1.00  0.00     0.156 A 
HETATM   10  N   UNL     1     -45.095  58.777 -55.704  1.00  0.00    -0.277 N 
HETATM   11  C   UNL     1     -44.996  58.661 -53.192  1.00  0.00     0.034 A 
HETATM   12  H   UNL     1     -45.767  59.519 -55.865  1.00  0.00     0.189 HD
HETATM   13  N   UNL     1     -44.549  58.172 -56.770  1.00  0.00    -0.168 NA
HETATM   14  C   UNL     1     -44.358  57.961 -52.161  1.00  0.00     0.032 A 
BRANCH   9  15
HETATM   15  C   UNL     1     -42.913  56.365 -57.082  1.00  0.00     0.270 C 
HETATM   16  N   UNL     1     -42.201  57.018 -58.052  1.00  0.00    -0.365 N 
HETATM   17  H   UNL     1     -42.278  58.025 -58.115  1.00  0.00     0.159 HD
HETATM   18  H   UNL     1     -41.627  56.489 -58.690  1.00  0.00     0.159 HD
HETATM   19  O   UNL     1     -42.859  55.147 -56.968  1.00  0.00    -0.266 OA
ENDBRANCH   9  15
ENDBRANCH   2   5
BRANCH   1  20
HETATM   20  C   UNL     1     -41.360  55.787 -49.465  1.00  0.00     0.107 C 
BRANCH  20  21
HETATM   21  C   UNL     1     -40.494  54.535 -49.680  1.00  0.00    -0.006 C 
HETATM   22  C   UNL     1     -39.880  53.988 -48.387  1.00  0.00     0.011 C 
BRANCH  21  23
HETATM   23  C   UNL     1     -41.215  53.444 -50.511  1.00  0.00     0.046 C 
BRANCH  23  24
HETATM   24  C   UNL     1     -40.762  53.009 -51.896  1.00  0.00    -0.024 A 
HETATM   25  C   UNL     1     -40.065  51.782 -52.019  1.00  0.00     0.074 A 
HETATM   26  C   UNL     1     -39.610  51.345 -53.270  1.00  0.00     0.037 A 
HETATM   27  C   UNL     1     -39.859  52.100 -54.414  1.00  0.00     0.003 A 
HETATM   28  C   UNL     1     -40.566  53.290 -54.314  1.00  0.00     0.001 A 
HETATM   29  C   UNL     1     -41.016  53.737 -53.068  1.00  0.00     0.010 A 
BRANCH  25  30
HETATM   30  O   UNL     1     -39.860  51.089 -50.851  1.00  0.00    -0.355 OA
HETATM   31  C   UNL     1     -39.347  49.767 -50.963  1.00  0.00     0.210 C 
ENDBRANCH  25  30
ENDBRANCH  23  24
ENDBRANCH  21  23
ENDBRANCH  20  21
ENDBRANCH   1  20
TORSDOF 7
ENDMDL
MODEL 6
REMARK VINA RESULT:      -7.8      4.115      7.015
REMARK  7 active torsions:
REMARK  status: ('A' for Active; 'I' for Inactive)
REMARK    1  A    between atoms: C_2  and  C_3 
REMARK    2  A    between atoms: C_2  and  C_20 
REMARK    3  A    between atoms: C_3  and  C_4 
REMARK       I    between atoms: C_4  and  N_5 
REMARK    4  A    between atoms: N_5  and  C_6 
REMARK    5  A    between atoms: C_13  and  C_14 
REMARK       I    between atoms: C_14  and  N_15 
REMARK    6  A    between atoms: C_20  and  C_21 
REMARK    7  A    between atoms: C_22  and  O_23 
ROOT
HETATM    1  C   UNL     1     -43.011  55.758 -53.201  1.00  0.00     0.222 C 
HETATM    2  N   UNL     1     -44.243  56.329 -53.476  1.00  0.00    -0.327 N 
HETATM    3  O   UNL     1     -42.011  56.339 -52.800  1.00  0.00    -0.273 OA
HETATM    4  H   UNL     1     -44.950  55.714 -53.859  1.00  0.00     0.169 HD
ENDROOT
BRANCH   2   5
HETATM    5  C   UNL     1     -44.650  57.662 -53.258  1.00  0.00     0.035 A 
HETATM    6  C   UNL     1     -44.806  58.237 -51.990  1.00  0.00     0.046 A 
HETATM    7  C   UNL     1     -45.242  59.578 -51.882  1.00  0.00     0.030 A 
HETATM    8  C   UNL     1     -45.508  60.292 -53.044  1.00  0.00     0.063 A 
HETATM    9  C   UNL     1     -45.512  60.492 -50.818  1.00  0.00     0.156 A 
HETATM   10  N   UNL     1     -45.908  61.530 -52.625  1.00  0.00    -0.277 N 
HETATM   11  C   UNL     1     -45.360  59.753 -54.322  1.00  0.00     0.034 A 
HETATM   12  H   UNL     1     -46.186  62.313 -53.206  1.00  0.00     0.189 HD
HETATM   13  N   UNL     1     -45.922  61.690 -51.293  1.00  0.00    -0.168 NA
HETATM   14  C   UNL     1     -44.924  58.425 -54.402  1.00  0.00     0.032 A 
BRANCH   9  15
HETATM   15  C   UNL     1     -45.389  60.252 -49.373  1.00  0.00     0.270 C 
HETATM   16  N   UNL     1     -44.441  61.026 -48.759  1.00  0.00    -0.365 N 
HETATM   17  H   UNL     1     -43.911  61.680 -49.321  1.00  0.00     0.159 HD
HETATM   18  H   UNL     1     -44.281  60.926 -47.769  1.00  0.00     0.159 HD
HETATM   19  O   UNL     1     -46.053  59.442 -48.739  1.00  0.00    -0.266 OA
ENDBRANCH   9  15
ENDBRANCH   2   5
BRANCH   1  20
HETATM   20  C   UNL     1     -43.006  54.261 -53.494  1.00  0.00     0.107 C 
BRANCH  20  21
HETATM   21  C   UNL     1     -42.080  53.874 -54.660  1.00  0.00    -0.006 C 
HETATM   22  C   UNL     1     -42.096  54.885 -55.812  1.00  0.00     0.011 C 
BRANCH  21  23
HETATM   23  C   UNL     1     -40.647  53.518 -54.193  1.00  0.00     0.046 C 
BRANCH  23  24
HETATM   24  C   UNL     1     -40.260  52.154 -53.640  1.00  0.00    -0.024 A 
HETATM   25  C   UNL     1     -39.866  52.068 -52.283  1.00  0.00     0.074 A 
HETATM   26  C   UNL     1     -39.481  50.839 -51.730  1.00  0.00     0.037 A 
HETATM   27  C   UNL     1     -39.506  49.681 -52.503  1.00  0.00     0.003 A 
HETATM   28  C   UNL     1     -39.918  49.744 -53.827  1.00  0.00     0.001 A 
HETATM   29  C   UNL     1     -40.294  50.968 -54.388  1.00  0.00     0.010 A 
BRANCH  25  30
HETATM   30  O   UNL     1     -39.871  53.249 -51.581  1.00  0.00    -0.355 OA
HETATM   31  C   UNL     1     -40.682  53.305 -50.414  1.00  0.00     0.210 C 
ENDBRANCH  25  30
ENDBRANCH  23  24
ENDBRANCH  21  23
ENDBRANCH  20  21
ENDBRANCH   1  20
TORSDOF 7
ENDMDL
MODEL 7
REMARK VINA RESULT:      -7.8      1.700      2.002
REMARK  7 active torsions:
REMARK  status: ('A' for Active; 'I' for Inactive)
REMARK    1  A    between atoms: C_2  and  C_3 
REMARK    2  A    between atoms: C_2  and  C_20 
REMARK    3  A    between atoms: C_3  and  C_4 
REMARK       I    between atoms: C_4  and  N_5 
REMARK    4  A    between atoms: N_5  and  C_6 
REMARK    5  A    between atoms: C_13  and  C_14 
REMARK       I    between atoms: C_14  and  N_15 
REMARK    6  A    between atoms: C_20  and  C_21 
REMARK    7  A    between atoms: C_22  and  O_23 
ROOT
HETATM    1  C   UNL     1     -40.772  53.685 -54.780  1.00  0.00     0.222 C 
HETATM    2  N   UNL     1     -42.121  53.892 -55.020  1.00  0.00    -0.327 N 
HETATM    3  O   UNL     1     -39.851  54.420 -55.111  1.00  0.00    -0.273 OA
HETATM    4  H   UNL     1     -42.748  53.154 -54.730  1.00  0.00     0.169 HD
ENDROOT
BRANCH   2   5
HETATM    5  C   UNL     1     -42.736  55.025 -55.592  1.00  0.00     0.035 A 
HETATM    6  C   UNL     1     -42.643  55.367 -56.948  1.00  0.00     0.046 A 
HETATM    7  C   UNL     1     -43.280  56.540 -57.416  1.00  0.00     0.030 A 
HETATM    8  C   UNL     1     -43.982  57.327 -56.512  1.00  0.00     0.063 A 
HETATM    9  C   UNL     1     -43.419  57.207 -58.670  1.00  0.00     0.156 A 
HETATM   10  N   UNL     1     -44.471  58.372 -57.244  1.00  0.00    -0.277 N 
HETATM   11  C   UNL     1     -44.098  57.016 -55.157  1.00  0.00     0.034 A 
HETATM   12  H   UNL     1     -45.032  59.147 -56.908  1.00  0.00     0.189 HD
HETATM   13  N   UNL     1     -44.155  58.335 -58.548  1.00  0.00    -0.168 NA
HETATM   14  C   UNL     1     -43.462  55.849 -54.719  1.00  0.00     0.032 A 
BRANCH   9  15
HETATM   15  C   UNL     1     -42.871  56.798 -59.973  1.00  0.00     0.270 C 
HETATM   16  N   UNL     1     -41.570  57.174 -60.172  1.00  0.00    -0.365 N 
HETATM   17  H   UNL     1     -41.096  57.690 -59.440  1.00  0.00     0.159 HD
HETATM   18  H   UNL     1     -41.112  56.944 -61.039  1.00  0.00     0.159 HD
HETATM   19  O   UNL     1     -43.490  56.178 -60.828  1.00  0.00    -0.266 OA
ENDBRANCH   9  15
ENDBRANCH   2   5
BRANCH   1  20
HETATM   20  C   UNL     1     -40.524  52.366 -54.055  1.00  0.00     0.107 C 
BRANCH  20  21
HETATM   21  C   UNL     1     -40.523  52.506 -52.524  1.00  0.00    -0.006 C 
HETATM   22  C   UNL     1     -39.419  51.693 -51.838  1.00  0.00     0.011 C 
BRANCH  21  23
HETATM   23  C   UNL     1     -40.559  53.982 -52.058  1.00  0.00     0.046 C 
BRANCH  23  24
HETATM   24  C   UNL     1     -41.822  54.676 -51.568  1.00  0.00    -0.024 A 
HETATM   25  C   UNL     1     -41.912  56.082 -51.711  1.00  0.00     0.074 A 
HETATM   26  C   UNL     1     -43.045  56.772 -51.259  1.00  0.00     0.037 A 
HETATM   27  C   UNL     1     -44.109  56.080 -50.685  1.00  0.00     0.003 A 
HETATM   28  C   UNL     1     -44.047  54.698 -50.564  1.00  0.00     0.001 A 
HETATM   29  C   UNL     1     -42.917  54.005 -51.005  1.00  0.00     0.010 A 
BRANCH  25  30
HETATM   30  O   UNL     1     -40.828  56.697 -52.290  1.00  0.00    -0.355 OA
HETATM   31  C   UNL     1     -41.025  58.011 -52.798  1.00  0.00     0.210 C 
ENDBRANCH  25  30
ENDBRANCH  23  24
ENDBRANCH  21  23
ENDBRANCH  20  21
ENDBRANCH   1  20
TORSDOF 7
ENDMDL
MODEL 8
REMARK VINA RESULT:      -7.7      2.013      3.549
REMARK  7 active torsions:
REMARK  status: ('A' for Active; 'I' for Inactive)
REMARK    1  A    between atoms: C_2  and  C_3 
REMARK    2  A    between atoms: C_2  and  C_20 
REMARK    3  A    between atoms: C_3  and  C_4 
REMARK       I    between atoms: C_4  and  N_5 
REMARK    4  A    between atoms: N_5  and  C_6 
REMARK    5  A    between atoms: C_13  and  C_14 
REMARK       I    between atoms: C_14  and  N_15 
REMARK    6  A    between atoms: C_20  and  C_21 
REMARK    7  A    between atoms: C_22  and  O_23 
ROOT
HETATM    1  C   UNL     1     -44.087  57.316 -53.843  1.00  0.00     0.222 C 
HETATM    2  N   UNL     1     -43.138  56.777 -54.697  1.00  0.00    -0.327 N 
HETATM    3  O   UNL     1     -44.926  58.162 -54.127  1.00  0.00    -0.273 OA
HETATM    4  H   UNL     1     -42.478  56.131 -54.285  1.00  0.00     0.169 HD
ENDROOT
BRANCH   2   5
HETATM    5  C   UNL     1     -42.994  56.995 -56.083  1.00  0.00     0.035 A 
HETATM    6  C   UNL     1     -43.497  56.134 -57.068  1.00  0.00     0.046 A 
HETATM    7  C   UNL     1     -43.277  56.433 -58.432  1.00  0.00     0.030 A 
HETATM    8  C   UNL     1     -42.561  57.577 -58.761  1.00  0.00     0.063 A 
HETATM    9  C   UNL     1     -43.612  55.836 -59.686  1.00  0.00     0.156 A 
HETATM   10  N   UNL     1     -42.508  57.593 -60.126  1.00  0.00    -0.277 N 
HETATM   11  C   UNL     1     -42.049  58.458 -57.807  1.00  0.00     0.034 A 
HETATM   12  H   UNL     1     -42.059  58.286 -60.714  1.00  0.00     0.189 HD
HETATM   13  N   UNL     1     -43.130  56.563 -60.720  1.00  0.00    -0.168 NA
HETATM   14  C   UNL     1     -42.283  58.142 -56.464  1.00  0.00     0.032 A 
BRANCH   9  15
HETATM   15  C   UNL     1     -44.374  54.600 -59.919  1.00  0.00     0.270 C 
HETATM   16  N   UNL     1     -44.859  54.478 -61.193  1.00  0.00    -0.365 N 
HETATM   17  H   UNL     1     -44.671  55.218 -61.857  1.00  0.00     0.159 HD
HETATM   18  H   UNL     1     -45.401  53.666 -61.444  1.00  0.00     0.159 HD
HETATM   19  O   UNL     1     -44.579  53.735 -59.077  1.00  0.00    -0.266 OA
ENDBRANCH   9  15
ENDBRANCH   2   5
BRANCH   1  20
HETATM   20  C   UNL     1     -43.961  56.753 -52.431  1.00  0.00     0.107 C 
BRANCH  20  21
HETATM   21  C   UNL     1     -42.524  56.341 -52.069  1.00  0.00    -0.006 C 
HETATM   22  C   UNL     1     -41.826  57.328 -51.127  1.00  0.00     0.011 C 
BRANCH  21  23
HETATM   23  C   UNL     1     -42.428  54.874 -51.582  1.00  0.00     0.046 C 
BRANCH  23  24
HETATM   24  C   UNL     1     -41.545  53.827 -52.244  1.00  0.00    -0.024 A 
HETATM   25  C   UNL     1     -40.659  53.082 -51.426  1.00  0.00     0.074 A 
HETATM   26  C   UNL     1     -39.811  52.120 -51.989  1.00  0.00     0.037 A 
HETATM   27  C   UNL     1     -39.845  51.864 -53.357  1.00  0.00     0.003 A 
HETATM   28  C   UNL     1     -40.728  52.565 -54.168  1.00  0.00     0.001 A 
HETATM   29  C   UNL     1     -41.571  53.533 -53.615  1.00  0.00     0.010 A 
BRANCH  25  30
HETATM   30  O   UNL     1     -40.684  53.385 -50.086  1.00  0.00    -0.355 OA
HETATM   31  C   UNL     1     -39.663  54.247 -49.598  1.00  0.00     0.210 C 
ENDBRANCH  25  30
ENDBRANCH  23  24
ENDBRANCH  21  23
ENDBRANCH  20  21
ENDBRANCH   1  20
TORSDOF 7
ENDMDL
MODEL 9
REMARK VINA RESULT:      -7.6      1.978      3.368
REMARK  7 active torsions:
REMARK  status: ('A' for Active; 'I' for Inactive)
REMARK    1  A    between atoms: C_2  and  C_3 
REMARK    2  A    between atoms: C_2  and  C_20 
REMARK    3  A    between atoms: C_3  and  C_4 
REMARK       I    between atoms: C_4  and  N_5 
REMARK    4  A    between atoms: N_5  and  C_6 
REMARK    5  A    between atoms: C_13  and  C_14 
REMARK       I    between atoms: C_14  and  N_15 
REMARK    6  A    between atoms: C_20  and  C_21 
REMARK    7  A    between atoms: C_22  and  O_23 
ROOT
HETATM    1  C   UNL     1     -41.822  56.458 -54.730  1.00  0.00     0.222 C 
HETATM    2  N   UNL     1     -41.797  56.285 -56.104  1.00  0.00    -0.327 N 
HETATM    3  O   UNL     1     -42.560  57.206 -54.102  1.00  0.00    -0.273 OA
HETATM    4  H   UNL     1     -41.081  55.670 -56.468  1.00  0.00     0.169 HD
ENDROOT
BRANCH   2   5
HETATM    5  C   UNL     1     -42.670  56.839 -57.064  1.00  0.00     0.035 A 
HETATM    6  C   UNL     1     -43.274  56.102 -58.092  1.00  0.00     0.046 A 
HETATM    7  C   UNL     1     -44.116  56.760 -59.017  1.00  0.00     0.030 A 
HETATM    8  C   UNL     1     -44.320  58.128 -58.885  1.00  0.00     0.063 A 
HETATM    9  C   UNL     1     -44.889  56.382 -60.158  1.00  0.00     0.156 A 
HETATM   10  N   UNL     1     -45.157  58.471 -59.909  1.00  0.00    -0.277 N 
HETATM   11  C   UNL     1     -43.736  58.892 -57.873  1.00  0.00     0.034 A 
HETATM   12  H   UNL     1     -45.516  59.395 -60.122  1.00  0.00     0.189 HD
HETATM   13  N   UNL     1     -45.524  57.449 -60.696  1.00  0.00    -0.168 NA
HETATM   14  C   UNL     1     -42.910  58.217 -56.967  1.00  0.00     0.032 A 
BRANCH   9  15
HETATM   15  C   UNL     1     -45.035  55.040 -60.741  1.00  0.00     0.270 C 
HETATM   16  N   UNL     1     -45.294  54.059 -59.822  1.00  0.00    -0.365 N 
HETATM   17  H   UNL     1     -45.360  54.315 -58.845  1.00  0.00     0.159 HD
HETATM   18  H   UNL     1     -45.402  53.106 -60.128  1.00  0.00     0.159 HD
HETATM   19  O   UNL     1     -44.940  54.782 -61.934  1.00  0.00    -0.266 OA
ENDBRANCH   9  15
ENDBRANCH   2   5
BRANCH   1  20
HETATM   20  C   UNL     1     -40.762  55.608 -54.035  1.00  0.00     0.107 C 
BRANCH  20  21
HETATM   21  C   UNL     1     -41.207  54.154 -53.803  1.00  0.00    -0.006 C 
HETATM   22  C   UNL     1     -42.485  53.779 -54.561  1.00  0.00     0.011 C 
BRANCH  21  23
HETATM   23  C   UNL     1     -40.059  53.136 -54.018  1.00  0.00     0.046 C 
BRANCH  23  24
HETATM   24  C   UNL     1     -39.881  51.884 -53.173  1.00  0.00    -0.024 A 
HETATM   25  C   UNL     1     -39.873  52.021 -51.763  1.00  0.00     0.074 A 
HETATM   26  C   UNL     1     -39.692  50.902 -50.940  1.00  0.00     0.037 A 
HETATM   27  C   UNL     1     -39.543  49.634 -51.497  1.00  0.00     0.003 A 
HETATM   28  C   UNL     1     -39.578  49.479 -52.876  1.00  0.00     0.001 A 
HETATM   29  C   UNL     1     -39.748  50.592 -53.704  1.00  0.00     0.010 A 
BRANCH  25  30
HETATM   30  O   UNL     1     -40.030  53.300 -51.285  1.00  0.00    -0.355 OA
HETATM   31  C   UNL     1     -40.142  53.454 -49.875  1.00  0.00     0.210 C 
ENDBRANCH  25  30
ENDBRANCH  23  24
ENDBRANCH  21  23
ENDBRANCH  20  21
ENDBRANCH   1  20
TORSDOF 7
ENDMDL
MODEL 10
REMARK VINA RESULT:      -7.6      2.023      3.833
REMARK  7 active torsions:
REMARK  status: ('A' for Active; 'I' for Inactive)
REMARK    1  A    between atoms: C_2  and  C_3 
REMARK    2  A    between atoms: C_2  and  C_20 
REMARK    3  A    between atoms: C_3  and  C_4 
REMARK       I    between atoms: C_4  and  N_5 
REMARK    4  A    between atoms: N_5  and  C_6 
REMARK    5  A    between atoms: C_13  and  C_14 
REMARK       I    between atoms: C_14  and  N_15 
REMARK    6  A    between atoms: C_20  and  C_21 
REMARK    7  A    between atoms: C_22  and  O_23 
ROOT
HETATM    1  C   UNL     1     -43.108  55.685 -52.692  1.00  0.00     0.222 C 
HETATM    2  N   UNL     1     -43.418  55.386 -54.009  1.00  0.00    -0.327 N 
HETATM    3  O   UNL     1     -42.995  56.803 -52.206  1.00  0.00    -0.273 OA
HETATM    4  H   UNL     1     -43.412  54.406 -54.262  1.00  0.00     0.169 HD
ENDROOT
BRANCH   2   5
HETATM    5  C   UNL     1     -43.773  56.279 -55.041  1.00  0.00     0.035 A 
HETATM    6  C   UNL     1     -43.289  56.194 -56.354  1.00  0.00     0.046 A 
HETATM    7  C   UNL     1     -43.691  57.156 -57.308  1.00  0.00     0.030 A 
HETATM    8  C   UNL     1     -44.559  58.168 -56.916  1.00  0.00     0.063 A 
HETATM    9  C   UNL     1     -43.434  57.407 -58.690  1.00  0.00     0.156 A 
HETATM   10  N   UNL     1     -44.755  58.931 -58.032  1.00  0.00    -0.277 N 
HETATM   11  C   UNL     1     -45.063  58.281 -55.620  1.00  0.00     0.034 A 
HETATM   12  H   UNL     1     -45.332  59.760 -58.114  1.00  0.00     0.189 HD
HETATM   13  N   UNL     1     -44.097  58.505 -59.121  1.00  0.00    -0.168 NA
HETATM   14  C   UNL     1     -44.653  57.315 -54.694  1.00  0.00     0.032 A 
BRANCH   9  15
HETATM   15  C   UNL     1     -42.580  56.632 -59.602  1.00  0.00     0.270 C 
HETATM   16  N   UNL     1     -41.411  57.260 -59.938  1.00  0.00    -0.365 N 
HETATM   17  H   UNL     1     -41.226  58.178 -59.554  1.00  0.00     0.159 HD
HETATM   18  H   UNL     1     -40.765  56.807 -60.565  1.00  0.00     0.159 HD
HETATM   19  O   UNL     1     -42.853  55.523 -60.044  1.00  0.00    -0.266 OA
ENDBRANCH   9  15
ENDBRANCH   2   5
BRANCH   1  20
HETATM   20  C   UNL     1     -42.872  54.423 -51.867  1.00  0.00     0.107 C 
BRANCH  20  21
HETATM   21  C   UNL     1     -41.581  54.476 -51.034  1.00  0.00    -0.006 C 
HETATM   22  C   UNL     1     -41.701  53.771 -49.679  1.00  0.00     0.011 C 
BRANCH  21  23
HETATM   23  C   UNL     1     -40.333  54.030 -51.835  1.00  0.00     0.046 C 
BRANCH  23  24
HETATM   24  C   UNL     1     -40.160  52.631 -52.407  1.00  0.00    -0.024 A 
HETATM   25  C   UNL     1     -40.535  52.406 -53.754  1.00  0.00     0.074 A 
HETATM   26  C   UNL     1     -40.414  51.131 -54.324  1.00  0.00     0.037 A 
HETATM   27  C   UNL     1     -39.899  50.073 -53.579  1.00  0.00     0.003 A 
HETATM   28  C   UNL     1     -39.500  50.284 -52.266  1.00  0.00     0.001 A 
HETATM   29  C   UNL     1     -39.626  51.551 -51.689  1.00  0.00     0.010 A 
BRANCH  25  30
HETATM   30  O   UNL     1     -41.030  53.496 -54.429  1.00  0.00    -0.355 OA
HETATM   31  C   UNL     1     -40.169  54.116 -55.376  1.00  0.00     0.210 C 
ENDBRANCH  25  30
ENDBRANCH  23  24
ENDBRANCH  21  23
ENDBRANCH  20  21
ENDBRANCH   1  20
TORSDOF 7
ENDMDL
