MODEL 1
REMARK VINA RESULT:      -7.7      0.000      0.000
REMARK  5 active torsions:
REMARK  status: ('A' for Active; 'I' for Inactive)
REMARK    1  A    between atoms: N_2  and  C_4 
REMARK    2  A    between atoms: C_4  and  C_5 
REMARK    3  A    between atoms: C_8  and  C_9 
REMARK    4  A    between atoms: C_9  and  N_10 
REMARK       I    between atoms: N_10  and  C_11 
REMARK       I    between atoms: C_11  and  N_12 
REMARK    5  A    between atoms: N_12  and  C_13 
ROOT
HETATM    1  N   UNL     1     -42.327  55.646 -52.337  1.00  0.00    -0.339 N 
HETATM    2  C   UNL     1     -41.566  55.947 -51.252  1.00  0.00     0.322 C 
HETATM    3  N   UNL     1     -40.720  54.993 -50.785  1.00  0.00    -0.287 N 
HETATM    4  O   UNL     1     -41.628  57.032 -50.676  1.00  0.00    -0.247 OA
HETATM    5  H   UNL     1     -42.194  54.730 -52.758  1.00  0.00     0.164 HD
HETATM    6  H   UNL     1     -40.173  55.247 -49.975  1.00  0.00     0.172 HD
ENDROOT
BRANCH   1   7
HETATM    7  C   UNL     1     -43.135  56.622 -53.025  1.00  0.00     0.162 C 
BRANCH   7   8
HETATM    8  C   UNL     1     -43.106  56.504 -54.534  1.00  0.00    -0.040 A 
HETATM    9  C   UNL     1     -42.783  55.305 -55.180  1.00  0.00     0.009 A 
HETATM   10  C   UNL     1     -42.854  55.194 -56.571  1.00  0.00     0.009 A 
HETATM   11  C   UNL     1     -43.272  56.280 -57.349  1.00  0.00    -0.033 A 
HETATM   12  C   UNL     1     -43.593  57.486 -56.711  1.00  0.00     0.009 A 
HETATM   13  C   UNL     1     -43.512  57.593 -55.319  1.00  0.00     0.009 A 
BRANCH  11  14
HETATM   14  C   UNL     1     -43.436  56.134 -58.837  1.00  0.00     0.272 C 
BRANCH  14  15
HETATM   15  N   UNL     1     -44.822  55.669 -59.232  1.00  0.00    -0.075 N 
HETATM   16  C   UNL     1     -44.819  54.347 -59.949  1.00  0.00     0.269 C 
HETATM   17  H   UNL     1     -45.335  55.522 -58.355  1.00  0.00     0.279 HD
HETATM   18  C   UNL     1     -45.558  56.719 -60.012  1.00  0.00     0.269 C 
ENDBRANCH  14  15
ENDBRANCH  11  14
ENDBRANCH   7   8
ENDBRANCH   1   7
BRANCH   3  19
HETATM   19  C   UNL     1     -40.479  53.778 -51.356  1.00  0.00     0.175 A 
HETATM   20  S   UNL     1     -40.244  52.512 -50.246  1.00  0.00    -0.050 SA
HETATM   21  C   UNL     1     -39.970  51.430 -51.560  1.00  0.00     0.037 A 
HETATM   22  C   UNL     1     -40.095  52.136 -52.761  1.00  0.00     0.076 A 
HETATM   23  C   UNL     1     -39.664  50.060 -51.529  1.00  0.00     0.021 A 
HETATM   24  N   UNL     1     -40.397  53.486 -52.629  1.00  0.00    -0.223 NA
HETATM   25  C   UNL     1     -39.904  51.444 -53.974  1.00  0.00     0.033 A 
HETATM   26  C   UNL     1     -39.596  50.079 -53.955  1.00  0.00     0.002 A 
HETATM   27  C   UNL     1     -39.478  49.398 -52.747  1.00  0.00     0.002 A 
ENDBRANCH   3  19
TORSDOF 5
ENDMDL
MODEL 2
REMARK VINA RESULT:      -7.4      3.246      7.883
REMARK  5 active torsions:
REMARK  status: ('A' for Active; 'I' for Inactive)
REMARK    1  A    between atoms: N_2  and  C_4 
REMARK    2  A    between atoms: C_4  and  C_5 
REMARK    3  A    between atoms: C_8  and  C_9 
REMARK    4  A    between atoms: C_9  and  N_10 
REMARK       I    between atoms: N_10  and  C_11 
REMARK       I    between atoms: C_11  and  N_12 
REMARK    5  A    between atoms: N_12  and  C_13 
ROOT
HETATM    1  N   UNL     1     -42.031  57.772 -55.381  1.00  0.00    -0.339 N 
HETATM    2  C   UNL     1     -42.133  59.085 -55.717  1.00  0.00     0.322 C 
HETATM    3  N   UNL     1     -42.765  59.397 -56.878  1.00  0.00    -0.287 N 
HETATM    4  O   UNL     1     -41.664  59.988 -55.025  1.00  0.00    -0.247 OA
HETATM    5  H   UNL     1     -42.465  57.098 -56.006  1.00  0.00     0.164 HD
HETATM    6  H   UNL     1     -42.819  60.379 -57.101  1.00  0.00     0.172 HD
ENDROOT
BRANCH   1   7
HETATM    7  C   UNL     1     -41.535  57.325 -54.103  1.00  0.00     0.162 C 
BRANCH   7   8
HETATM    8  C   UNL     1     -41.286  55.834 -54.018  1.00  0.00    -0.040 A 
HETATM    9  C   UNL     1     -42.024  55.004 -53.166  1.00  0.00     0.009 A 
HETATM   10  C   UNL     1     -41.841  53.619 -53.172  1.00  0.00     0.009 A 
HETATM   11  C   UNL     1     -40.924  53.028 -54.051  1.00  0.00    -0.033 A 
HETATM   12  C   UNL     1     -40.177  53.853 -54.904  1.00  0.00     0.009 A 
HETATM   13  C   UNL     1     -40.360  55.239 -54.887  1.00  0.00     0.009 A 
BRANCH  11  14
HETATM   14  C   UNL     1     -40.792  51.532 -54.122  1.00  0.00     0.272 C 
BRANCH  14  15
HETATM   15  N   UNL     1     -39.506  51.026 -53.504  1.00  0.00    -0.075 N 
HETATM   16  C   UNL     1     -39.214  49.590 -53.842  1.00  0.00     0.269 C 
HETATM   17  H   UNL     1     -38.750  51.581 -53.922  1.00  0.00     0.279 HD
HETATM   18  C   UNL     1     -39.471  51.263 -52.023  1.00  0.00     0.269 C 
ENDBRANCH  14  15
ENDBRANCH  11  14
ENDBRANCH   7   8
ENDBRANCH   1   7
BRANCH   3  19
HETATM   19  C   UNL     1     -43.403  58.523 -57.709  1.00  0.00     0.175 A 
HETATM   20  S   UNL     1     -45.057  58.846 -57.935  1.00  0.00    -0.050 SA
HETATM   21  C   UNL     1     -45.177  57.453 -58.943  1.00  0.00     0.037 A 
HETATM   22  C   UNL     1     -43.917  56.852 -59.035  1.00  0.00     0.076 A 
HETATM   23  C   UNL     1     -46.302  56.930 -59.600  1.00  0.00     0.021 A 
HETATM   24  N   UNL     1     -42.902  57.484 -58.327  1.00  0.00    -0.223 NA
HETATM   25  C   UNL     1     -43.781  55.683 -59.812  1.00  0.00     0.033 A 
HETATM   26  C   UNL     1     -44.897  55.152 -60.469  1.00  0.00     0.002 A 
HETATM   27  C   UNL     1     -46.140  55.768 -60.363  1.00  0.00     0.002 A 
ENDBRANCH   3  19
TORSDOF 5
ENDMDL
MODEL 3
REMARK VINA RESULT:      -7.4      2.888      8.042
REMARK  5 active torsions:
REMARK  status: ('A' for Active; 'I' for Inactive)
REMARK    1  A    between atoms: N_2  and  C_4 
REMARK    2  A    between atoms: C_4  and  C_5 
REMARK    3  A    between atoms: C_8  and  C_9 
REMARK    4  A    between atoms: C_9  and  N_10 
REMARK       I    between atoms: N_10  and  C_11 
REMARK       I    between atoms: C_11  and  N_12 
REMARK    5  A    between atoms: N_12  and  C_13 
ROOT
HETATM    1  N   UNL     1     -43.080  56.448 -54.833  1.00  0.00    -0.339 N 
HETATM    2  C   UNL     1     -42.560  57.673 -55.106  1.00  0.00     0.322 C 
HETATM    3  N   UNL     1     -42.655  58.135 -56.380  1.00  0.00    -0.287 N 
HETATM    4  O   UNL     1     -41.998  58.362 -54.256  1.00  0.00    -0.247 OA
HETATM    5  H   UNL     1     -43.543  55.959 -55.596  1.00  0.00     0.164 HD
HETATM    6  H   UNL     1     -42.254  59.045 -56.550  1.00  0.00     0.172 HD
ENDROOT
BRANCH   1   7
HETATM    7  C   UNL     1     -43.191  55.922 -53.495  1.00  0.00     0.162 C 
BRANCH   7   8
HETATM    8  C   UNL     1     -42.250  54.774 -53.195  1.00  0.00    -0.040 A 
HETATM    9  C   UNL     1     -41.515  54.134 -54.200  1.00  0.00     0.009 A 
HETATM   10  C   UNL     1     -40.582  53.141 -53.889  1.00  0.00     0.009 A 
HETATM   11  C   UNL     1     -40.349  52.779 -52.556  1.00  0.00    -0.033 A 
HETATM   12  C   UNL     1     -41.085  53.411 -51.545  1.00  0.00     0.009 A 
HETATM   13  C   UNL     1     -42.022  54.399 -51.864  1.00  0.00     0.009 A 
BRANCH  11  14
HETATM   14  C   UNL     1     -39.283  51.776 -52.215  1.00  0.00     0.272 C 
BRANCH  14  15
HETATM   15  N   UNL     1     -39.820  50.365 -52.092  1.00  0.00    -0.075 N 
HETATM   16  C   UNL     1     -39.330  49.652 -50.862  1.00  0.00     0.269 C 
HETATM   17  H   UNL     1     -40.838  50.455 -51.989  1.00  0.00     0.279 HD
HETATM   18  C   UNL     1     -39.565  49.564 -53.334  1.00  0.00     0.269 C 
ENDBRANCH  14  15
ENDBRANCH  11  14
ENDBRANCH   7   8
ENDBRANCH   1   7
BRANCH   3  19
HETATM   19  C   UNL     1     -43.314  57.530 -57.410  1.00  0.00     0.175 A 
HETATM   20  S   UNL     1     -44.782  58.272 -57.839  1.00  0.00    -0.050 SA
HETATM   21  C   UNL     1     -45.030  57.055 -59.035  1.00  0.00     0.037 A 
HETATM   22  C   UNL     1     -43.945  56.173 -59.015  1.00  0.00     0.076 A 
HETATM   23  C   UNL     1     -46.107  56.892 -59.921  1.00  0.00     0.021 A 
HETATM   24  N   UNL     1     -42.959  56.463 -58.081  1.00  0.00    -0.223 NA
HETATM   25  C   UNL     1     -43.940  55.088 -59.915  1.00  0.00     0.033 A 
HETATM   26  C   UNL     1     -45.010  54.914 -60.800  1.00  0.00     0.002 A 
HETATM   27  C   UNL     1     -46.078  55.805 -60.802  1.00  0.00     0.002 A 
ENDBRANCH   3  19
TORSDOF 5
ENDMDL
MODEL 4
REMARK VINA RESULT:      -7.3      1.862      2.347
REMARK  5 active torsions:
REMARK  status: ('A' for Active; 'I' for Inactive)
REMARK    1  A    between atoms: N_2  and  C_4 
REMARK    2  A    between atoms: C_4  and  C_5 
REMARK    3  A    between atoms: C_8  and  C_9 
REMARK    4  A    between atoms: C_9  and  N_10 
REMARK       I    between atoms: N_10  and  C_11 
REMARK       I    between atoms: C_11  and  N_12 
REMARK    5  A    between atoms: N_12  and  C_13 
ROOT
HETATM    1  N   UNL     1     -44.126  56.958 -52.868  1.00  0.00    -0.339 N 
HETATM    2  C   UNL     1     -44.444  56.731 -51.566  1.00  0.00     0.322 C 
HETATM    3  N   UNL     1     -43.911  55.637 -50.963  1.00  0.00    -0.287 N 
HETATM    4  O   UNL     1     -45.200  57.462 -50.929  1.00  0.00    -0.247 OA
HETATM    5  H   UNL     1     -43.478  56.309 -53.308  1.00  0.00     0.164 HD
HETATM    6  H   UNL     1     -44.171  55.495 -49.999  1.00  0.00     0.172 HD
ENDROOT
BRANCH   1   7
HETATM    7  C   UNL     1     -44.490  58.166 -53.567  1.00  0.00     0.162 C 
BRANCH   7   8
HETATM    8  C   UNL     1     -44.556  58.020 -55.072  1.00  0.00    -0.040 A 
HETATM    9  C   UNL     1     -43.664  57.207 -55.781  1.00  0.00     0.009 A 
HETATM   10  C   UNL     1     -43.802  57.014 -57.158  1.00  0.00     0.009 A 
HETATM   11  C   UNL     1     -44.856  57.618 -57.857  1.00  0.00    -0.033 A 
HETATM   12  C   UNL     1     -45.750  58.438 -57.156  1.00  0.00     0.009 A 
HETATM   13  C   UNL     1     -45.601  58.633 -55.779  1.00  0.00     0.009 A 
BRANCH  11  14
HETATM   14  C   UNL     1     -45.058  57.338 -59.320  1.00  0.00     0.272 C 
BRANCH  14  15
HETATM   15  N   UNL     1     -45.839  56.065 -59.572  1.00  0.00    -0.075 N 
HETATM   16  C   UNL     1     -44.992  54.954 -60.130  1.00  0.00     0.269 C 
HETATM   17  H   UNL     1     -46.168  55.745 -58.653  1.00  0.00     0.279 HD
HETATM   18  C   UNL     1     -47.051  56.315 -60.420  1.00  0.00     0.269 C 
ENDBRANCH  14  15
ENDBRANCH  11  14
ENDBRANCH   7   8
ENDBRANCH   1   7
BRANCH   3  19
HETATM   19  C   UNL     1     -43.000  54.779 -51.506  1.00  0.00     0.175 A 
HETATM   20  S   UNL     1     -41.803  54.246 -50.424  1.00  0.00    -0.050 SA
HETATM   21  C   UNL     1     -41.071  53.345 -51.699  1.00  0.00     0.037 A 
HETATM   22  C   UNL     1     -41.823  53.521 -52.866  1.00  0.00     0.076 A 
HETATM   23  C   UNL     1     -39.917  52.547 -51.670  1.00  0.00     0.021 A 
HETATM   24  N   UNL     1     -42.937  54.342 -52.739  1.00  0.00    -0.223 NA
HETATM   25  C   UNL     1     -41.401  52.874 -54.045  1.00  0.00     0.033 A 
HETATM   26  C   UNL     1     -40.250  52.078 -54.027  1.00  0.00     0.002 A 
HETATM   27  C   UNL     1     -39.519  51.918 -52.854  1.00  0.00     0.002 A 
ENDBRANCH   3  19
TORSDOF 5
ENDMDL
MODEL 5
REMARK VINA RESULT:      -7.2     14.299     16.463
REMARK  5 active torsions:
REMARK  status: ('A' for Active; 'I' for Inactive)
REMARK    1  A    between atoms: N_2  and  C_4 
REMARK    2  A    between atoms: C_4  and  C_5 
REMARK    3  A    between atoms: C_8  and  C_9 
REMARK    4  A    between atoms: C_9  and  N_10 
REMARK       I    between atoms: N_10  and  C_11 
REMARK       I    between atoms: C_11  and  N_12 
REMARK    5  A    between atoms: N_12  and  C_13 
ROOT
HETATM    1  N   UNL     1     -35.631  41.569 -55.226  1.00  0.00    -0.339 N 
HETATM    2  C   UNL     1     -35.416  41.829 -53.910  1.00  0.00     0.322 C 
HETATM    3  N   UNL     1     -34.334  41.259 -53.318  1.00  0.00    -0.287 N 
HETATM    4  O   UNL     1     -36.166  42.537 -53.240  1.00  0.00    -0.247 OA
HETATM    5  H   UNL     1     -34.947  40.987 -55.703  1.00  0.00     0.164 HD
HETATM    6  H   UNL     1     -34.206  41.468 -52.340  1.00  0.00     0.172 HD
ENDROOT
BRANCH   1   7
HETATM    7  C   UNL     1     -36.642  42.242 -56.005  1.00  0.00     0.162 C 
BRANCH   7   8
HETATM    8  C   UNL     1     -37.124  41.461 -57.209  1.00  0.00    -0.040 A 
HETATM    9  C   UNL     1     -36.827  41.857 -58.519  1.00  0.00     0.009 A 
HETATM   10  C   UNL     1     -37.202  41.071 -59.611  1.00  0.00     0.009 A 
HETATM   11  C   UNL     1     -37.869  39.855 -59.415  1.00  0.00    -0.033 A 
HETATM   12  C   UNL     1     -38.175  39.454 -58.108  1.00  0.00     0.009 A 
HETATM   13  C   UNL     1     -37.803  40.249 -57.019  1.00  0.00     0.009 A 
BRANCH  11  14
HETATM   14  C   UNL     1     -38.192  38.966 -60.584  1.00  0.00     0.272 C 
BRANCH  14  15
HETATM   15  N   UNL     1     -36.999  38.723 -61.485  1.00  0.00    -0.075 N 
HETATM   16  C   UNL     1     -37.347  38.754 -62.947  1.00  0.00     0.269 C 
HETATM   17  H   UNL     1     -36.355  39.507 -61.324  1.00  0.00     0.279 HD
HETATM   18  C   UNL     1     -36.272  37.463 -61.116  1.00  0.00     0.269 C 
ENDBRANCH  14  15
ENDBRANCH  11  14
ENDBRANCH   7   8
ENDBRANCH   1   7
BRANCH   3  19
HETATM   19  C   UNL     1     -33.370  40.520 -53.939  1.00  0.00     0.175 A 
HETATM   20  S   UNL     1     -32.959  39.081 -53.133  1.00  0.00    -0.050 SA
HETATM   21  C   UNL     1     -31.779  38.755 -54.348  1.00  0.00     0.037 A 
HETATM   22  C   UNL     1     -31.806  39.786 -55.293  1.00  0.00     0.076 A 
HETATM   23  C   UNL     1     -30.894  37.670 -54.455  1.00  0.00     0.021 A 
HETATM   24  N   UNL     1     -32.734  40.792 -55.051  1.00  0.00    -0.223 NA
HETATM   25  C   UNL     1     -30.913  39.728 -56.382  1.00  0.00     0.033 A 
HETATM   26  C   UNL     1     -30.025  38.653 -56.496  1.00  0.00     0.002 A 
HETATM   27  C   UNL     1     -30.017  37.639 -55.544  1.00  0.00     0.002 A 
ENDBRANCH   3  19
TORSDOF 5
ENDMDL
MODEL 6
REMARK VINA RESULT:      -7.0      1.592      2.164
REMARK  5 active torsions:
REMARK  status: ('A' for Active; 'I' for Inactive)
REMARK    1  A    between atoms: N_2  and  C_4 
REMARK    2  A    between atoms: C_4  and  C_5 
REMARK    3  A    between atoms: C_8  and  C_9 
REMARK    4  A    between atoms: C_9  and  N_10 
REMARK       I    between atoms: N_10  and  C_11 
REMARK       I    between atoms: C_11  and  N_12 
REMARK    5  A    between atoms: N_12  and  C_13 
ROOT
HETATM    1  N   UNL     1     -43.248  56.523 -52.716  1.00  0.00    -0.339 N 
HETATM    2  C   UNL     1     -42.417  57.037 -51.772  1.00  0.00     0.322 C 
HETATM    3  N   UNL     1     -41.391  56.261 -51.338  1.00  0.00    -0.287 N 
HETATM    4  O   UNL     1     -42.570  58.159 -51.291  1.00  0.00    -0.247 OA
HETATM    5  H   UNL     1     -43.033  55.594 -53.069  1.00  0.00     0.164 HD
HETATM    6  H   UNL     1     -40.796  56.669 -50.633  1.00  0.00     0.172 HD
ENDROOT
BRANCH   1   7
HETATM    7  C   UNL     1     -44.266  57.304 -53.376  1.00  0.00     0.162 C 
BRANCH   7   8
HETATM    8  C   UNL     1     -44.240  57.214 -54.887  1.00  0.00    -0.040 A 
HETATM    9  C   UNL     1     -45.054  58.017 -55.694  1.00  0.00     0.009 A 
HETATM   10  C   UNL     1     -44.946  57.984 -57.086  1.00  0.00     0.009 A 
HETATM   11  C   UNL     1     -44.000  57.156 -57.705  1.00  0.00    -0.033 A 
HETATM   12  C   UNL     1     -43.184  56.345 -56.905  1.00  0.00     0.009 A 
HETATM   13  C   UNL     1     -43.303  56.378 -55.512  1.00  0.00     0.009 A 
BRANCH  11  14
HETATM   14  C   UNL     1     -43.822  57.188 -59.198  1.00  0.00     0.272 C 
BRANCH  14  15
HETATM   15  N   UNL     1     -43.238  58.494 -59.692  1.00  0.00    -0.075 N 
HETATM   16  C   UNL     1     -44.182  59.269 -60.570  1.00  0.00     0.269 C 
HETATM   17  H   UNL     1     -43.079  59.071 -58.857  1.00  0.00     0.279 HD
HETATM   18  C   UNL     1     -41.907  58.292 -60.356  1.00  0.00     0.269 C 
ENDBRANCH  14  15
ENDBRANCH  11  14
ENDBRANCH   7   8
ENDBRANCH   1   7
BRANCH   3  19
HETATM   19  C   UNL     1     -41.043  55.035 -51.826  1.00  0.00     0.175 A 
HETATM   20  S   UNL     1     -40.458  53.951 -50.655  1.00  0.00    -0.050 SA
HETATM   21  C   UNL     1     -40.203  52.776 -51.891  1.00  0.00     0.037 A 
HETATM   22  C   UNL     1     -40.605  53.316 -53.118  1.00  0.00     0.076 A 
HETATM   23  C   UNL     1     -39.684  51.477 -51.784  1.00  0.00     0.021 A 
HETATM   24  N   UNL     1     -41.096  54.614 -53.065  1.00  0.00    -0.223 NA
HETATM   25  C   UNL     1     -40.480  52.525 -54.278  1.00  0.00     0.033 A 
HETATM   26  C   UNL     1     -39.961  51.229 -54.182  1.00  0.00     0.002 A 
HETATM   27  C   UNL     1     -39.568  50.713 -52.951  1.00  0.00     0.002 A 
ENDBRANCH   3  19
TORSDOF 5
ENDMDL
MODEL 7
REMARK VINA RESULT:      -6.9      2.946      7.592
REMARK  5 active torsions:
REMARK  status: ('A' for Active; 'I' for Inactive)
REMARK    1  A    between atoms: N_2  and  C_4 
REMARK    2  A    between atoms: C_4  and  C_5 
REMARK    3  A    between atoms: C_8  and  C_9 
REMARK    4  A    between atoms: C_9  and  N_10 
REMARK       I    between atoms: N_10  and  C_11 
REMARK       I    between atoms: C_11  and  N_12 
REMARK    5  A    between atoms: N_12  and  C_13 
ROOT
HETATM    1  N   UNL     1     -43.780  56.615 -53.600  1.00  0.00    -0.339 N 
HETATM    2  C   UNL     1     -44.509  57.758 -53.502  1.00  0.00     0.322 C 
HETATM    3  N   UNL     1     -44.823  58.412 -54.650  1.00  0.00    -0.287 N 
HETATM    4  O   UNL     1     -44.875  58.223 -52.424  1.00  0.00    -0.247 OA
HETATM    5  H   UNL     1     -43.538  56.297 -54.535  1.00  0.00     0.164 HD
HETATM    6  H   UNL     1     -45.360  59.259 -54.543  1.00  0.00     0.172 HD
ENDROOT
BRANCH   1   7
HETATM    7  C   UNL     1     -43.527  55.746 -52.478  1.00  0.00     0.162 C 
BRANCH   7   8
HETATM    8  C   UNL     1     -42.376  54.784 -52.680  1.00  0.00    -0.040 A 
HETATM    9  C   UNL     1     -41.616  54.298 -51.610  1.00  0.00     0.009 A 
HETATM   10  C   UNL     1     -40.619  53.340 -51.810  1.00  0.00     0.009 A 
HETATM   11  C   UNL     1     -40.374  52.828 -53.091  1.00  0.00    -0.033 A 
HETATM   12  C   UNL     1     -41.127  53.312 -54.169  1.00  0.00     0.009 A 
HETATM   13  C   UNL     1     -42.117  54.278 -53.962  1.00  0.00     0.009 A 
BRANCH  11  14
HETATM   14  C   UNL     1     -39.365  51.732 -53.292  1.00  0.00     0.272 C 
BRANCH  14  15
HETATM   15  N   UNL     1     -39.999  50.360 -53.391  1.00  0.00    -0.075 N 
HETATM   16  C   UNL     1     -39.640  49.459 -52.242  1.00  0.00     0.269 C 
HETATM   17  H   UNL     1     -41.013  50.510 -53.336  1.00  0.00     0.279 HD
HETATM   18  C   UNL     1     -39.713  49.710 -54.713  1.00  0.00     0.269 C 
ENDBRANCH  14  15
ENDBRANCH  11  14
ENDBRANCH   7   8
ENDBRANCH   1   7
BRANCH   3  19
HETATM   19  C   UNL     1     -44.562  57.985 -55.920  1.00  0.00     0.175 A 
HETATM   20  S   UNL     1     -45.815  58.274 -57.032  1.00  0.00    -0.050 SA
HETATM   21  C   UNL     1     -44.883  57.502 -58.260  1.00  0.00     0.037 A 
HETATM   22  C   UNL     1     -43.664  57.090 -57.711  1.00  0.00     0.076 A 
HETATM   23  C   UNL     1     -45.208  57.274 -59.606  1.00  0.00     0.021 A 
HETATM   24  N   UNL     1     -43.488  57.382 -56.364  1.00  0.00    -0.223 NA
HETATM   25  C   UNL     1     -42.740  56.424 -58.542  1.00  0.00     0.033 A 
HETATM   26  C   UNL     1     -43.056  56.190 -59.885  1.00  0.00     0.002 A 
HETATM   27  C   UNL     1     -44.274  56.610 -60.408  1.00  0.00     0.002 A 
ENDBRANCH   3  19
TORSDOF 5
ENDMDL
MODEL 8
REMARK VINA RESULT:      -6.8      1.363      1.877
REMARK  5 active torsions:
REMARK  status: ('A' for Active; 'I' for Inactive)
REMARK    1  A    between atoms: N_2  and  C_4 
REMARK    2  A    between atoms: C_4  and  C_5 
REMARK    3  A    between atoms: C_8  and  C_9 
REMARK    4  A    between atoms: C_9  and  N_10 
REMARK       I    between atoms: N_10  and  C_11 
REMARK       I    between atoms: C_11  and  N_12 
REMARK    5  A    between atoms: N_12  and  C_13 
ROOT
HETATM    1  N   UNL     1     -42.170  57.021 -53.847  1.00  0.00    -0.339 N 
HETATM    2  C   UNL     1     -42.325  57.156 -52.504  1.00  0.00     0.322 C 
HETATM    3  N   UNL     1     -42.076  56.072 -51.723  1.00  0.00    -0.287 N 
HETATM    4  O   UNL     1     -42.697  58.204 -51.979  1.00  0.00    -0.247 OA
HETATM    5  H   UNL     1     -41.841  56.121 -54.189  1.00  0.00     0.164 HD
HETATM    6  H   UNL     1     -42.207  56.204 -50.732  1.00  0.00     0.172 HD
ENDROOT
BRANCH   1   7
HETATM    7  C   UNL     1     -42.240  58.134 -54.762  1.00  0.00     0.162 C 
BRANCH   7   8
HETATM    8  C   UNL     1     -42.457  57.741 -56.207  1.00  0.00    -0.040 A 
HETATM    9  C   UNL     1     -42.659  56.411 -56.594  1.00  0.00     0.009 A 
HETATM   10  C   UNL     1     -42.950  56.082 -57.920  1.00  0.00     0.009 A 
HETATM   11  C   UNL     1     -43.067  57.086 -58.891  1.00  0.00    -0.033 A 
HETATM   12  C   UNL     1     -42.861  58.419 -58.513  1.00  0.00     0.009 A 
HETATM   13  C   UNL     1     -42.562  58.741 -57.185  1.00  0.00     0.009 A 
BRANCH  11  14
HETATM   14  C   UNL     1     -43.469  56.741 -60.298  1.00  0.00     0.272 C 
BRANCH  14  15
HETATM   15  N   UNL     1     -44.926  56.345 -60.412  1.00  0.00    -0.075 N 
HETATM   16  C   UNL     1     -45.807  57.036 -59.408  1.00  0.00     0.269 C 
HETATM   17  H   UNL     1     -45.237  56.663 -61.338  1.00  0.00     0.279 HD
HETATM   18  C   UNL     1     -45.101  54.855 -60.368  1.00  0.00     0.269 C 
ENDBRANCH  14  15
ENDBRANCH  11  14
ENDBRANCH   7   8
ENDBRANCH   1   7
BRANCH   3  19
HETATM   19  C   UNL     1     -41.585  54.871 -52.143  1.00  0.00     0.175 A 
HETATM   20  S   UNL     1     -40.575  54.091 -51.019  1.00  0.00    -0.050 SA
HETATM   21  C   UNL     1     -40.328  52.813 -52.150  1.00  0.00     0.037 A 
HETATM   22  C   UNL     1     -41.059  53.088 -53.310  1.00  0.00     0.076 A 
HETATM   23  C   UNL     1     -39.542  51.658 -52.021  1.00  0.00     0.021 A 
HETATM   24  N   UNL     1     -41.786  54.271 -53.290  1.00  0.00    -0.223 NA
HETATM   25  C   UNL     1     -40.999  52.171 -54.379  1.00  0.00     0.033 A 
HETATM   26  C   UNL     1     -40.216  51.017 -54.262  1.00  0.00     0.002 A 
HETATM   27  C   UNL     1     -39.498  50.766 -53.098  1.00  0.00     0.002 A 
ENDBRANCH   3  19
TORSDOF 5
ENDMDL
MODEL 9
REMARK VINA RESULT:      -6.7      2.268      3.035
REMARK  5 active torsions:
REMARK  status: ('A' for Active; 'I' for Inactive)
REMARK    1  A    between atoms: N_2  and  C_4 
REMARK    2  A    between atoms: C_4  and  C_5 
REMARK    3  A    between atoms: C_8  and  C_9 
REMARK    4  A    between atoms: C_9  and  N_10 
REMARK       I    between atoms: N_10  and  C_11 
REMARK       I    between atoms: C_11  and  N_12 
REMARK    5  A    between atoms: N_12  and  C_13 
ROOT
HETATM    1  N   UNL     1     -41.900  58.618 -54.568  1.00  0.00    -0.339 N 
HETATM    2  C   UNL     1     -41.737  58.979 -53.268  1.00  0.00     0.322 C 
HETATM    3  N   UNL     1     -41.434  58.005 -52.371  1.00  0.00    -0.287 N 
HETATM    4  O   UNL     1     -41.870  60.138 -52.877  1.00  0.00    -0.247 OA
HETATM    5  H   UNL     1     -41.752  57.639 -54.800  1.00  0.00     0.164 HD
HETATM    6  H   UNL     1     -41.326  58.305 -51.414  1.00  0.00     0.172 HD
ENDROOT
BRANCH   1   7
HETATM    7  C   UNL     1     -42.056  59.575 -55.635  1.00  0.00     0.162 C 
BRANCH   7   8
HETATM    8  C   UNL     1     -42.742  59.028 -56.869  1.00  0.00    -0.040 A 
HETATM    9  C   UNL     1     -42.081  58.910 -58.097  1.00  0.00     0.009 A 
HETATM   10  C   UNL     1     -42.705  58.316 -59.197  1.00  0.00     0.009 A 
HETATM   11  C   UNL     1     -44.004  57.805 -59.086  1.00  0.00    -0.033 A 
HETATM   12  C   UNL     1     -44.675  57.923 -57.861  1.00  0.00     0.009 A 
HETATM   13  C   UNL     1     -44.048  58.526 -56.766  1.00  0.00     0.009 A 
BRANCH  11  14
HETATM   14  C   UNL     1     -44.641  57.085 -60.242  1.00  0.00     0.272 C 
BRANCH  14  15
HETATM   15  N   UNL     1     -45.596  55.995 -59.801  1.00  0.00    -0.075 N 
HETATM   16  C   UNL     1     -45.072  54.610 -60.065  1.00  0.00     0.269 C 
HETATM   17  H   UNL     1     -45.680  56.083 -58.782  1.00  0.00     0.279 HD
HETATM   18  C   UNL     1     -46.965  56.188 -60.383  1.00  0.00     0.269 C 
ENDBRANCH  14  15
ENDBRANCH  11  14
ENDBRANCH   7   8
ENDBRANCH   1   7
BRANCH   3  19
HETATM   19  C   UNL     1     -41.178  56.696 -52.657  1.00  0.00     0.175 A 
HETATM   20  S   UNL     1     -41.222  55.659 -51.310  1.00  0.00    -0.050 SA
HETATM   21  C   UNL     1     -40.796  54.337 -52.332  1.00  0.00     0.037 A 
HETATM   22  C   UNL     1     -40.664  54.804 -53.644  1.00  0.00     0.076 A 
HETATM   23  C   UNL     1     -40.590  52.990 -51.997  1.00  0.00     0.021 A 
HETATM   24  N   UNL     1     -40.896  56.163 -53.819  1.00  0.00    -0.223 NA
HETATM   25  C   UNL     1     -40.311  53.887 -54.655  1.00  0.00     0.033 A 
HETATM   26  C   UNL     1     -40.102  52.542 -54.331  1.00  0.00     0.002 A 
HETATM   27  C   UNL     1     -40.239  52.101 -53.019  1.00  0.00     0.002 A 
ENDBRANCH   3  19
TORSDOF 5
ENDMDL
MODEL 10
REMARK VINA RESULT:      -6.6     14.020     17.870
REMARK  5 active torsions:
REMARK  status: ('A' for Active; 'I' for Inactive)
REMARK    1  A    between atoms: N_2  and  C_4 
REMARK    2  A    between atoms: C_4  and  C_5 
REMARK    3  A    between atoms: C_8  and  C_9 
REMARK    4  A    between atoms: C_9  and  N_10 
REMARK       I    between atoms: N_10  and  C_11 
REMARK       I    between atoms: C_11  and  N_12 
REMARK    5  A    between atoms: N_12  and  C_13 
ROOT
HETATM    1  N   UNL     1     -34.721  41.422 -54.518  1.00  0.00    -0.339 N 
HETATM    2  C   UNL     1     -35.692  42.244 -54.040  1.00  0.00     0.322 C 
HETATM    3  N   UNL     1     -36.768  42.485 -54.833  1.00  0.00    -0.287 N 
HETATM    4  O   UNL     1     -35.622  42.786 -52.938  1.00  0.00    -0.247 OA
HETATM    5  H   UNL     1     -34.875  41.005 -55.433  1.00  0.00     0.164 HD
HETATM    6  H   UNL     1     -37.468  43.104 -54.451  1.00  0.00     0.172 HD
ENDROOT
BRANCH   1   7
HETATM    7  C   UNL     1     -33.618  40.958 -53.713  1.00  0.00     0.162 C 
BRANCH   7   8
HETATM    8  C   UNL     1     -32.686  40.001 -54.424  1.00  0.00    -0.040 A 
HETATM    9  C   UNL     1     -32.231  40.236 -55.727  1.00  0.00     0.009 A 
HETATM   10  C   UNL     1     -31.298  39.388 -56.329  1.00  0.00     0.009 A 
HETATM   11  C   UNL     1     -30.781  38.290 -55.628  1.00  0.00    -0.033 A 
HETATM   12  C   UNL     1     -31.236  38.044 -54.325  1.00  0.00     0.009 A 
HETATM   13  C   UNL     1     -32.176  38.893 -53.732  1.00  0.00     0.009 A 
BRANCH  11  14
HETATM   14  C   UNL     1     -29.711  37.431 -56.241  1.00  0.00     0.272 C 
BRANCH  14  15
HETATM   15  N   UNL     1     -28.524  38.232 -56.735  1.00  0.00    -0.075 N 
HETATM   16  C   UNL     1     -28.382  38.216 -58.231  1.00  0.00     0.269 C 
HETATM   17  H   UNL     1     -28.709  39.208 -56.472  1.00  0.00     0.279 HD
HETATM   18  C   UNL     1     -27.253  37.818 -56.054  1.00  0.00     0.269 C 
ENDBRANCH  14  15
ENDBRANCH  11  14
ENDBRANCH   7   8
ENDBRANCH   1   7
BRANCH   3  19
HETATM   19  C   UNL     1     -37.029  41.902 -56.038  1.00  0.00     0.175 A 
HETATM   20  S   UNL     1     -38.017  40.521 -55.954  1.00  0.00    -0.050 SA
HETATM   21  C   UNL     1     -37.874  40.333 -57.662  1.00  0.00     0.037 A 
HETATM   22  C   UNL     1     -37.077  41.367 -58.166  1.00  0.00     0.076 A 
HETATM   23  C   UNL     1     -38.422  39.343 -58.493  1.00  0.00     0.021 A 
HETATM   24  N   UNL     1     -36.605  42.269 -57.221  1.00  0.00    -0.223 NA
HETATM   25  C   UNL     1     -36.820  41.407 -59.552  1.00  0.00     0.033 A 
HETATM   26  C   UNL     1     -37.359  40.423 -60.388  1.00  0.00     0.002 A 
HETATM   27  C   UNL     1     -38.149  39.405 -59.863  1.00  0.00     0.002 A 
ENDBRANCH   3  19
TORSDOF 5
ENDMDL
