MODEL 1
REMARK VINA RESULT:      -9.2      0.000      0.000
REMARK  6 active torsions:
REMARK  status: ('A' for Active; 'I' for Inactive)
REMARK    1  A    between atoms: C_4  and  C_5 
REMARK    2  A    between atoms: C_5  and  N_6 
REMARK    3  A    between atoms: C_10  and  C_11 
REMARK    4  A    between atoms: C_11  and  C_12 
REMARK    5  A    between atoms: N_21  and  C_22 
REMARK    6  A    between atoms: C_22  and  C_23 
ROOT
HETATM    1  C   UNL     1     -43.514  58.440 -52.455  1.00  0.00     0.164 C 
HETATM    2  N   UNL     1     -42.055  58.395 -52.464  1.00  0.00    -0.319 N 
HETATM    3  C   UNL     1     -41.515  59.043 -53.550  1.00  0.00     0.326 C 
HETATM    4  O   UNL     1     -40.336  59.319 -53.671  1.00  0.00    -0.247 OA
HETATM    5  N   UNL     1     -42.511  59.297 -54.434  1.00  0.00    -0.265 N 
HETATM    6  C   UNL     1     -43.719  58.980 -53.883  1.00  0.00     0.263 C 
HETATM    7  O   UNL     1     -44.804  59.066 -54.447  1.00  0.00    -0.270 OA
HETATM    8  H   UNL     1     -41.516  58.357 -51.604  1.00  0.00     0.166 HD
ENDROOT
BRANCH   1   9
HETATM    9  C   UNL     1     -44.085  56.995 -52.212  1.00  0.00     0.033 C 
HETATM   10  C   UNL     1     -43.644  56.311 -50.908  1.00  0.00     0.036 C 
HETATM   11  C   UNL     1     -42.245  55.718 -50.935  1.00  0.00     0.235 C 
HETATM   12  N   UNL     1     -41.997  54.862 -52.152  1.00  0.00    -0.067 N 
HETATM   13  H   UNL     1     -42.465  53.968 -51.965  1.00  0.00     0.280 HD
HETATM   14  C   UNL     1     -42.521  55.376 -53.471  1.00  0.00     0.235 C 
HETATM   15  C   UNL     1     -43.909  55.976 -53.350  1.00  0.00     0.036 C 
BRANCH  12  16
HETATM   16  C   UNL     1     -40.508  54.534 -52.315  1.00  0.00     0.274 C 
BRANCH  16  17
HETATM   17  C   UNL     1     -40.217  53.104 -52.699  1.00  0.00    -0.026 A 
HETATM   18  C   UNL     1     -39.996  52.167 -51.666  1.00  0.00     0.016 A 
HETATM   19  C   UNL     1     -39.780  50.814 -51.941  1.00  0.00    -0.061 A 
HETATM   20  C   UNL     1     -39.560  49.820 -50.838  1.00  0.00     0.048 C 
HETATM   21  C   UNL     1     -39.757  50.395 -53.271  1.00  0.00     0.007 A 
HETATM   22  C   UNL     1     -39.948  51.313 -54.306  1.00  0.00     0.008 A 
HETATM   23  C   UNL     1     -40.190  52.669 -54.039  1.00  0.00    -0.054 A 
HETATM   24  C   UNL     1     -40.329  53.615 -55.200  1.00  0.00     0.049 C 
ENDBRANCH  16  17
ENDBRANCH  12  16
ENDBRANCH   1   9
BRANCH   1  25
HETATM   25  C   UNL     1     -43.946  59.418 -51.361  1.00  0.00     0.072 A 
HETATM   26  N   UNL     1     -45.264  59.352 -51.022  1.00  0.00    -0.262 NA
HETATM   27  C   UNL     1     -45.708  60.154 -50.028  1.00  0.00     0.117 A 
HETATM   28  C   UNL     1     -44.903  61.046 -49.348  1.00  0.00     0.019 A 
HETATM   29  C   UNL     1     -43.562  61.116 -49.703  1.00  0.00     0.003 A 
HETATM   30  C   UNL     1     -43.072  60.295 -50.717  1.00  0.00     0.030 A 
ENDBRANCH   1  25
BRANCH   5  31
HETATM   31  C   UNL     1     -42.332  59.933 -55.728  1.00  0.00     0.168 C 
BRANCH  31  32
HETATM   32  C   UNL     1     -42.375  58.929 -56.885  1.00  0.00     0.140 C 
HETATM   33  O   UNL     1     -43.641  59.019 -57.575  1.00  0.00    -0.384 OA
HETATM   34  C   UNL     1     -44.240  57.717 -57.608  1.00  0.00     0.168 C 
HETATM   35  C   UNL     1     -43.120  56.733 -57.367  1.00  0.00     0.029 C 
HETATM   36  C   UNL     1     -42.249  57.490 -56.396  1.00  0.00     0.036 C 
ENDBRANCH  31  32
ENDBRANCH   5  31
TORSDOF 6
ENDMDL
MODEL 2
REMARK VINA RESULT:      -9.1      0.728      1.676
REMARK  6 active torsions:
REMARK  status: ('A' for Active; 'I' for Inactive)
REMARK    1  A    between atoms: C_4  and  C_5 
REMARK    2  A    between atoms: C_5  and  N_6 
REMARK    3  A    between atoms: C_10  and  C_11 
REMARK    4  A    between atoms: C_11  and  C_12 
REMARK    5  A    between atoms: N_21  and  C_22 
REMARK    6  A    between atoms: C_22  and  C_23 
ROOT
HETATM    1  C   UNL     1     -43.521  58.398 -52.496  1.00  0.00     0.164 C 
HETATM    2  N   UNL     1     -42.064  58.316 -52.486  1.00  0.00    -0.319 N 
HETATM    3  C   UNL     1     -41.491  58.982 -53.543  1.00  0.00     0.326 C 
HETATM    4  O   UNL     1     -40.303  59.232 -53.638  1.00  0.00    -0.247 OA
HETATM    5  N   UNL     1     -42.467  59.288 -54.433  1.00  0.00    -0.265 N 
HETATM    6  C   UNL     1     -43.691  58.986 -53.910  1.00  0.00     0.263 C 
HETATM    7  O   UNL     1     -44.764  59.116 -54.487  1.00  0.00    -0.270 OA
HETATM    8  H   UNL     1     -41.539  58.237 -51.620  1.00  0.00     0.166 HD
ENDROOT
BRANCH   1   9
HETATM    9  C   UNL     1     -44.132  56.961 -52.306  1.00  0.00     0.033 C 
HETATM   10  C   UNL     1     -43.732  56.228 -51.015  1.00  0.00     0.036 C 
HETATM   11  C   UNL     1     -42.348  55.601 -51.035  1.00  0.00     0.235 C 
HETATM   12  N   UNL     1     -42.099  54.775 -52.272  1.00  0.00    -0.067 N 
HETATM   13  H   UNL     1     -42.592  53.888 -52.120  1.00  0.00     0.280 HD
HETATM   14  C   UNL     1     -42.586  55.341 -53.584  1.00  0.00     0.235 C 
HETATM   15  C   UNL     1     -43.960  55.971 -53.471  1.00  0.00     0.036 C 
BRANCH  12  16
HETATM   16  C   UNL     1     -40.616  54.414 -52.418  1.00  0.00     0.274 C 
BRANCH  16  17
HETATM   17  C   UNL     1     -40.306  52.947 -52.254  1.00  0.00    -0.026 A 
HETATM   18  C   UNL     1     -40.149  52.163 -53.419  1.00  0.00     0.016 A 
HETATM   19  C   UNL     1     -39.802  50.812 -53.349  1.00  0.00    -0.061 A 
HETATM   20  C   UNL     1     -39.622  49.989 -54.591  1.00  0.00     0.048 C 
HETATM   21  C   UNL     1     -39.637  50.226 -52.095  1.00  0.00     0.007 A 
HETATM   22  C   UNL     1     -39.813  50.979 -50.932  1.00  0.00     0.008 A 
HETATM   23  C   UNL     1     -40.138  52.343 -50.992  1.00  0.00    -0.054 A 
HETATM   24  C   UNL     1     -40.372  53.082 -49.703  1.00  0.00     0.049 C 
ENDBRANCH  16  17
ENDBRANCH  12  16
ENDBRANCH   1   9
BRANCH   1  25
HETATM   25  C   UNL     1     -43.945  59.353 -51.380  1.00  0.00     0.072 A 
HETATM   26  N   UNL     1     -42.928  60.064 -50.818  1.00  0.00    -0.262 NA
HETATM   27  C   UNL     1     -43.234  60.965 -49.856  1.00  0.00     0.117 A 
HETATM   28  C   UNL     1     -44.518  61.193 -49.403  1.00  0.00     0.019 A 
HETATM   29  C   UNL     1     -45.551  60.460 -49.974  1.00  0.00     0.003 A 
HETATM   30  C   UNL     1     -45.268  59.531 -50.975  1.00  0.00     0.030 A 
ENDBRANCH   1  25
BRANCH   5  31
HETATM   31  C   UNL     1     -42.251  59.958 -55.704  1.00  0.00     0.168 C 
BRANCH  31  32
HETATM   32  C   UNL     1     -42.331  58.996 -56.895  1.00  0.00     0.140 C 
HETATM   33  O   UNL     1     -43.592  59.157 -57.582  1.00  0.00    -0.384 OA
HETATM   34  C   UNL     1     -44.240  57.882 -57.659  1.00  0.00     0.168 C 
HETATM   35  C   UNL     1     -43.159  56.848 -57.450  1.00  0.00     0.029 C 
HETATM   36  C   UNL     1     -42.260  57.538 -56.454  1.00  0.00     0.036 C 
ENDBRANCH  31  32
ENDBRANCH   5  31
TORSDOF 6
ENDMDL
MODEL 3
REMARK VINA RESULT:      -8.7      2.244      5.467
REMARK  6 active torsions:
REMARK  status: ('A' for Active; 'I' for Inactive)
REMARK    1  A    between atoms: C_4  and  C_5 
REMARK    2  A    between atoms: C_5  and  N_6 
REMARK    3  A    between atoms: C_10  and  C_11 
REMARK    4  A    between atoms: C_11  and  C_12 
REMARK    5  A    between atoms: N_21  and  C_22 
REMARK    6  A    between atoms: C_22  and  C_23 
ROOT
HETATM    1  C   UNL     1     -43.058  59.546 -51.944  1.00  0.00     0.164 C 
HETATM    2  N   UNL     1     -44.068  58.576 -51.532  1.00  0.00    -0.319 N 
HETATM    3  C   UNL     1     -45.064  59.143 -50.772  1.00  0.00     0.326 C 
HETATM    4  O   UNL     1     -46.112  58.592 -50.489  1.00  0.00    -0.247 OA
HETATM    5  N   UNL     1     -44.664  60.385 -50.403  1.00  0.00    -0.265 N 
HETATM    6  C   UNL     1     -43.502  60.712 -51.039  1.00  0.00     0.263 C 
HETATM    7  O   UNL     1     -42.874  61.753 -50.886  1.00  0.00    -0.270 OA
HETATM    8  H   UNL     1     -44.294  57.765 -52.101  1.00  0.00     0.166 HD
ENDROOT
BRANCH   1   9
HETATM    9  C   UNL     1     -41.625  58.981 -51.629  1.00  0.00     0.033 C 
HETATM   10  C   UNL     1     -40.847  58.421 -52.832  1.00  0.00     0.036 C 
HETATM   11  C   UNL     1     -41.263  57.028 -53.274  1.00  0.00     0.235 C 
HETATM   12  N   UNL     1     -41.343  56.051 -52.128  1.00  0.00    -0.067 N 
HETATM   13  H   UNL     1     -40.373  55.787 -51.918  1.00  0.00     0.280 HD
HETATM   14  C   UNL     1     -41.961  56.547 -50.844  1.00  0.00     0.235 C 
HETATM   15  C   UNL     1     -41.516  57.953 -50.490  1.00  0.00     0.036 C 
BRANCH  12  16
HETATM   16  C   UNL     1     -42.052  54.756 -52.541  1.00  0.00     0.274 C 
BRANCH  16  17
HETATM   17  C   UNL     1     -41.129  53.617 -52.897  1.00  0.00    -0.026 A 
HETATM   18  C   UNL     1     -40.720  52.743 -51.866  1.00  0.00     0.016 A 
HETATM   19  C   UNL     1     -39.914  51.631 -52.127  1.00  0.00    -0.061 A 
HETATM   20  C   UNL     1     -39.495  50.698 -51.029  1.00  0.00     0.048 C 
HETATM   21  C   UNL     1     -39.487  51.405 -53.435  1.00  0.00     0.007 A 
HETATM   22  C   UNL     1     -39.861  52.274 -54.463  1.00  0.00     0.008 A 
HETATM   23  C   UNL     1     -40.690  53.379 -54.214  1.00  0.00    -0.054 A 
HETATM   24  C   UNL     1     -41.007  54.309 -55.353  1.00  0.00     0.049 C 
ENDBRANCH  16  17
ENDBRANCH  12  16
ENDBRANCH   1   9
BRANCH   1  25
HETATM   25  C   UNL     1     -43.251  59.820 -53.436  1.00  0.00     0.072 A 
HETATM   26  N   UNL     1     -44.091  58.957 -54.073  1.00  0.00    -0.262 NA
HETATM   27  C   UNL     1     -44.347  59.166 -55.384  1.00  0.00     0.117 A 
HETATM   28  C   UNL     1     -43.795  60.198 -56.116  1.00  0.00     0.019 A 
HETATM   29  C   UNL     1     -42.933  61.071 -55.464  1.00  0.00     0.003 A 
HETATM   30  C   UNL     1     -42.657  60.888 -54.110  1.00  0.00     0.030 A 
ENDBRANCH   1  25
BRANCH   5  31
HETATM   31  C   UNL     1     -45.427  61.285 -49.556  1.00  0.00     0.168 C 
BRANCH  31  32
HETATM   32  C   UNL     1     -45.083  61.124 -48.071  1.00  0.00     0.140 C 
HETATM   33  O   UNL     1     -46.114  60.367 -47.400  1.00  0.00    -0.384 OA
HETATM   34  C   UNL     1     -46.591  61.129 -46.284  1.00  0.00     0.168 C 
HETATM   35  C   UNL     1     -45.516  62.144 -45.978  1.00  0.00     0.029 C 
HETATM   36  C   UNL     1     -44.997  62.469 -47.357  1.00  0.00     0.036 C 
ENDBRANCH  31  32
ENDBRANCH   5  31
TORSDOF 6
ENDMDL
MODEL 4
REMARK VINA RESULT:      -8.7      2.487      5.826
REMARK  6 active torsions:
REMARK  status: ('A' for Active; 'I' for Inactive)
REMARK    1  A    between atoms: C_4  and  C_5 
REMARK    2  A    between atoms: C_5  and  N_6 
REMARK    3  A    between atoms: C_10  and  C_11 
REMARK    4  A    between atoms: C_11  and  C_12 
REMARK    5  A    between atoms: N_21  and  C_22 
REMARK    6  A    between atoms: C_22  and  C_23 
ROOT
HETATM    1  C   UNL     1     -43.560  60.122 -52.389  1.00  0.00     0.164 C 
HETATM    2  N   UNL     1     -44.413  59.037 -51.913  1.00  0.00    -0.319 N 
HETATM    3  C   UNL     1     -45.306  59.451 -50.954  1.00  0.00     0.326 C 
HETATM    4  O   UNL     1     -46.249  58.789 -50.559  1.00  0.00    -0.247 OA
HETATM    5  N   UNL     1     -44.942  60.689 -50.538  1.00  0.00    -0.265 N 
HETATM    6  C   UNL     1     -43.931  61.168 -51.319  1.00  0.00     0.263 C 
HETATM    7  O   UNL     1     -43.365  62.245 -51.172  1.00  0.00    -0.270 OA
HETATM    8  H   UNL     1     -44.670  58.258 -52.512  1.00  0.00     0.166 HD
ENDROOT
BRANCH   1   9
HETATM    9  C   UNL     1     -42.057  59.662 -52.363  1.00  0.00     0.033 C 
HETATM   10  C   UNL     1     -41.612  58.761 -53.526  1.00  0.00     0.036 C 
HETATM   11  C   UNL     1     -42.026  57.303 -53.405  1.00  0.00     0.235 C 
HETATM   12  N   UNL     1     -41.699  56.714 -52.056  1.00  0.00    -0.067 N 
HETATM   13  H   UNL     1     -40.692  56.515 -52.075  1.00  0.00     0.280 HD
HETATM   14  C   UNL     1     -41.963  57.578 -50.846  1.00  0.00     0.235 C 
HETATM   15  C   UNL     1     -41.547  59.020 -51.061  1.00  0.00     0.036 C 
BRANCH  12  16
HETATM   16  C   UNL     1     -42.392  55.362 -51.849  1.00  0.00     0.274 C 
BRANCH  16  17
HETATM   17  C   UNL     1     -41.462  54.175 -51.821  1.00  0.00    -0.026 A 
HETATM   18  C   UNL     1     -41.248  53.466 -53.024  1.00  0.00     0.016 A 
HETATM   19  C   UNL     1     -40.355  52.393 -53.092  1.00  0.00    -0.061 A 
HETATM   20  C   UNL     1     -40.123  51.653 -54.376  1.00  0.00     0.048 C 
HETATM   21  C   UNL     1     -39.686  52.004 -51.932  1.00  0.00     0.007 A 
HETATM   22  C   UNL     1     -39.904  52.678 -50.728  1.00  0.00     0.008 A 
HETATM   23  C   UNL     1     -40.780  53.772 -50.656  1.00  0.00    -0.054 A 
HETATM   24  C   UNL     1     -41.015  54.415 -49.317  1.00  0.00     0.049 C 
ENDBRANCH  16  17
ENDBRANCH  12  16
ENDBRANCH   1   9
BRANCH   1  25
HETATM   25  C   UNL     1     -44.020  60.497 -53.798  1.00  0.00     0.072 A 
HETATM   26  N   UNL     1     -43.382  61.572 -54.342  1.00  0.00    -0.262 NA
HETATM   27  C   UNL     1     -43.704  61.933 -55.605  1.00  0.00     0.117 A 
HETATM   28  C   UNL     1     -44.651  61.281 -56.369  1.00  0.00     0.019 A 
HETATM   29  C   UNL     1     -45.304  60.192 -55.808  1.00  0.00     0.003 A 
HETATM   30  C   UNL     1     -44.988  59.789 -54.511  1.00  0.00     0.030 A 
ENDBRANCH   1  25
BRANCH   5  31
HETATM   31  C   UNL     1     -45.617  61.448 -49.499  1.00  0.00     0.168 C 
BRANCH  31  32
HETATM   32  C   UNL     1     -45.133  61.073 -48.093  1.00  0.00     0.140 C 
HETATM   33  O   UNL     1     -46.075  60.174 -47.466  1.00  0.00    -0.384 OA
HETATM   34  C   UNL     1     -46.471  60.730 -46.207  1.00  0.00     0.168 C 
HETATM   35  C   UNL     1     -45.406  61.734 -45.836  1.00  0.00     0.029 C 
HETATM   36  C   UNL     1     -45.026  62.293 -47.184  1.00  0.00     0.036 C 
ENDBRANCH  31  32
ENDBRANCH   5  31
TORSDOF 6
ENDMDL
MODEL 5
REMARK VINA RESULT:      -8.5      1.869      2.644
REMARK  6 active torsions:
REMARK  status: ('A' for Active; 'I' for Inactive)
REMARK    1  A    between atoms: C_4  and  C_5 
REMARK    2  A    between atoms: C_5  and  N_6 
REMARK    3  A    between atoms: C_10  and  C_11 
REMARK    4  A    between atoms: C_11  and  C_12 
REMARK    5  A    between atoms: N_21  and  C_22 
REMARK    6  A    between atoms: C_22  and  C_23 
ROOT
HETATM    1  C   UNL     1     -44.192  58.810 -54.678  1.00  0.00     0.164 C 
HETATM    2  N   UNL     1     -42.787  58.664 -55.047  1.00  0.00    -0.319 N 
HETATM    3  C   UNL     1     -42.558  58.944 -56.373  1.00  0.00     0.326 C 
HETATM    4  O   UNL     1     -41.455  59.094 -56.866  1.00  0.00    -0.247 OA
HETATM    5  N   UNL     1     -43.755  59.010 -57.008  1.00  0.00    -0.265 N 
HETATM    6  C   UNL     1     -44.772  58.943 -56.100  1.00  0.00     0.263 C 
HETATM    7  O   UNL     1     -45.968  58.943 -56.367  1.00  0.00    -0.270 OA
HETATM    8  H   UNL     1     -42.039  58.829 -54.380  1.00  0.00     0.166 HD
ENDROOT
BRANCH   1   9
HETATM    9  C   UNL     1     -44.667  57.533 -53.893  1.00  0.00     0.033 C 
HETATM   10  C   UNL     1     -44.116  57.380 -52.466  1.00  0.00     0.036 C 
HETATM   11  C   UNL     1     -42.690  56.862 -52.379  1.00  0.00     0.235 C 
HETATM   12  N   UNL     1     -42.463  55.634 -53.224  1.00  0.00    -0.067 N 
HETATM   13  H   UNL     1     -42.870  54.853 -52.696  1.00  0.00     0.280 HD
HETATM   14  C   UNL     1     -43.088  55.619 -54.598  1.00  0.00     0.235 C 
HETATM   15  C   UNL     1     -44.498  56.178 -54.600  1.00  0.00     0.036 C 
BRANCH  12  16
HETATM   16  C   UNL     1     -40.970  55.316 -53.365  1.00  0.00     0.274 C 
BRANCH  16  17
HETATM   17  C   UNL     1     -40.567  53.948 -52.871  1.00  0.00    -0.026 A 
HETATM   18  C   UNL     1     -40.434  52.909 -53.818  1.00  0.00     0.016 A 
HETATM   19  C   UNL     1     -40.007  51.632 -53.447  1.00  0.00    -0.061 A 
HETATM   20  C   UNL     1     -39.854  50.536 -54.461  1.00  0.00     0.048 C 
HETATM   21  C   UNL     1     -39.736  51.380 -52.103  1.00  0.00     0.007 A 
HETATM   22  C   UNL     1     -39.886  52.389 -51.149  1.00  0.00     0.008 A 
HETATM   23  C   UNL     1     -40.291  53.681 -51.516  1.00  0.00    -0.054 A 
HETATM   24  C   UNL     1     -40.491  54.705 -50.432  1.00  0.00     0.049 C 
ENDBRANCH  16  17
ENDBRANCH  12  16
ENDBRANCH   1   9
BRANCH   1  25
HETATM   25  C   UNL     1     -44.326  60.082 -53.839  1.00  0.00     0.072 A 
HETATM   26  N   UNL     1     -45.604  60.408 -53.496  1.00  0.00    -0.262 NA
HETATM   27  C   UNL     1     -45.796  61.495 -52.713  1.00  0.00     0.117 A 
HETATM   28  C   UNL     1     -44.771  62.298 -52.255  1.00  0.00     0.019 A 
HETATM   29  C   UNL     1     -43.472  61.965 -52.614  1.00  0.00     0.003 A 
HETATM   30  C   UNL     1     -43.240  60.845 -53.412  1.00  0.00     0.030 A 
ENDBRANCH   1  25
BRANCH   5  31
HETATM   31  C   UNL     1     -43.929  59.246 -58.430  1.00  0.00     0.168 C 
BRANCH  31  32
HETATM   32  C   UNL     1     -43.925  57.947 -59.245  1.00  0.00     0.140 C 
HETATM   33  O   UNL     1     -44.262  56.827 -58.397  1.00  0.00    -0.384 OA
HETATM   34  C   UNL     1     -43.228  55.842 -58.504  1.00  0.00     0.168 C 
HETATM   35  C   UNL     1     -42.493  56.141 -59.789  1.00  0.00     0.029 C 
HETATM   36  C   UNL     1     -42.550  57.648 -59.832  1.00  0.00     0.036 C 
ENDBRANCH  31  32
ENDBRANCH   5  31
TORSDOF 6
ENDMDL
MODEL 6
REMARK VINA RESULT:      -8.4      1.932      3.233
REMARK  6 active torsions:
REMARK  status: ('A' for Active; 'I' for Inactive)
REMARK    1  A    between atoms: C_4  and  C_5 
REMARK    2  A    between atoms: C_5  and  N_6 
REMARK    3  A    between atoms: C_10  and  C_11 
REMARK    4  A    between atoms: C_11  and  C_12 
REMARK    5  A    between atoms: N_21  and  C_22 
REMARK    6  A    between atoms: C_22  and  C_23 
ROOT
HETATM    1  C   UNL     1     -43.242  57.915 -55.346  1.00  0.00     0.164 C 
HETATM    2  N   UNL     1     -42.084  58.286 -56.153  1.00  0.00    -0.319 N 
HETATM    3  C   UNL     1     -42.292  59.437 -56.875  1.00  0.00     0.326 C 
HETATM    4  O   UNL     1     -41.417  60.056 -57.452  1.00  0.00    -0.247 OA
HETATM    5  N   UNL     1     -43.614  59.736 -56.830  1.00  0.00    -0.265 N 
HETATM    6  C   UNL     1     -44.254  58.902 -55.959  1.00  0.00     0.263 C 
HETATM    7  O   UNL     1     -45.458  58.900 -55.728  1.00  0.00    -0.270 OA
HETATM    8  H   UNL     1     -41.137  58.058 -55.865  1.00  0.00     0.166 HD
ENDROOT
BRANCH   1   9
HETATM    9  C   UNL     1     -43.583  56.397 -55.579  1.00  0.00     0.033 C 
HETATM   10  C   UNL     1     -44.129  55.638 -54.358  1.00  0.00     0.036 C 
HETATM   11  C   UNL     1     -43.079  55.213 -53.344  1.00  0.00     0.235 C 
HETATM   12  N   UNL     1     -41.900  54.520 -53.980  1.00  0.00    -0.067 N 
HETATM   13  H   UNL     1     -42.215  53.564 -54.183  1.00  0.00     0.280 HD
HETATM   14  C   UNL     1     -41.374  55.102 -55.269  1.00  0.00     0.235 C 
HETATM   15  C   UNL     1     -42.485  55.526 -56.211  1.00  0.00     0.036 C 
BRANCH  12  16
HETATM   16  C   UNL     1     -40.732  54.380 -52.997  1.00  0.00     0.274 C 
BRANCH  16  17
HETATM   17  C   UNL     1     -40.334  52.958 -52.690  1.00  0.00    -0.026 A 
HETATM   18  C   UNL     1     -40.236  52.045 -53.763  1.00  0.00     0.016 A 
HETATM   19  C   UNL     1     -39.815  50.727 -53.567  1.00  0.00    -0.061 A 
HETATM   20  C   UNL     1     -39.700  49.767 -54.714  1.00  0.00     0.048 C 
HETATM   21  C   UNL     1     -39.513  50.306 -52.272  1.00  0.00     0.007 A 
HETATM   22  C   UNL     1     -39.628  51.188 -51.195  1.00  0.00     0.008 A 
HETATM   23  C   UNL     1     -40.027  52.520 -51.386  1.00  0.00    -0.054 A 
HETATM   24  C   UNL     1     -40.188  53.400 -50.177  1.00  0.00     0.049 C 
ENDBRANCH  16  17
ENDBRANCH  12  16
ENDBRANCH   1   9
BRANCH   1  25
HETATM   25  C   UNL     1     -42.908  58.209 -53.882  1.00  0.00     0.072 A 
HETATM   26  N   UNL     1     -41.602  58.021 -53.545  1.00  0.00    -0.262 NA
HETATM   27  C   UNL     1     -41.222  58.308 -52.278  1.00  0.00     0.117 A 
HETATM   28  C   UNL     1     -42.089  58.767 -51.306  1.00  0.00     0.019 A 
HETATM   29  C   UNL     1     -43.421  58.949 -51.653  1.00  0.00     0.003 A 
HETATM   30  C   UNL     1     -43.841  58.672 -52.954  1.00  0.00     0.030 A 
ENDBRANCH   1  25
BRANCH   5  31
HETATM   31  C   UNL     1     -44.236  60.860 -57.508  1.00  0.00     0.168 C 
BRANCH  31  32
HETATM   32  C   UNL     1     -44.658  60.518 -58.942  1.00  0.00     0.140 C 
HETATM   33  O   UNL     1     -44.719  59.085 -59.115  1.00  0.00    -0.384 OA
HETATM   34  C   UNL     1     -43.893  58.720 -60.227  1.00  0.00     0.168 C 
HETATM   35  C   UNL     1     -43.707  59.977 -61.042  1.00  0.00     0.029 C 
HETATM   36  C   UNL     1     -43.657  61.036 -59.969  1.00  0.00     0.036 C 
ENDBRANCH  31  32
ENDBRANCH   5  31
TORSDOF 6
ENDMDL
MODEL 7
REMARK VINA RESULT:      -8.2      1.883      2.705
REMARK  6 active torsions:
REMARK  status: ('A' for Active; 'I' for Inactive)
REMARK    1  A    between atoms: C_4  and  C_5 
REMARK    2  A    between atoms: C_5  and  N_6 
REMARK    3  A    between atoms: C_10  and  C_11 
REMARK    4  A    between atoms: C_11  and  C_12 
REMARK    5  A    between atoms: N_21  and  C_22 
REMARK    6  A    between atoms: C_22  and  C_23 
ROOT
HETATM    1  C   UNL     1     -44.195  58.636 -53.894  1.00  0.00     0.164 C 
HETATM    2  N   UNL     1     -42.854  58.922 -53.395  1.00  0.00    -0.319 N 
HETATM    3  C   UNL     1     -42.001  59.345 -54.387  1.00  0.00     0.326 C 
HETATM    4  O   UNL     1     -40.905  59.836 -54.190  1.00  0.00    -0.247 OA
HETATM    5  N   UNL     1     -42.591  59.109 -55.585  1.00  0.00    -0.265 N 
HETATM    6  C   UNL     1     -43.878  58.695 -55.401  1.00  0.00     0.263 C 
HETATM    7  O   UNL     1     -44.657  58.371 -56.290  1.00  0.00    -0.270 OA
HETATM    8  H   UNL     1     -42.695  59.248 -52.446  1.00  0.00     0.166 HD
ENDROOT
BRANCH   1   9
HETATM    9  C   UNL     1     -44.662  57.227 -53.377  1.00  0.00     0.033 C 
HETATM   10  C   UNL     1     -44.138  56.814 -51.991  1.00  0.00     0.036 C 
HETATM   11  C   UNL     1     -42.704  56.310 -51.971  1.00  0.00     0.235 C 
HETATM   12  N   UNL     1     -42.437  55.267 -53.027  1.00  0.00    -0.067 N 
HETATM   13  H   UNL     1     -42.840  54.395 -52.667  1.00  0.00     0.280 HD
HETATM   14  C   UNL     1     -43.034  55.505 -54.394  1.00  0.00     0.235 C 
HETATM   15  C   UNL     1     -44.454  56.033 -54.323  1.00  0.00     0.036 C 
BRANCH  12  16
HETATM   16  C   UNL     1     -40.936  55.004 -53.191  1.00  0.00     0.274 C 
BRANCH  16  17
HETATM   17  C   UNL     1     -40.493  53.617 -52.796  1.00  0.00    -0.026 A 
HETATM   18  C   UNL     1     -40.427  52.626 -53.801  1.00  0.00     0.016 A 
HETATM   19  C   UNL     1     -39.969  51.335 -53.525  1.00  0.00    -0.061 A 
HETATM   20  C   UNL     1     -39.889  50.290 -54.600  1.00  0.00     0.048 C 
HETATM   21  C   UNL     1     -39.597  51.021 -52.219  1.00  0.00     0.007 A 
HETATM   22  C   UNL     1     -39.678  51.980 -51.208  1.00  0.00     0.008 A 
HETATM   23  C   UNL     1     -40.114  53.287 -51.480  1.00  0.00    -0.054 A 
HETATM   24  C   UNL     1     -40.236  54.255 -50.336  1.00  0.00     0.049 C 
ENDBRANCH  16  17
ENDBRANCH  12  16
ENDBRANCH   1   9
BRANCH   1  25
HETATM   25  C   UNL     1     -45.121  59.757 -53.419  1.00  0.00     0.072 A 
HETATM   26  N   UNL     1     -45.367  60.727 -54.343  1.00  0.00    -0.262 NA
HETATM   27  C   UNL     1     -46.215  61.727 -54.009  1.00  0.00     0.117 A 
HETATM   28  C   UNL     1     -46.836  61.824 -52.780  1.00  0.00     0.019 A 
HETATM   29  C   UNL     1     -46.576  60.837 -51.838  1.00  0.00     0.003 A 
HETATM   30  C   UNL     1     -45.713  59.788 -52.156  1.00  0.00     0.030 A 
ENDBRANCH   1  25
BRANCH   5  31
HETATM   31  C   UNL     1     -41.985  59.382 -56.876  1.00  0.00     0.168 C 
BRANCH  31  32
HETATM   32  C   UNL     1     -42.224  60.822 -57.343  1.00  0.00     0.140 C 
HETATM   33  O   UNL     1     -43.401  60.887 -58.178  1.00  0.00    -0.384 OA
HETATM   34  C   UNL     1     -43.046  61.493 -59.427  1.00  0.00     0.168 C 
HETATM   35  C   UNL     1     -41.760  62.245 -59.178  1.00  0.00     0.029 C 
HETATM   36  C   UNL     1     -41.066  61.348 -58.184  1.00  0.00     0.036 C 
ENDBRANCH  31  32
ENDBRANCH   5  31
TORSDOF 6
ENDMDL
MODEL 8
REMARK VINA RESULT:      -8.1      2.007      4.048
REMARK  6 active torsions:
REMARK  status: ('A' for Active; 'I' for Inactive)
REMARK    1  A    between atoms: C_4  and  C_5 
REMARK    2  A    between atoms: C_5  and  N_6 
REMARK    3  A    between atoms: C_10  and  C_11 
REMARK    4  A    between atoms: C_11  and  C_12 
REMARK    5  A    between atoms: N_21  and  C_22 
REMARK    6  A    between atoms: C_22  and  C_23 
ROOT
HETATM    1  C   UNL     1     -43.782  58.682 -52.937  1.00  0.00     0.164 C 
HETATM    2  N   UNL     1     -43.630  59.006 -54.353  1.00  0.00    -0.319 N 
HETATM    3  C   UNL     1     -44.191  60.217 -54.680  1.00  0.00     0.326 C 
HETATM    4  O   UNL     1     -44.014  60.795 -55.737  1.00  0.00    -0.247 OA
HETATM    5  N   UNL     1     -44.958  60.626 -53.639  1.00  0.00    -0.265 N 
HETATM    6  C   UNL     1     -44.784  59.794 -52.572  1.00  0.00     0.263 C 
HETATM    7  O   UNL     1     -45.366  59.882 -51.497  1.00  0.00    -0.270 OA
HETATM    8  H   UNL     1     -42.836  58.676 -54.894  1.00  0.00     0.166 HD
ENDROOT
BRANCH   1   9
HETATM    9  C   UNL     1     -44.340  57.220 -52.786  1.00  0.00     0.033 C 
HETATM   10  C   UNL     1     -43.903  56.463 -51.522  1.00  0.00     0.036 C 
HETATM   11  C   UNL     1     -42.498  55.886 -51.572  1.00  0.00     0.235 C 
HETATM   12  N   UNL     1     -42.231  55.108 -52.835  1.00  0.00    -0.067 N 
HETATM   13  H   UNL     1     -42.692  54.200 -52.707  1.00  0.00     0.280 HD
HETATM   14  C   UNL     1     -42.749  55.695 -54.126  1.00  0.00     0.235 C 
HETATM   15  C   UNL     1     -44.144  56.273 -53.982  1.00  0.00     0.036 C 
BRANCH  12  16
HETATM   16  C   UNL     1     -40.738  54.804 -53.004  1.00  0.00     0.274 C 
BRANCH  16  17
HETATM   17  C   UNL     1     -40.346  53.381 -52.694  1.00  0.00    -0.026 A 
HETATM   18  C   UNL     1     -40.369  52.437 -53.745  1.00  0.00     0.016 A 
HETATM   19  C   UNL     1     -39.962  51.115 -53.550  1.00  0.00    -0.061 A 
HETATM   20  C   UNL     1     -39.976  50.121 -54.674  1.00  0.00     0.048 C 
HETATM   21  C   UNL     1     -39.552  50.721 -52.276  1.00  0.00     0.007 A 
HETATM   22  C   UNL     1     -39.546  51.634 -51.220  1.00  0.00     0.008 A 
HETATM   23  C   UNL     1     -39.930  52.970 -51.412  1.00  0.00    -0.054 A 
HETATM   24  C   UNL     1     -39.958  53.887 -50.219  1.00  0.00     0.049 C 
ENDBRANCH  16  17
ENDBRANCH  12  16
ENDBRANCH   1   9
BRANCH   1  25
HETATM   25  C   UNL     1     -42.415  58.846 -52.270  1.00  0.00     0.072 A 
HETATM   26  N   UNL     1     -41.351  58.517 -53.055  1.00  0.00    -0.262 NA
HETATM   27  C   UNL     1     -40.108  58.682 -52.548  1.00  0.00     0.117 A 
HETATM   28  C   UNL     1     -39.859  59.151 -51.274  1.00  0.00     0.019 A 
HETATM   29  C   UNL     1     -40.946  59.477 -50.474  1.00  0.00     0.003 A 
HETATM   30  C   UNL     1     -42.240  59.328 -50.972  1.00  0.00     0.030 A 
ENDBRANCH   1  25
BRANCH   5  31
HETATM   31  C   UNL     1     -45.750  61.844 -53.620  1.00  0.00     0.168 C 
BRANCH  31  32
HETATM   32  C   UNL     1     -44.995  63.023 -52.995  1.00  0.00     0.140 C 
HETATM   33  O   UNL     1     -43.599  62.690 -52.830  1.00  0.00    -0.384 OA
HETATM   34  C   UNL     1     -43.237  62.894 -51.459  1.00  0.00     0.168 C 
HETATM   35  C   UNL     1     -44.282  63.818 -50.882  1.00  0.00     0.029 C 
HETATM   36  C   UNL     1     -45.525  63.369 -51.609  1.00  0.00     0.036 C 
ENDBRANCH  31  32
ENDBRANCH   5  31
TORSDOF 6
ENDMDL
MODEL 9
REMARK VINA RESULT:      -8.0      1.941      4.344
REMARK  6 active torsions:
REMARK  status: ('A' for Active; 'I' for Inactive)
REMARK    1  A    between atoms: C_4  and  C_5 
REMARK    2  A    between atoms: C_5  and  N_6 
REMARK    3  A    between atoms: C_10  and  C_11 
REMARK    4  A    between atoms: C_11  and  C_12 
REMARK    5  A    between atoms: N_21  and  C_22 
REMARK    6  A    between atoms: C_22  and  C_23 
ROOT
HETATM    1  C   UNL     1     -43.122  58.723 -54.755  1.00  0.00     0.164 C 
HETATM    2  N   UNL     1     -44.512  59.170 -54.735  1.00  0.00    -0.319 N 
HETATM    3  C   UNL     1     -44.858  59.866 -55.868  1.00  0.00     0.326 C 
HETATM    4  O   UNL     1     -45.999  60.156 -56.177  1.00  0.00    -0.247 OA
HETATM    5  N   UNL     1     -43.723  60.165 -56.548  1.00  0.00    -0.265 N 
HETATM    6  C   UNL     1     -42.654  59.540 -55.975  1.00  0.00     0.263 C 
HETATM    7  O   UNL     1     -41.489  59.642 -56.341  1.00  0.00    -0.270 OA
HETATM    8  H   UNL     1     -45.233  58.648 -54.246  1.00  0.00     0.166 HD
ENDROOT
BRANCH   1   9
HETATM    9  C   UNL     1     -42.423  59.110 -53.400  1.00  0.00     0.033 C 
HETATM   10  C   UNL     1     -41.146  58.326 -53.057  1.00  0.00     0.036 C 
HETATM   11  C   UNL     1     -41.379  56.931 -52.500  1.00  0.00     0.235 C 
HETATM   12  N   UNL     1     -42.391  56.910 -51.383  1.00  0.00    -0.067 N 
HETATM   13  H   UNL     1     -41.897  57.253 -50.551  1.00  0.00     0.280 HD
HETATM   14  C   UNL     1     -43.623  57.765 -51.556  1.00  0.00     0.235 C 
HETATM   15  C   UNL     1     -43.306  59.128 -52.141  1.00  0.00     0.036 C 
BRANCH  12  16
HETATM   16  C   UNL     1     -42.834  55.480 -51.052  1.00  0.00     0.274 C 
BRANCH  16  17
HETATM   17  C   UNL     1     -41.742  54.444 -51.147  1.00  0.00    -0.026 A 
HETATM   18  C   UNL     1     -41.584  53.751 -52.368  1.00  0.00     0.016 A 
HETATM   19  C   UNL     1     -40.558  52.821 -52.553  1.00  0.00    -0.061 A 
HETATM   20  C   UNL     1     -40.387  52.098 -53.857  1.00  0.00     0.048 C 
HETATM   21  C   UNL     1     -39.692  52.558 -51.492  1.00  0.00     0.007 A 
HETATM   22  C   UNL     1     -39.848  53.216 -50.270  1.00  0.00     0.008 A 
HETATM   23  C   UNL     1     -40.861  54.169 -50.082  1.00  0.00    -0.054 A 
HETATM   24  C   UNL     1     -41.012  54.797 -48.724  1.00  0.00     0.049 C 
ENDBRANCH  16  17
ENDBRANCH  12  16
ENDBRANCH   1   9
BRANCH   1  25
HETATM   25  C   UNL     1     -43.118  57.212 -54.990  1.00  0.00     0.072 A 
HETATM   26  N   UNL     1     -42.076  56.752 -55.738  1.00  0.00    -0.262 NA
HETATM   27  C   UNL     1     -41.980  55.419 -55.948  1.00  0.00     0.117 A 
HETATM   28  C   UNL     1     -42.888  54.501 -55.456  1.00  0.00     0.019 A 
HETATM   29  C   UNL     1     -43.952  54.976 -54.702  1.00  0.00     0.003 A 
HETATM   30  C   UNL     1     -44.072  56.344 -54.460  1.00  0.00     0.030 A 
ENDBRANCH   1  25
BRANCH   5  31
HETATM   31  C   UNL     1     -43.672  60.932 -57.781  1.00  0.00     0.168 C 
BRANCH  31  32
HETATM   32  C   UNL     1     -43.693  60.041 -59.027  1.00  0.00     0.140 C 
HETATM   33  O   UNL     1     -44.096  58.699 -58.673  1.00  0.00    -0.384 OA
HETATM   34  C   UNL     1     -43.096  57.782 -59.134  1.00  0.00     0.168 C 
HETATM   35  C   UNL     1     -42.315  58.513 -60.199  1.00  0.00     0.029 C 
HETATM   36  C   UNL     1     -42.314  59.924 -59.668  1.00  0.00     0.036 C 
ENDBRANCH  31  32
ENDBRANCH   5  31
TORSDOF 6
ENDMDL
MODEL 10
REMARK VINA RESULT:      -7.7      2.073      2.610
REMARK  6 active torsions:
REMARK  status: ('A' for Active; 'I' for Inactive)
REMARK    1  A    between atoms: C_4  and  C_5 
REMARK    2  A    between atoms: C_5  and  N_6 
REMARK    3  A    between atoms: C_10  and  C_11 
REMARK    4  A    between atoms: C_11  and  C_12 
REMARK    5  A    between atoms: N_21  and  C_22 
REMARK    6  A    between atoms: C_22  and  C_23 
ROOT
HETATM    1  C   UNL     1     -44.499  59.445 -53.977  1.00  0.00     0.164 C 
HETATM    2  N   UNL     1     -43.039  59.475 -53.984  1.00  0.00    -0.319 N 
HETATM    3  C   UNL     1     -42.523  59.713 -55.235  1.00  0.00     0.326 C 
HETATM    4  O   UNL     1     -41.358  59.987 -55.459  1.00  0.00    -0.247 OA
HETATM    5  N   UNL     1     -43.523  59.579 -56.142  1.00  0.00    -0.265 N 
HETATM    6  C   UNL     1     -44.718  59.422 -55.502  1.00  0.00     0.263 C 
HETATM    7  O   UNL     1     -45.801  59.243 -56.048  1.00  0.00    -0.270 OA
HETATM    8  H   UNL     1     -42.507  59.777 -53.174  1.00  0.00     0.166 HD
ENDROOT
BRANCH   1   9
HETATM    9  C   UNL     1     -44.998  58.159 -53.223  1.00  0.00     0.033 C 
HETATM   10  C   UNL     1     -44.489  57.987 -51.782  1.00  0.00     0.036 C 
HETATM   11  C   UNL     1     -43.066  57.467 -51.661  1.00  0.00     0.235 C 
HETATM   12  N   UNL     1     -42.815  56.249 -52.515  1.00  0.00    -0.067 N 
HETATM   13  H   UNL     1     -43.238  55.462 -52.009  1.00  0.00     0.280 HD
HETATM   14  C   UNL     1     -43.400  56.253 -53.906  1.00  0.00     0.235 C 
HETATM   15  C   UNL     1     -44.809  56.813 -53.943  1.00  0.00     0.036 C 
BRANCH  12  16
HETATM   16  C   UNL     1     -41.319  55.931 -52.616  1.00  0.00     0.274 C 
BRANCH  16  17
HETATM   17  C   UNL     1     -40.877  54.721 -51.832  1.00  0.00    -0.026 A 
HETATM   18  C   UNL     1     -40.799  54.829 -50.425  1.00  0.00     0.016 A 
HETATM   19  C   UNL     1     -40.456  53.735 -49.626  1.00  0.00    -0.061 A 
HETATM   20  C   UNL     1     -40.389  53.853 -48.132  1.00  0.00     0.048 C 
HETATM   21  C   UNL     1     -40.158  52.521 -50.244  1.00  0.00     0.007 A 
HETATM   22  C   UNL     1     -40.206  52.403 -51.634  1.00  0.00     0.008 A 
HETATM   23  C   UNL     1     -40.573  53.489 -52.444  1.00  0.00    -0.054 A 
HETATM   24  C   UNL     1     -40.547  53.312 -53.937  1.00  0.00     0.049 C 
ENDBRANCH  16  17
ENDBRANCH  12  16
ENDBRANCH   1   9
BRANCH   1  25
HETATM   25  C   UNL     1     -44.991  60.729 -53.307  1.00  0.00     0.072 A 
HETATM   26  N   UNL     1     -46.337  60.792 -53.108  1.00  0.00    -0.262 NA
HETATM   27  C   UNL     1     -46.840  61.878 -52.477  1.00  0.00     0.117 A 
HETATM   28  C   UNL     1     -46.065  62.931 -52.035  1.00  0.00     0.019 A 
HETATM   29  C   UNL     1     -44.694  62.867 -52.246  1.00  0.00     0.003 A 
HETATM   30  C   UNL     1     -44.145  61.755 -52.886  1.00  0.00     0.030 A 
ENDBRANCH   1  25
BRANCH   5  31
HETATM   31  C   UNL     1     -43.364  59.713 -57.579  1.00  0.00     0.168 C 
BRANCH  31  32
HETATM   32  C   UNL     1     -43.096  58.370 -58.267  1.00  0.00     0.140 C 
HETATM   33  O   UNL     1     -41.807  58.392 -58.919  1.00  0.00    -0.384 OA
HETATM   34  C   UNL     1     -41.983  58.042 -60.297  1.00  0.00     0.168 C 
HETATM   35  C   UNL     1     -43.312  57.330 -60.383  1.00  0.00     0.029 C 
HETATM   36  C   UNL     1     -44.125  58.069 -59.350  1.00  0.00     0.036 C 
ENDBRANCH  31  32
ENDBRANCH   5  31
TORSDOF 6
ENDMDL
