MODEL 1
REMARK VINA RESULT:      -7.4      0.000      0.000
REMARK  4 active torsions:
REMARK  status: ('A' for Active; 'I' for Inactive)
REMARK    1  A    between atoms: C_2  and  N_3 
REMARK    2  A    between atoms: C_11  and  C_12 
REMARK    3  A    between atoms: C_12  and  N_13 
REMARK    4  A    between atoms: C_16  and  N_17 
ROOT
HETATM    1  N   UNL     1     -42.053  55.862 -54.047  1.00  0.00    -0.065 N 
HETATM    2  H   UNL     1     -41.268  56.315 -53.566  1.00  0.00     0.280 HD
HETATM    3  C   UNL     1     -42.700  54.858 -53.107  1.00  0.00     0.268 C 
HETATM    4  C   UNL     1     -41.764  53.736 -52.535  1.00  0.00     0.214 C 
HETATM    5  C   UNL     1     -41.324  52.786 -53.661  1.00  0.00     0.035 C 
HETATM    6  C   UNL     1     -40.154  53.214 -54.542  1.00  0.00     0.004 C 
HETATM    7  C   UNL     1     -40.147  54.641 -55.086  1.00  0.00     0.028 C 
HETATM    8  C   UNL     1     -41.506  55.275 -55.340  1.00  0.00     0.235 C 
ENDROOT
BRANCH   1   9
HETATM    9  C   UNL     1     -42.987  57.072 -54.327  1.00  0.00     0.276 C 
BRANCH   9  10
HETATM   10  C   UNL     1     -43.357  57.956 -53.170  1.00  0.00     0.009 A 
HETATM   11  C   UNL     1     -42.450  58.837 -52.567  1.00  0.00     0.136 A 
HETATM   12  N   UNL     1     -42.706  59.683 -51.551  1.00  0.00    -0.216 NA
HETATM   13 CL   UNL     1     -40.798  58.923 -53.058  1.00  0.00    -0.062 Cl
HETATM   14  C   UNL     1     -43.989  59.663 -51.142  1.00  0.00     0.159 A 
HETATM   15  N   UNL     1     -44.574  60.446 -50.176  1.00  0.00    -0.248 N 
HETATM   16  C   UNL     1     -44.999  58.853 -51.641  1.00  0.00     0.031 A 
HETATM   17  N   UNL     1     -45.882  60.151 -49.984  1.00  0.00    -0.182 NA
HETATM   18  C   UNL     1     -46.137  59.206 -50.889  1.00  0.00     0.154 A 
HETATM   19  C   UNL     1     -44.680  57.971 -52.688  1.00  0.00     0.029 A 
BRANCH  15  20
HETATM   20  C   UNL     1     -43.943  61.525 -49.423  1.00  0.00     0.104 C 
HETATM   21  C   UNL     1     -44.664  61.781 -48.101  1.00  0.00     0.034 C 
HETATM   22  C   UNL     1     -43.842  62.802 -50.258  1.00  0.00     0.034 C 
ENDBRANCH  15  20
ENDBRANCH   9  10
ENDBRANCH   1   9
BRANCH   4  23
HETATM   23  N   UNL     1     -40.557  54.250 -51.725  1.00  0.00    -0.065 N 
HETATM   24  H   UNL     1     -39.831  54.635 -52.340  1.00  0.00     0.280 HD
HETATM   25  C   UNL     1     -39.850  53.144 -50.916  1.00  0.00     0.235 C 
HETATM   26  C   UNL     1     -40.602  53.079 -49.598  1.00  0.00     0.029 C 
HETATM   27  C   UNL     1     -41.324  54.411 -49.454  1.00  0.00     0.029 C 
HETATM   28  C   UNL     1     -40.853  55.256 -50.617  1.00  0.00     0.235 C 
ENDBRANCH   4  23
TORSDOF 4
ENDMDL
MODEL 2
REMARK VINA RESULT:      -7.1      1.565      1.952
REMARK  4 active torsions:
REMARK  status: ('A' for Active; 'I' for Inactive)
REMARK    1  A    between atoms: C_2  and  N_3 
REMARK    2  A    between atoms: C_11  and  C_12 
REMARK    3  A    between atoms: C_12  and  N_13 
REMARK    4  A    between atoms: C_16  and  N_17 
ROOT
HETATM    1  N   UNL     1     -42.712  55.588 -53.838  1.00  0.00    -0.065 N 
HETATM    2  H   UNL     1     -42.051  56.208 -53.357  1.00  0.00     0.280 HD
HETATM    3  C   UNL     1     -42.970  54.366 -52.971  1.00  0.00     0.268 C 
HETATM    4  C   UNL     1     -41.713  53.520 -52.567  1.00  0.00     0.214 C 
HETATM    5  C   UNL     1     -41.114  52.833 -53.805  1.00  0.00     0.035 C 
HETATM    6  C   UNL     1     -40.188  53.650 -54.700  1.00  0.00     0.004 C 
HETATM    7  C   UNL     1     -40.629  55.058 -55.096  1.00  0.00     0.028 C 
HETATM    8  C   UNL     1     -42.127  55.291 -55.212  1.00  0.00     0.235 C 
ENDROOT
BRANCH   1   9
HETATM    9  C   UNL     1     -43.969  56.495 -53.944  1.00  0.00     0.276 C 
BRANCH   9  10
HETATM   10  C   UNL     1     -43.909  57.853 -53.305  1.00  0.00     0.009 A 
HETATM   11  C   UNL     1     -44.096  58.055 -51.931  1.00  0.00     0.136 A 
HETATM   12  N   UNL     1     -44.029  59.228 -51.274  1.00  0.00    -0.216 NA
HETATM   13 CL   UNL     1     -44.492  56.757 -50.864  1.00  0.00    -0.062 Cl
HETATM   14  C   UNL     1     -43.707  60.271 -52.064  1.00  0.00     0.159 A 
HETATM   15  N   UNL     1     -43.502  61.577 -51.688  1.00  0.00    -0.248 N 
HETATM   16  C   UNL     1     -43.488  60.229 -53.433  1.00  0.00     0.031 A 
HETATM   17  N   UNL     1     -43.221  62.386 -52.737  1.00  0.00    -0.182 NA
HETATM   18  C   UNL     1     -43.191  61.561 -53.784  1.00  0.00     0.154 A 
HETATM   19  C   UNL     1     -43.589  58.985 -54.079  1.00  0.00     0.029 A 
BRANCH  15  20
HETATM   20  C   UNL     1     -43.524  62.110 -50.330  1.00  0.00     0.104 C 
HETATM   21  C   UNL     1     -44.954  62.294 -49.824  1.00  0.00     0.034 C 
HETATM   22  C   UNL     1     -42.727  63.411 -50.229  1.00  0.00     0.034 C 
ENDBRANCH  15  20
ENDBRANCH   9  10
ENDBRANCH   1   9
BRANCH   4  23
HETATM   23  N   UNL     1     -40.639  54.294 -51.775  1.00  0.00    -0.065 N 
HETATM   24  H   UNL     1     -39.982  54.771 -52.404  1.00  0.00     0.280 HD
HETATM   25  C   UNL     1     -39.759  53.384 -50.894  1.00  0.00     0.235 C 
HETATM   26  C   UNL     1     -40.515  53.256 -49.583  1.00  0.00     0.029 C 
HETATM   27  C   UNL     1     -41.472  54.437 -49.526  1.00  0.00     0.029 C 
HETATM   28  C   UNL     1     -41.139  55.288 -50.733  1.00  0.00     0.235 C 
ENDBRANCH   4  23
TORSDOF 4
ENDMDL
MODEL 3
REMARK VINA RESULT:      -7.0     17.685     19.746
REMARK  4 active torsions:
REMARK  status: ('A' for Active; 'I' for Inactive)
REMARK    1  A    between atoms: C_2  and  N_3 
REMARK    2  A    between atoms: C_11  and  C_12 
REMARK    3  A    between atoms: C_12  and  N_13 
REMARK    4  A    between atoms: C_16  and  N_17 
ROOT
HETATM    1  N   UNL     1     -33.233  40.473 -53.979  1.00  0.00    -0.065 N 
HETATM    2  H   UNL     1     -33.616  41.396 -53.744  1.00  0.00     0.280 HD
HETATM    3  C   UNL     1     -34.325  39.427 -53.825  1.00  0.00     0.268 C 
HETATM    4  C   UNL     1     -35.002  39.329 -52.413  1.00  0.00     0.214 C 
HETATM    5  C   UNL     1     -33.996  38.804 -51.376  1.00  0.00     0.035 C 
HETATM    6  C   UNL     1     -33.018  39.799 -50.759  1.00  0.00     0.004 C 
HETATM    7  C   UNL     1     -32.288  40.763 -51.692  1.00  0.00     0.028 C 
HETATM    8  C   UNL     1     -32.008  40.261 -53.101  1.00  0.00     0.235 C 
ENDROOT
BRANCH   1   9
HETATM    9  C   UNL     1     -32.833  40.673 -55.467  1.00  0.00     0.276 C 
BRANCH   9  10
HETATM   10  C   UNL     1     -33.899  40.497 -56.510  1.00  0.00     0.009 A 
HETATM   11  C   UNL     1     -34.105  39.290 -57.190  1.00  0.00     0.136 A 
HETATM   12  N   UNL     1     -35.053  39.039 -58.113  1.00  0.00    -0.216 NA
HETATM   13 CL   UNL     1     -33.090  37.918 -56.941  1.00  0.00    -0.062 Cl
HETATM   14  C   UNL     1     -35.882  40.078 -58.332  1.00  0.00     0.159 A 
HETATM   15  N   UNL     1     -36.979  40.117 -59.160  1.00  0.00    -0.248 N 
HETATM   16  C   UNL     1     -35.810  41.328 -57.735  1.00  0.00     0.031 A 
HETATM   17  N   UNL     1     -37.580  41.330 -59.175  1.00  0.00    -0.182 NA
HETATM   18  C   UNL     1     -36.884  42.049 -58.294  1.00  0.00     0.154 A 
HETATM   19  C   UNL     1     -34.790  41.551 -56.793  1.00  0.00     0.029 A 
BRANCH  15  20
HETATM   20  C   UNL     1     -37.527  39.012 -59.938  1.00  0.00     0.104 C 
HETATM   21  C   UNL     1     -37.336  39.235 -61.437  1.00  0.00     0.034 C 
HETATM   22  C   UNL     1     -38.996  38.764 -59.595  1.00  0.00     0.034 C 
ENDBRANCH  15  20
ENDBRANCH   9  10
ENDBRANCH   1   9
BRANCH   4  23
HETATM   23  N   UNL     1     -35.685  40.626 -51.931  1.00  0.00    -0.065 N 
HETATM   24  H   UNL     1     -35.065  41.171 -51.322  1.00  0.00     0.280 HD
HETATM   25  C   UNL     1     -36.950  40.370 -51.087  1.00  0.00     0.235 C 
HETATM   26  C   UNL     1     -38.079  40.248 -52.096  1.00  0.00     0.029 C 
HETATM   27  C   UNL     1     -37.588  40.925 -53.367  1.00  0.00     0.029 C 
HETATM   28  C   UNL     1     -36.254  41.543 -53.010  1.00  0.00     0.235 C 
ENDBRANCH   4  23
TORSDOF 4
ENDMDL
MODEL 4
REMARK VINA RESULT:      -6.9      4.166      6.704
REMARK  4 active torsions:
REMARK  status: ('A' for Active; 'I' for Inactive)
REMARK    1  A    between atoms: C_2  and  N_3 
REMARK    2  A    between atoms: C_11  and  C_12 
REMARK    3  A    between atoms: C_12  and  N_13 
REMARK    4  A    between atoms: C_16  and  N_17 
ROOT
HETATM    1  N   UNL     1     -42.442  54.671 -54.922  1.00  0.00    -0.065 N 
HETATM    2  H   UNL     1     -41.696  55.351 -55.109  1.00  0.00     0.280 HD
HETATM    3  C   UNL     1     -43.307  55.182 -53.781  1.00  0.00     0.268 C 
HETATM    4  C   UNL     1     -42.571  55.484 -52.429  1.00  0.00     0.214 C 
HETATM    5  C   UNL     1     -42.062  54.178 -51.799  1.00  0.00     0.035 C 
HETATM    6  C   UNL     1     -40.742  53.605 -52.306  1.00  0.00     0.004 C 
HETATM    7  C   UNL     1     -40.526  53.527 -53.816  1.00  0.00     0.028 C 
HETATM    8  C   UNL     1     -41.769  53.330 -54.669  1.00  0.00     0.235 C 
ENDROOT
BRANCH   1   9
HETATM    9  C   UNL     1     -43.209  54.673 -56.273  1.00  0.00     0.276 C 
BRANCH   9  10
HETATM   10  C   UNL     1     -42.996  55.835 -57.200  1.00  0.00     0.009 A 
HETATM   11  C   UNL     1     -43.405  55.824 -58.539  1.00  0.00     0.136 A 
HETATM   12  N   UNL     1     -43.282  56.829 -59.426  1.00  0.00    -0.216 NA
HETATM   13 CL   UNL     1     -44.122  54.430 -59.262  1.00  0.00    -0.062 Cl
HETATM   14  C   UNL     1     -42.740  57.946 -58.904  1.00  0.00     0.159 A 
HETATM   15  N   UNL     1     -42.541  59.154 -59.529  1.00  0.00    -0.248 N 
HETATM   16  C   UNL     1     -42.293  58.112 -57.601  1.00  0.00     0.031 A 
HETATM   17  N   UNL     1     -41.942  60.066 -58.727  1.00  0.00    -0.182 NA
HETATM   18  C   UNL     1     -41.818  59.438 -57.557  1.00  0.00     0.154 A 
HETATM   19  C   UNL     1     -42.424  57.028 -56.716  1.00  0.00     0.029 A 
BRANCH  15  20
HETATM   20  C   UNL     1     -42.936  59.512 -60.887  1.00  0.00     0.104 C 
HETATM   21  C   UNL     1     -41.979  60.535 -61.497  1.00  0.00     0.034 C 
HETATM   22  C   UNL     1     -44.382  60.007 -60.934  1.00  0.00     0.034 C 
ENDBRANCH  15  20
ENDBRANCH   9  10
ENDBRANCH   1   9
BRANCH   4  23
HETATM   23  N   UNL     1     -41.452  56.541 -52.523  1.00  0.00    -0.065 N 
HETATM   24  H   UNL     1     -40.567  56.122 -52.832  1.00  0.00     0.280 HD
HETATM   25  C   UNL     1     -41.128  57.207 -51.170  1.00  0.00     0.235 C 
HETATM   26  C   UNL     1     -42.101  58.367 -51.060  1.00  0.00     0.029 C 
HETATM   27  C   UNL     1     -42.566  58.669 -52.477  1.00  0.00     0.029 C 
HETATM   28  C   UNL     1     -41.742  57.773 -53.375  1.00  0.00     0.235 C 
ENDBRANCH   4  23
TORSDOF 4
ENDMDL
MODEL 5
REMARK VINA RESULT:      -6.9      2.960      6.489
REMARK  4 active torsions:
REMARK  status: ('A' for Active; 'I' for Inactive)
REMARK    1  A    between atoms: C_2  and  N_3 
REMARK    2  A    between atoms: C_11  and  C_12 
REMARK    3  A    between atoms: C_12  and  N_13 
REMARK    4  A    between atoms: C_16  and  N_17 
ROOT
HETATM    1  N   UNL     1     -43.229  56.185 -56.352  1.00  0.00    -0.065 N 
HETATM    2  H   UNL     1     -44.140  56.387 -55.925  1.00  0.00     0.280 HD
HETATM    3  C   UNL     1     -42.182  57.109 -55.751  1.00  0.00     0.268 C 
HETATM    4  C   UNL     1     -42.453  58.648 -55.886  1.00  0.00     0.214 C 
HETATM    5  C   UNL     1     -42.359  59.078 -57.358  1.00  0.00     0.035 C 
HETATM    6  C   UNL     1     -43.579  58.858 -58.247  1.00  0.00     0.004 C 
HETATM    7  C   UNL     1     -44.280  57.503 -58.185  1.00  0.00     0.028 C 
HETATM    8  C   UNL     1     -43.405  56.302 -57.859  1.00  0.00     0.235 C 
ENDROOT
BRANCH   1   9
HETATM    9  C   UNL     1     -43.007  54.707 -55.923  1.00  0.00     0.276 C 
BRANCH   9  10
HETATM   10  C   UNL     1     -42.638  54.440 -54.492  1.00  0.00     0.009 A 
HETATM   11  C   UNL     1     -41.378  53.964 -54.108  1.00  0.00     0.136 A 
HETATM   12  N   UNL     1     -40.956  53.728 -52.851  1.00  0.00    -0.216 NA
HETATM   13 CL   UNL     1     -40.162  53.567 -55.266  1.00  0.00    -0.062 Cl
HETATM   14  C   UNL     1     -41.868  54.038 -51.909  1.00  0.00     0.159 A 
HETATM   15  N   UNL     1     -41.721  53.970 -50.544  1.00  0.00    -0.248 N 
HETATM   16  C   UNL     1     -43.149  54.520 -52.131  1.00  0.00     0.031 A 
HETATM   17  N   UNL     1     -42.845  54.324 -49.878  1.00  0.00    -0.182 NA
HETATM   18  C   UNL     1     -43.695  54.678 -50.842  1.00  0.00     0.154 A 
HETATM   19  C   UNL     1     -43.553  54.732 -53.461  1.00  0.00     0.029 A 
BRANCH  15  20
HETATM   20  C   UNL     1     -40.512  53.608 -49.812  1.00  0.00     0.104 C 
HETATM   21  C   UNL     1     -40.312  52.093 -49.777  1.00  0.00     0.034 C 
HETATM   22  C   UNL     1     -40.516  54.201 -48.403  1.00  0.00     0.034 C 
ENDBRANCH  15  20
ENDBRANCH   9  10
ENDBRANCH   1   9
BRANCH   4  23
HETATM   23  N   UNL     1     -43.765  59.134 -55.237  1.00  0.00    -0.065 N 
HETATM   24  H   UNL     1     -44.567  58.986 -55.860  1.00  0.00     0.280 HD
HETATM   25  C   UNL     1     -43.771  60.646 -54.932  1.00  0.00     0.235 C 
HETATM   26  C   UNL     1     -43.141  60.771 -53.556  1.00  0.00     0.029 C 
HETATM   27  C   UNL     1     -43.271  59.404 -52.901  1.00  0.00     0.029 C 
HETATM   28  C   UNL     1     -44.098  58.572 -53.858  1.00  0.00     0.235 C 
ENDBRANCH   4  23
TORSDOF 4
ENDMDL
MODEL 6
REMARK VINA RESULT:      -6.9      1.664      3.567
REMARK  4 active torsions:
REMARK  status: ('A' for Active; 'I' for Inactive)
REMARK    1  A    between atoms: C_2  and  N_3 
REMARK    2  A    between atoms: C_11  and  C_12 
REMARK    3  A    between atoms: C_12  and  N_13 
REMARK    4  A    between atoms: C_16  and  N_17 
ROOT
HETATM    1  N   UNL     1     -41.320  55.428 -52.343  1.00  0.00    -0.065 N 
HETATM    2  H   UNL     1     -42.317  55.204 -52.438  1.00  0.00     0.280 HD
HETATM    3  C   UNL     1     -40.871  56.221 -53.560  1.00  0.00     0.268 C 
HETATM    4  C   UNL     1     -41.087  55.538 -54.955  1.00  0.00     0.214 C 
HETATM    5  C   UNL     1     -40.170  54.313 -55.095  1.00  0.00     0.035 C 
HETATM    6  C   UNL     1     -40.626  53.001 -54.463  1.00  0.00     0.004 C 
HETATM    7  C   UNL     1     -41.163  53.040 -53.034  1.00  0.00     0.028 C 
HETATM    8  C   UNL     1     -40.586  54.114 -52.123  1.00  0.00     0.235 C 
ENDROOT
BRANCH   1   9
HETATM    9  C   UNL     1     -41.318  56.298 -51.056  1.00  0.00     0.276 C 
BRANCH   9  10
HETATM   10  C   UNL     1     -42.088  57.588 -51.079  1.00  0.00     0.009 A 
HETATM   11  C   UNL     1     -41.472  58.842 -50.972  1.00  0.00     0.136 A 
HETATM   12  N   UNL     1     -42.081  60.042 -51.014  1.00  0.00    -0.216 NA
HETATM   13 CL   UNL     1     -39.773  59.005 -50.721  1.00  0.00    -0.062 Cl
HETATM   14  C   UNL     1     -43.409  59.967 -51.224  1.00  0.00     0.159 A 
HETATM   15  N   UNL     1     -44.295  61.006 -51.378  1.00  0.00    -0.248 N 
HETATM   16  C   UNL     1     -44.157  58.806 -51.355  1.00  0.00     0.031 A 
HETATM   17  N   UNL     1     -45.571  60.587 -51.543  1.00  0.00    -0.182 NA
HETATM   18  C   UNL     1     -45.477  59.257 -51.552  1.00  0.00     0.154 A 
HETATM   19  C   UNL     1     -43.482  57.575 -51.283  1.00  0.00     0.029 A 
BRANCH  15  20
HETATM   20  C   UNL     1     -43.975  62.430 -51.415  1.00  0.00     0.104 C 
HETATM   21  C   UNL     1     -45.144  63.278 -50.915  1.00  0.00     0.034 C 
HETATM   22  C   UNL     1     -43.529  62.865 -52.811  1.00  0.00     0.034 C 
ENDBRANCH  15  20
ENDBRANCH   9  10
ENDBRANCH   1   9
BRANCH   4  23
HETATM   23  N   UNL     1     -42.553  55.189 -55.285  1.00  0.00    -0.065 N 
HETATM   24  H   UNL     1     -42.804  54.260 -54.928  1.00  0.00     0.280 HD
HETATM   25  C   UNL     1     -42.839  55.127 -56.799  1.00  0.00     0.235 C 
HETATM   26  C   UNL     1     -43.177  56.554 -57.194  1.00  0.00     0.029 C 
HETATM   27  C   UNL     1     -43.587  57.265 -55.913  1.00  0.00     0.029 C 
HETATM   28  C   UNL     1     -43.613  56.193 -54.844  1.00  0.00     0.235 C 
ENDBRANCH   4  23
TORSDOF 4
ENDMDL
MODEL 7
REMARK VINA RESULT:      -6.9      3.521      7.478
REMARK  4 active torsions:
REMARK  status: ('A' for Active; 'I' for Inactive)
REMARK    1  A    between atoms: C_2  and  N_3 
REMARK    2  A    between atoms: C_11  and  C_12 
REMARK    3  A    between atoms: C_12  and  N_13 
REMARK    4  A    between atoms: C_16  and  N_17 
ROOT
HETATM    1  N   UNL     1     -43.900  57.775 -55.661  1.00  0.00    -0.065 N 
HETATM    2  H   UNL     1     -43.102  57.179 -55.910  1.00  0.00     0.280 HD
HETATM    3  C   UNL     1     -44.945  57.694 -56.762  1.00  0.00     0.268 C 
HETATM    4  C   UNL     1     -44.471  58.091 -58.203  1.00  0.00     0.214 C 
HETATM    5  C   UNL     1     -44.152  59.593 -58.264  1.00  0.00     0.035 C 
HETATM    6  C   UNL     1     -42.786  60.056 -57.765  1.00  0.00     0.004 C 
HETATM    7  C   UNL     1     -42.286  59.511 -56.429  1.00  0.00     0.028 C 
HETATM    8  C   UNL     1     -43.350  59.169 -55.396  1.00  0.00     0.235 C 
ENDROOT
BRANCH   1   9
HETATM    9  C   UNL     1     -44.392  57.104 -54.349  1.00  0.00     0.276 C 
BRANCH   9  10
HETATM   10  C   UNL     1     -43.444  56.185 -53.632  1.00  0.00     0.009 A 
HETATM   11  C   UNL     1     -43.387  56.091 -52.236  1.00  0.00     0.136 A 
HETATM   12  N   UNL     1     -42.593  55.275 -51.517  1.00  0.00    -0.216 NA
HETATM   13 CL   UNL     1     -44.354  57.090 -51.214  1.00  0.00    -0.062 Cl
HETATM   14  C   UNL     1     -41.828  54.463 -52.272  1.00  0.00     0.159 A 
HETATM   15  N   UNL     1     -40.965  53.483 -51.843  1.00  0.00    -0.248 N 
HETATM   16  C   UNL     1     -41.777  54.435 -53.659  1.00  0.00     0.031 A 
HETATM   17  N   UNL     1     -40.323  52.867 -52.863  1.00  0.00    -0.182 NA
HETATM   18  C   UNL     1     -40.835  53.430 -53.957  1.00  0.00     0.154 A 
HETATM   19  C   UNL     1     -42.609  55.320 -54.367  1.00  0.00     0.029 A 
BRANCH  15  20
HETATM   20  C   UNL     1     -40.738  53.060 -50.465  1.00  0.00     0.104 C 
HETATM   21  C   UNL     1     -39.785  54.009 -49.739  1.00  0.00     0.034 C 
HETATM   22  C   UNL     1     -40.242  51.616 -50.400  1.00  0.00     0.034 C 
ENDBRANCH  15  20
ENDBRANCH   9  10
ENDBRANCH   1   9
BRANCH   4  23
HETATM   23  N   UNL     1     -43.308  57.243 -58.758  1.00  0.00    -0.065 N 
HETATM   24  H   UNL     1     -42.398  57.637 -58.492  1.00  0.00     0.280 HD
HETATM   25  C   UNL     1     -43.281  57.180 -60.299  1.00  0.00     0.235 C 
HETATM   26  C   UNL     1     -44.190  56.020 -60.662  1.00  0.00     0.029 C 
HETATM   27  C   UNL     1     -44.289  55.151 -59.417  1.00  0.00     0.029 C 
HETATM   28  C   UNL     1     -43.322  55.755 -58.422  1.00  0.00     0.235 C 
ENDBRANCH   4  23
TORSDOF 4
ENDMDL
MODEL 8
REMARK VINA RESULT:      -6.9      2.354      7.181
REMARK  4 active torsions:
REMARK  status: ('A' for Active; 'I' for Inactive)
REMARK    1  A    between atoms: C_2  and  N_3 
REMARK    2  A    between atoms: C_11  and  C_12 
REMARK    3  A    between atoms: C_12  and  N_13 
REMARK    4  A    between atoms: C_16  and  N_17 
ROOT
HETATM    1  N   UNL     1     -44.138  58.210 -53.821  1.00  0.00    -0.065 N 
HETATM    2  H   UNL     1     -44.373  57.938 -52.860  1.00  0.00     0.280 HD
HETATM    3  C   UNL     1     -42.706  58.716 -53.861  1.00  0.00     0.268 C 
HETATM    4  C   UNL     1     -42.367  59.922 -52.917  1.00  0.00     0.214 C 
HETATM    5  C   UNL     1     -43.099  61.188 -53.389  1.00  0.00     0.035 C 
HETATM    6  C   UNL     1     -44.557  61.368 -52.977  1.00  0.00     0.004 C 
HETATM    7  C   UNL     1     -45.501  60.179 -53.136  1.00  0.00     0.028 C 
HETATM    8  C   UNL     1     -45.190  59.214 -54.270  1.00  0.00     0.235 C 
ENDROOT
BRANCH   1   9
HETATM    9  C   UNL     1     -44.292  56.858 -54.572  1.00  0.00     0.276 C 
BRANCH   9  10
HETATM   10  C   UNL     1     -43.410  55.717 -54.151  1.00  0.00     0.009 A 
HETATM   11  C   UNL     1     -42.666  54.956 -55.062  1.00  0.00     0.136 A 
HETATM   12  N   UNL     1     -41.831  53.942 -54.769  1.00  0.00    -0.216 NA
HETATM   13 CL   UNL     1     -42.766  55.219 -56.765  1.00  0.00    -0.062 Cl
HETATM   14  C   UNL     1     -41.709  53.708 -53.448  1.00  0.00     0.159 A 
HETATM   15  N   UNL     1     -40.893  52.791 -52.830  1.00  0.00    -0.248 N 
HETATM   16  C   UNL     1     -42.372  54.377 -52.430  1.00  0.00     0.031 A 
HETATM   17  N   UNL     1     -41.034  52.789 -51.483  1.00  0.00    -0.182 NA
HETATM   18  C   UNL     1     -41.910  53.766 -51.247  1.00  0.00     0.154 A 
HETATM   19  C   UNL     1     -43.250  55.415 -52.785  1.00  0.00     0.029 A 
BRANCH  15  20
HETATM   20  C   UNL     1     -39.925  51.908 -53.472  1.00  0.00     0.104 C 
HETATM   21  C   UNL     1     -40.618  50.826 -54.299  1.00  0.00     0.034 C 
HETATM   22  C   UNL     1     -38.965  51.298 -52.451  1.00  0.00     0.034 C 
ENDBRANCH  15  20
ENDBRANCH   9  10
ENDBRANCH   1   9
BRANCH   4  23
HETATM   23  N   UNL     1     -42.605  59.657 -51.417  1.00  0.00    -0.065 N 
HETATM   24  H   UNL     1     -43.578  59.850 -51.153  1.00  0.00     0.280 HD
HETATM   25  C   UNL     1     -41.756  60.558 -50.496  1.00  0.00     0.235 C 
HETATM   26  C   UNL     1     -40.438  59.822 -50.332  1.00  0.00     0.029 C 
HETATM   27  C   UNL     1     -40.717  58.367 -50.680  1.00  0.00     0.029 C 
HETATM   28  C   UNL     1     -42.213  58.279 -50.893  1.00  0.00     0.235 C 
ENDBRANCH   4  23
TORSDOF 4
ENDMDL
MODEL 9
REMARK VINA RESULT:      -6.8     17.604     20.080
REMARK  4 active torsions:
REMARK  status: ('A' for Active; 'I' for Inactive)
REMARK    1  A    between atoms: C_2  and  N_3 
REMARK    2  A    between atoms: C_11  and  C_12 
REMARK    3  A    between atoms: C_12  and  N_13 
REMARK    4  A    between atoms: C_16  and  N_17 
ROOT
HETATM    1  N   UNL     1     -35.866  40.930 -55.822  1.00  0.00    -0.065 N 
HETATM    2  H   UNL     1     -35.634  41.856 -55.446  1.00  0.00     0.280 HD
HETATM    3  C   UNL     1     -35.964  39.937 -54.675  1.00  0.00     0.268 C 
HETATM    4  C   UNL     1     -34.692  39.791 -53.769  1.00  0.00     0.214 C 
HETATM    5  C   UNL     1     -33.543  39.151 -54.564  1.00  0.00     0.035 C 
HETATM    6  C   UNL     1     -32.708  40.053 -55.468  1.00  0.00     0.004 C 
HETATM    7  C   UNL     1     -33.442  41.030 -56.384  1.00  0.00     0.028 C 
HETATM    8  C   UNL     1     -34.816  40.599 -56.873  1.00  0.00     0.235 C 
ENDROOT
BRANCH   1   9
HETATM    9  C   UNL     1     -37.252  41.196 -56.473  1.00  0.00     0.276 C 
BRANCH   9  10
HETATM   10  C   UNL     1     -37.610  40.415 -57.706  1.00  0.00     0.009 A 
HETATM   11  C   UNL     1     -37.519  40.950 -58.997  1.00  0.00     0.136 A 
HETATM   12  N   UNL     1     -37.789  40.313 -60.152  1.00  0.00    -0.216 NA
HETATM   13 CL   UNL     1     -37.060  42.591 -59.274  1.00  0.00    -0.062 Cl
HETATM   14  C   UNL     1     -38.138  39.023 -59.987  1.00  0.00     0.159 A 
HETATM   15  N   UNL     1     -38.412  38.096 -60.965  1.00  0.00    -0.248 N 
HETATM   16  C   UNL     1     -38.266  38.353 -58.779  1.00  0.00     0.031 A 
HETATM   17  N   UNL     1     -38.763  36.890 -60.460  1.00  0.00    -0.182 NA
HETATM   18  C   UNL     1     -38.649  37.045 -59.140  1.00  0.00     0.154 A 
HETATM   19  C   UNL     1     -37.994  39.064 -57.599  1.00  0.00     0.029 A 
BRANCH  15  20
HETATM   20  C   UNL     1     -38.319  38.293 -62.408  1.00  0.00     0.104 C 
HETATM   21  C   UNL     1     -39.282  37.376 -63.160  1.00  0.00     0.034 C 
HETATM   22  C   UNL     1     -36.883  38.118 -62.902  1.00  0.00     0.034 C 
ENDBRANCH  15  20
ENDBRANCH   9  10
ENDBRANCH   1   9
BRANCH   4  23
HETATM   23  N   UNL     1     -34.242  41.091 -53.072  1.00  0.00    -0.065 N 
HETATM   24  H   UNL     1     -33.804  41.739 -53.736  1.00  0.00     0.280 HD
HETATM   25  C   UNL     1     -33.179  40.860 -51.979  1.00  0.00     0.235 C 
HETATM   26  C   UNL     1     -33.970  40.555 -50.719  1.00  0.00     0.029 C 
HETATM   27  C   UNL     1     -35.368  41.110 -50.949  1.00  0.00     0.029 C 
HETATM   28  C   UNL     1     -35.302  41.842 -52.271  1.00  0.00     0.235 C 
ENDBRANCH   4  23
TORSDOF 4
ENDMDL
MODEL 10
REMARK VINA RESULT:      -6.8     17.400     20.675
REMARK  4 active torsions:
REMARK  status: ('A' for Active; 'I' for Inactive)
REMARK    1  A    between atoms: C_2  and  N_3 
REMARK    2  A    between atoms: C_11  and  C_12 
REMARK    3  A    between atoms: C_12  and  N_13 
REMARK    4  A    between atoms: C_16  and  N_17 
ROOT
HETATM    1  N   UNL     1     -34.534  39.388 -51.921  1.00  0.00    -0.065 N 
HETATM    2  H   UNL     1     -33.750  40.040 -52.037  1.00  0.00     0.280 HD
HETATM    3  C   UNL     1     -35.048  38.977 -53.291  1.00  0.00     0.268 C 
HETATM    4  C   UNL     1     -35.516  40.138 -54.237  1.00  0.00     0.214 C 
HETATM    5  C   UNL     1     -36.783  40.803 -53.677  1.00  0.00     0.035 C 
HETATM    6  C   UNL     1     -36.617  41.855 -52.585  1.00  0.00     0.004 C 
HETATM    7  C   UNL     1     -35.683  41.540 -51.419  1.00  0.00     0.028 C 
HETATM    8  C   UNL     1     -35.557  40.075 -51.028  1.00  0.00     0.235 C 
ENDROOT
BRANCH   1   9
HETATM    9  C   UNL     1     -33.848  38.204 -51.184  1.00  0.00     0.276 C 
BRANCH   9  10
HETATM   10  C   UNL     1     -33.000  38.521 -49.985  1.00  0.00     0.009 A 
HETATM   11  C   UNL     1     -31.986  39.486 -50.005  1.00  0.00     0.136 A 
HETATM   12  N   UNL     1     -31.204  39.852 -48.972  1.00  0.00    -0.216 NA
HETATM   13 CL   UNL     1     -31.569  40.341 -51.445  1.00  0.00    -0.062 Cl
HETATM   14  C   UNL     1     -31.501  39.221 -47.820  1.00  0.00     0.159 A 
HETATM   15  N   UNL     1     -30.932  39.417 -46.584  1.00  0.00    -0.248 N 
HETATM   16  C   UNL     1     -32.476  38.251 -47.642  1.00  0.00     0.031 A 
HETATM   17  N   UNL     1     -31.441  38.594 -45.637  1.00  0.00    -0.182 NA
HETATM   18  C   UNL     1     -32.389  37.910 -46.277  1.00  0.00     0.154 A 
HETATM   19  C   UNL     1     -33.254  37.885 -48.753  1.00  0.00     0.029 A 
BRANCH  15  20
HETATM   20  C   UNL     1     -29.919  40.407 -46.235  1.00  0.00     0.104 C 
HETATM   21  C   UNL     1     -28.517  39.929 -46.610  1.00  0.00     0.034 C 
HETATM   22  C   UNL     1     -29.999  40.788 -44.756  1.00  0.00     0.034 C 
ENDBRANCH  15  20
ENDBRANCH   9  10
ENDBRANCH   1   9
BRANCH   4  23
HETATM   23  N   UNL     1     -34.428  41.181 -54.567  1.00  0.00    -0.065 N 
HETATM   24  H   UNL     1     -34.226  41.778 -53.757  1.00  0.00     0.280 HD
HETATM   25  C   UNL     1     -34.840  42.156 -55.689  1.00  0.00     0.235 C 
HETATM   26  C   UNL     1     -34.446  41.459 -56.979  1.00  0.00     0.029 C 
HETATM   27  C   UNL     1     -33.399  40.421 -56.601  1.00  0.00     0.029 C 
HETATM   28  C   UNL     1     -33.116  40.648 -55.132  1.00  0.00     0.235 C 
ENDBRANCH   4  23
TORSDOF 4
ENDMDL
