MODEL 1
REMARK VINA RESULT:      -7.2      0.000      0.000
REMARK  5 active torsions:
REMARK  status: ('A' for Active; 'I' for Inactive)
REMARK    1  A    between atoms: C_3  and  N_4 
REMARK       I    between atoms: N_4  and  C_5 
REMARK       I    between atoms: C_5  and  N_6 
REMARK    2  A    between atoms: N_6  and  C_7 
REMARK    3  A    between atoms: C_8  and  O_9 
REMARK    4  A    between atoms: O_9  and  C_10 
REMARK    5  A    between atoms: C_10  and  C_11 
ROOT
HETATM    1  N   UNL     1     -42.138  56.102 -56.983  1.00  0.00    -0.307 N 
HETATM    2  C   UNL     1     -42.276  55.141 -55.996  1.00  0.00     0.325 C 
HETATM    3  N   UNL     1     -41.053  54.933 -55.387  1.00  0.00    -0.306 N 
HETATM    4  O   UNL     1     -43.318  54.574 -55.702  1.00  0.00    -0.247 OA
HETATM    5  H   UNL     1     -41.440  56.798 -56.758  1.00  0.00     0.170 HD
HETATM    6  H   UNL     1     -40.249  55.396 -55.791  1.00  0.00     0.171 HD
ENDROOT
BRANCH   3   7
HETATM    7  C   UNL     1     -40.704  54.002 -54.386  1.00  0.00     0.069 A 
HETATM    8  C   UNL     1     -40.746  54.474 -53.056  1.00  0.00     0.095 A 
HETATM    9  C   UNL     1     -40.393  53.629 -52.002  1.00  0.00     0.039 A 
HETATM   10  C   UNL     1     -39.992  52.319 -52.269  1.00  0.00     0.003 A 
HETATM   11  C   UNL     1     -39.950  51.851 -53.581  1.00  0.00     0.002 A 
HETATM   12  C   UNL     1     -40.307  52.690 -54.641  1.00  0.00     0.032 A 
BRANCH   8  13
HETATM   13  O   UNL     1     -41.176  55.772 -52.910  1.00  0.00    -0.348 OA
BRANCH  13  14
HETATM   14  C   UNL     1     -41.939  56.069 -51.740  1.00  0.00     0.180 C 
BRANCH  14  15
HETATM   15  C   UNL     1     -43.408  56.078 -52.067  1.00  0.00     0.010 A 
HETATM   16  C   UNL     1     -44.319  57.223 -51.696  1.00  0.00     0.007 A 
HETATM   17  C   UNL     1     -43.960  56.984 -53.139  1.00  0.00     0.007 A 
ENDBRANCH  14  15
ENDBRANCH  13  14
ENDBRANCH   8  13
ENDBRANCH   3   7
BRANCH   1  18
HETATM   18  C   UNL     1     -43.013  56.433 -58.043  1.00  0.00     0.059 A 
HETATM   19  C   UNL     1     -44.151  57.250 -57.982  1.00  0.00    -0.032 A 
HETATM   20  C   UNL     1     -44.661  57.937 -56.748  1.00  0.00     0.050 C 
HETATM   21  C   UNL     1     -44.900  57.432 -59.160  1.00  0.00     0.028 A 
HETATM   22  C   UNL     1     -44.536  56.772 -60.322  1.00  0.00     0.117 A 
HETATM   23  N   UNL     1     -43.479  55.948 -60.403  1.00  0.00    -0.271 NA
HETATM   24  C   UNL     1     -42.752  55.804 -59.269  1.00  0.00     0.146 A 
ENDBRANCH   1  18
TORSDOF 5
ENDMDL
MODEL 2
REMARK VINA RESULT:      -7.1      1.533      3.788
REMARK  5 active torsions:
REMARK  status: ('A' for Active; 'I' for Inactive)
REMARK    1  A    between atoms: C_3  and  N_4 
REMARK       I    between atoms: N_4  and  C_5 
REMARK       I    between atoms: C_5  and  N_6 
REMARK    2  A    between atoms: N_6  and  C_7 
REMARK    3  A    between atoms: C_8  and  O_9 
REMARK    4  A    between atoms: O_9  and  C_10 
REMARK    5  A    between atoms: C_10  and  C_11 
ROOT
HETATM    1  N   UNL     1     -43.497  55.525 -56.907  1.00  0.00    -0.307 N 
HETATM    2  C   UNL     1     -42.723  55.655 -55.768  1.00  0.00     0.325 C 
HETATM    3  N   UNL     1     -43.231  54.840 -54.774  1.00  0.00    -0.306 N 
HETATM    4  O   UNL     1     -41.739  56.371 -55.660  1.00  0.00    -0.247 OA
HETATM    5  H   UNL     1     -43.884  54.598 -57.016  1.00  0.00     0.170 HD
HETATM    6  H   UNL     1     -44.109  54.372 -54.962  1.00  0.00     0.171 HD
ENDROOT
BRANCH   3   7
HETATM    7  C   UNL     1     -42.813  54.702 -53.434  1.00  0.00     0.069 A 
HETATM    8  C   UNL     1     -41.918  53.643 -53.168  1.00  0.00     0.095 A 
HETATM    9  C   UNL     1     -41.468  53.417 -51.866  1.00  0.00     0.039 A 
HETATM   10  C   UNL     1     -41.913  54.236 -50.827  1.00  0.00     0.003 A 
HETATM   11  C   UNL     1     -42.797  55.282 -51.088  1.00  0.00     0.002 A 
HETATM   12  C   UNL     1     -43.246  55.518 -52.390  1.00  0.00     0.032 A 
BRANCH   8  13
HETATM   13  O   UNL     1     -41.529  52.915 -54.269  1.00  0.00    -0.348 OA
BRANCH  13  14
HETATM   14  C   UNL     1     -40.258  52.269 -54.197  1.00  0.00     0.180 C 
BRANCH  14  15
HETATM   15  C   UNL     1     -40.432  50.775 -54.230  1.00  0.00     0.010 A 
HETATM   16  C   UNL     1     -39.323  49.833 -54.633  1.00  0.00     0.007 A 
HETATM   17  C   UNL     1     -39.774  49.893 -53.198  1.00  0.00     0.007 A 
ENDBRANCH  14  15
ENDBRANCH  13  14
ENDBRANCH   8  13
ENDBRANCH   3   7
BRANCH   1  18
HETATM   18  C   UNL     1     -43.551  56.348 -58.056  1.00  0.00     0.059 A 
HETATM   19  C   UNL     1     -44.262  57.547 -58.210  1.00  0.00    -0.032 A 
HETATM   20  C   UNL     1     -45.118  58.189 -57.157  1.00  0.00     0.050 C 
HETATM   21  C   UNL     1     -44.197  58.201 -59.455  1.00  0.00     0.028 A 
HETATM   22  C   UNL     1     -43.487  57.632 -60.500  1.00  0.00     0.117 A 
HETATM   23  N   UNL     1     -42.833  56.464 -60.400  1.00  0.00    -0.271 NA
HETATM   24  C   UNL     1     -42.883  55.860 -59.188  1.00  0.00     0.146 A 
ENDBRANCH   1  18
TORSDOF 5
ENDMDL
MODEL 3
REMARK VINA RESULT:      -7.1      2.219      3.484
REMARK  5 active torsions:
REMARK  status: ('A' for Active; 'I' for Inactive)
REMARK    1  A    between atoms: C_3  and  N_4 
REMARK       I    between atoms: N_4  and  C_5 
REMARK       I    between atoms: C_5  and  N_6 
REMARK    2  A    between atoms: N_6  and  C_7 
REMARK    3  A    between atoms: C_8  and  O_9 
REMARK    4  A    between atoms: O_9  and  C_10 
REMARK    5  A    between atoms: C_10  and  C_11 
ROOT
HETATM    1  N   UNL     1     -41.337  55.594 -54.205  1.00  0.00    -0.307 N 
HETATM    2  C   UNL     1     -41.576  54.292 -53.801  1.00  0.00     0.325 C 
HETATM    3  N   UNL     1     -40.380  53.600 -53.761  1.00  0.00    -0.306 N 
HETATM    4  O   UNL     1     -42.670  53.829 -53.515  1.00  0.00    -0.247 OA
HETATM    5  H   UNL     1     -40.440  55.942 -53.899  1.00  0.00     0.170 HD
HETATM    6  H   UNL     1     -39.559  54.072 -54.117  1.00  0.00     0.171 HD
ENDROOT
BRANCH   3   7
HETATM    7  C   UNL     1     -40.148  52.238 -53.477  1.00  0.00     0.069 A 
HETATM    8  C   UNL     1     -39.743  51.938 -52.158  1.00  0.00     0.095 A 
HETATM    9  C   UNL     1     -39.469  50.618 -51.793  1.00  0.00     0.039 A 
HETATM   10  C   UNL     1     -39.589  49.598 -52.738  1.00  0.00     0.003 A 
HETATM   11  C   UNL     1     -39.989  49.893 -54.041  1.00  0.00     0.002 A 
HETATM   12  C   UNL     1     -40.271  51.211 -54.412  1.00  0.00     0.032 A 
BRANCH   8  13
HETATM   13  O   UNL     1     -39.679  53.016 -51.307  1.00  0.00    -0.348 OA
BRANCH  13  14
HETATM   14  C   UNL     1     -40.424  52.922 -50.093  1.00  0.00     0.180 C 
BRANCH  14  15
HETATM   15  C   UNL     1     -41.338  54.109 -49.952  1.00  0.00     0.010 A 
HETATM   16  C   UNL     1     -41.163  55.150 -48.872  1.00  0.00     0.007 A 
HETATM   17  C   UNL     1     -40.869  55.499 -50.307  1.00  0.00     0.007 A 
ENDBRANCH  14  15
ENDBRANCH  13  14
ENDBRANCH   8  13
ENDBRANCH   3   7
BRANCH   1  18
HETATM   18  C   UNL     1     -42.248  56.573 -54.665  1.00  0.00     0.059 A 
HETATM   19  C   UNL     1     -43.149  57.323 -53.896  1.00  0.00    -0.032 A 
HETATM   20  C   UNL     1     -43.315  57.220 -52.407  1.00  0.00     0.050 C 
HETATM   21  C   UNL     1     -43.989  58.236 -54.562  1.00  0.00     0.028 A 
HETATM   22  C   UNL     1     -43.947  58.336 -55.943  1.00  0.00     0.117 A 
HETATM   23  N   UNL     1     -43.129  57.600 -56.713  1.00  0.00    -0.271 NA
HETATM   24  C   UNL     1     -42.308  56.746 -56.056  1.00  0.00     0.146 A 
ENDBRANCH   1  18
TORSDOF 5
ENDMDL
MODEL 4
REMARK VINA RESULT:      -7.0      2.091      6.325
REMARK  5 active torsions:
REMARK  status: ('A' for Active; 'I' for Inactive)
REMARK    1  A    between atoms: C_3  and  N_4 
REMARK       I    between atoms: N_4  and  C_5 
REMARK       I    between atoms: C_5  and  N_6 
REMARK    2  A    between atoms: N_6  and  C_7 
REMARK    3  A    between atoms: C_8  and  O_9 
REMARK    4  A    between atoms: O_9  and  C_10 
REMARK    5  A    between atoms: C_10  and  C_11 
ROOT
HETATM    1  N   UNL     1     -40.188  52.991 -54.452  1.00  0.00    -0.307 N 
HETATM    2  C   UNL     1     -41.334  53.747 -54.635  1.00  0.00     0.325 C 
HETATM    3  N   UNL     1     -41.001  54.939 -55.249  1.00  0.00    -0.306 N 
HETATM    4  O   UNL     1     -42.463  53.408 -54.314  1.00  0.00    -0.247 OA
HETATM    5  H   UNL     1     -39.503  53.133 -55.181  1.00  0.00     0.170 HD
HETATM    6  H   UNL     1     -40.016  55.138 -55.373  1.00  0.00     0.171 HD
ENDROOT
BRANCH   3   7
HETATM    7  C   UNL     1     -41.826  56.039 -55.564  1.00  0.00     0.069 A 
HETATM    8  C   UNL     1     -41.743  57.148 -54.694  1.00  0.00     0.095 A 
HETATM    9  C   UNL     1     -42.541  58.272 -54.915  1.00  0.00     0.039 A 
HETATM   10  C   UNL     1     -43.427  58.292 -55.994  1.00  0.00     0.003 A 
HETATM   11  C   UNL     1     -43.510  57.198 -56.854  1.00  0.00     0.002 A 
HETATM   12  C   UNL     1     -42.710  56.072 -56.642  1.00  0.00     0.032 A 
BRANCH   8  13
HETATM   13  O   UNL     1     -40.823  57.028 -53.679  1.00  0.00    -0.348 OA
BRANCH  13  14
HETATM   14  C   UNL     1     -41.282  57.313 -52.357  1.00  0.00     0.180 C 
BRANCH  14  15
HETATM   15  C   UNL     1     -42.015  56.125 -51.795  1.00  0.00     0.010 A 
HETATM   16  C   UNL     1     -42.063  55.821 -50.317  1.00  0.00     0.007 A 
HETATM   17  C   UNL     1     -43.302  56.298 -51.027  1.00  0.00     0.007 A 
ENDBRANCH  14  15
ENDBRANCH  13  14
ENDBRANCH   8  13
ENDBRANCH   3   7
BRANCH   1  18
HETATM   18  C   UNL     1     -39.980  51.861 -53.629  1.00  0.00     0.059 A 
HETATM   19  C   UNL     1     -39.784  51.844 -52.241  1.00  0.00    -0.032 A 
HETATM   20  C   UNL     1     -39.758  53.055 -51.354  1.00  0.00     0.050 C 
HETATM   21  C   UNL     1     -39.571  50.600 -51.616  1.00  0.00     0.028 A 
HETATM   22  C   UNL     1     -39.507  49.445 -52.377  1.00  0.00     0.117 A 
HETATM   23  N   UNL     1     -39.644  49.431 -53.713  1.00  0.00    -0.271 NA
HETATM   24  C   UNL     1     -39.876  50.631 -54.296  1.00  0.00     0.146 A 
ENDBRANCH   1  18
TORSDOF 5
ENDMDL
MODEL 5
REMARK VINA RESULT:      -6.9      4.341      7.099
REMARK  5 active torsions:
REMARK  status: ('A' for Active; 'I' for Inactive)
REMARK    1  A    between atoms: C_3  and  N_4 
REMARK       I    between atoms: N_4  and  C_5 
REMARK       I    between atoms: C_5  and  N_6 
REMARK    2  A    between atoms: N_6  and  C_7 
REMARK    3  A    between atoms: C_8  and  O_9 
REMARK    4  A    between atoms: O_9  and  C_10 
REMARK    5  A    between atoms: C_10  and  C_11 
ROOT
HETATM    1  N   UNL     1     -40.509  53.792 -51.879  1.00  0.00    -0.307 N 
HETATM    2  C   UNL     1     -41.701  54.414 -52.206  1.00  0.00     0.325 C 
HETATM    3  N   UNL     1     -41.714  55.688 -51.671  1.00  0.00    -0.306 N 
HETATM    4  O   UNL     1     -42.597  53.918 -52.872  1.00  0.00    -0.247 OA
HETATM    5  H   UNL     1     -39.733  54.437 -51.818  1.00  0.00     0.170 HD
HETATM    6  H   UNL     1     -40.950  55.941 -51.057  1.00  0.00     0.171 HD
ENDROOT
BRANCH   3   7
HETATM    7  C   UNL     1     -42.745  56.651 -51.688  1.00  0.00     0.069 A 
HETATM    8  C   UNL     1     -42.467  57.847 -52.386  1.00  0.00     0.095 A 
HETATM    9  C   UNL     1     -43.421  58.865 -52.436  1.00  0.00     0.039 A 
HETATM   10  C   UNL     1     -44.646  58.700 -51.787  1.00  0.00     0.003 A 
HETATM   11  C   UNL     1     -44.921  57.521 -51.097  1.00  0.00     0.002 A 
HETATM   12  C   UNL     1     -43.973  56.494 -51.048  1.00  0.00     0.032 A 
BRANCH   8  13
HETATM   13  O   UNL     1     -41.240  57.891 -53.005  1.00  0.00    -0.348 OA
BRANCH  13  14
HETATM   14  C   UNL     1     -40.359  58.944 -52.613  1.00  0.00     0.180 C 
BRANCH  14  15
HETATM   15  C   UNL     1     -39.942  58.764 -51.179  1.00  0.00     0.010 A 
HETATM   16  C   UNL     1     -38.941  59.669 -50.501  1.00  0.00     0.007 A 
HETATM   17  C   UNL     1     -40.394  59.728 -50.110  1.00  0.00     0.007 A 
ENDBRANCH  14  15
ENDBRANCH  13  14
ENDBRANCH   8  13
ENDBRANCH   3   7
BRANCH   1  18
HETATM   18  C   UNL     1     -40.161  52.424 -51.946  1.00  0.00     0.059 A 
HETATM   19  C   UNL     1     -39.917  51.664 -53.100  1.00  0.00    -0.032 A 
HETATM   20  C   UNL     1     -39.985  52.180 -54.508  1.00  0.00     0.050 C 
HETATM   21  C   UNL     1     -39.605  50.300 -52.942  1.00  0.00     0.028 A 
HETATM   22  C   UNL     1     -39.596  49.734 -51.678  1.00  0.00     0.117 A 
HETATM   23  N   UNL     1     -39.869  50.421 -50.557  1.00  0.00    -0.271 NA
HETATM   24  C   UNL     1     -40.141  51.738 -50.723  1.00  0.00     0.146 A 
ENDBRANCH   1  18
TORSDOF 5
ENDMDL
MODEL 6
REMARK VINA RESULT:      -6.8      2.330      3.493
REMARK  5 active torsions:
REMARK  status: ('A' for Active; 'I' for Inactive)
REMARK    1  A    between atoms: C_3  and  N_4 
REMARK       I    between atoms: N_4  and  C_5 
REMARK       I    between atoms: C_5  and  N_6 
REMARK    2  A    between atoms: N_6  and  C_7 
REMARK    3  A    between atoms: C_8  and  O_9 
REMARK    4  A    between atoms: O_9  and  C_10 
REMARK    5  A    between atoms: C_10  and  C_11 
ROOT
HETATM    1  N   UNL     1     -42.237  55.528 -55.299  1.00  0.00    -0.307 N 
HETATM    2  C   UNL     1     -41.161  54.742 -54.925  1.00  0.00     0.325 C 
HETATM    3  N   UNL     1     -41.623  53.608 -54.285  1.00  0.00    -0.306 N 
HETATM    4  O   UNL     1     -39.986  55.006 -55.137  1.00  0.00    -0.247 OA
HETATM    5  H   UNL     1     -43.057  54.985 -55.533  1.00  0.00     0.170 HD
HETATM    6  H   UNL     1     -42.614  53.559 -54.087  1.00  0.00     0.171 HD
ENDROOT
BRANCH   3   7
HETATM    7  C   UNL     1     -40.890  52.569 -53.675  1.00  0.00     0.069 A 
HETATM    8  C   UNL     1     -40.480  52.796 -52.343  1.00  0.00     0.095 A 
HETATM    9  C   UNL     1     -39.729  51.831 -51.668  1.00  0.00     0.039 A 
HETATM   10  C   UNL     1     -39.379  50.646 -52.317  1.00  0.00     0.003 A 
HETATM   11  C   UNL     1     -39.783  50.420 -53.632  1.00  0.00     0.002 A 
HETATM   12  C   UNL     1     -40.540  51.379 -54.312  1.00  0.00     0.032 A 
BRANCH   8  13
HETATM   13  O   UNL     1     -40.898  53.986 -51.797  1.00  0.00    -0.348 OA
BRANCH  13  14
HETATM   14  C   UNL     1     -41.782  53.906 -50.679  1.00  0.00     0.180 C 
BRANCH  14  15
HETATM   15  C   UNL     1     -41.133  54.505 -49.460  1.00  0.00     0.010 A 
HETATM   16  C   UNL     1     -40.576  53.665 -48.337  1.00  0.00     0.007 A 
HETATM   17  C   UNL     1     -39.642  54.415 -49.250  1.00  0.00     0.007 A 
ENDBRANCH  14  15
ENDBRANCH  13  14
ENDBRANCH   8  13
ENDBRANCH   3   7
BRANCH   1  18
HETATM   18  C   UNL     1     -42.263  56.881 -55.707  1.00  0.00     0.059 A 
HETATM   19  C   UNL     1     -42.575  57.379 -56.981  1.00  0.00    -0.032 A 
HETATM   20  C   UNL     1     -42.944  56.543 -58.172  1.00  0.00     0.050 C 
HETATM   21  C   UNL     1     -42.518  58.771 -57.180  1.00  0.00     0.028 A 
HETATM   22  C   UNL     1     -42.113  59.603 -56.150  1.00  0.00     0.117 A 
HETATM   23  N   UNL     1     -41.765  59.156 -54.932  1.00  0.00    -0.271 NA
HETATM   24  C   UNL     1     -41.850  57.817 -54.747  1.00  0.00     0.146 A 
ENDBRANCH   1  18
TORSDOF 5
ENDMDL
MODEL 7
REMARK VINA RESULT:      -6.7      2.038      4.218
REMARK  5 active torsions:
REMARK  status: ('A' for Active; 'I' for Inactive)
REMARK    1  A    between atoms: C_3  and  N_4 
REMARK       I    between atoms: N_4  and  C_5 
REMARK       I    between atoms: C_5  and  N_6 
REMARK    2  A    between atoms: N_6  and  C_7 
REMARK    3  A    between atoms: C_8  and  O_9 
REMARK    4  A    between atoms: O_9  and  C_10 
REMARK    5  A    between atoms: C_10  and  C_11 
ROOT
HETATM    1  N   UNL     1     -43.659  56.113 -55.221  1.00  0.00    -0.307 N 
HETATM    2  C   UNL     1     -42.494  56.024 -54.480  1.00  0.00     0.325 C 
HETATM    3  N   UNL     1     -42.698  55.180 -53.406  1.00  0.00    -0.306 N 
HETATM    4  O   UNL     1     -41.445  56.595 -54.742  1.00  0.00    -0.247 OA
HETATM    5  H   UNL     1     -44.198  55.258 -55.209  1.00  0.00     0.170 HD
HETATM    6  H   UNL     1     -43.642  54.849 -53.249  1.00  0.00     0.171 HD
ENDROOT
BRANCH   3   7
HETATM    7  C   UNL     1     -41.820  54.851 -52.352  1.00  0.00     0.069 A 
HETATM    8  C   UNL     1     -41.125  53.628 -52.480  1.00  0.00     0.095 A 
HETATM    9  C   UNL     1     -40.252  53.210 -51.474  1.00  0.00     0.039 A 
HETATM   10  C   UNL     1     -40.075  54.002 -50.338  1.00  0.00     0.003 A 
HETATM   11  C   UNL     1     -40.760  55.209 -50.210  1.00  0.00     0.002 A 
HETATM   12  C   UNL     1     -41.631  55.636 -51.216  1.00  0.00     0.032 A 
BRANCH   8  13
HETATM   13  O   UNL     1     -41.360  52.942 -53.649  1.00  0.00    -0.348 OA
BRANCH  13  14
HETATM   14  C   UNL     1     -40.245  52.271 -54.236  1.00  0.00     0.180 C 
BRANCH  14  15
HETATM   15  C   UNL     1     -40.488  50.786 -54.262  1.00  0.00     0.010 A 
HETATM   16  C   UNL     1     -39.463  49.801 -54.772  1.00  0.00     0.007 A 
HETATM   17  C   UNL     1     -39.778  49.865 -53.301  1.00  0.00     0.007 A 
ENDBRANCH  14  15
ENDBRANCH  13  14
ENDBRANCH   8  13
ENDBRANCH   3   7
BRANCH   1  18
HETATM   18  C   UNL     1     -44.025  57.051 -56.213  1.00  0.00     0.059 A 
HETATM   19  C   UNL     1     -43.779  56.970 -57.591  1.00  0.00    -0.032 A 
HETATM   20  C   UNL     1     -43.065  55.843 -58.280  1.00  0.00     0.050 C 
HETATM   21  C   UNL     1     -44.212  58.034 -58.406  1.00  0.00     0.028 A 
HETATM   22  C   UNL     1     -44.813  59.143 -57.835  1.00  0.00     0.117 A 
HETATM   23  N   UNL     1     -45.022  59.274 -56.514  1.00  0.00    -0.271 NA
HETATM   24  C   UNL     1     -44.625  58.230 -55.747  1.00  0.00     0.146 A 
ENDBRANCH   1  18
TORSDOF 5
ENDMDL
MODEL 8
REMARK VINA RESULT:      -6.6      2.335      6.992
REMARK  5 active torsions:
REMARK  status: ('A' for Active; 'I' for Inactive)
REMARK    1  A    between atoms: C_3  and  N_4 
REMARK       I    between atoms: N_4  and  C_5 
REMARK       I    between atoms: C_5  and  N_6 
REMARK    2  A    between atoms: N_6  and  C_7 
REMARK    3  A    between atoms: C_8  and  O_9 
REMARK    4  A    between atoms: O_9  and  C_10 
REMARK    5  A    between atoms: C_10  and  C_11 
ROOT
HETATM    1  N   UNL     1     -40.270  53.377 -53.976  1.00  0.00    -0.307 N 
HETATM    2  C   UNL     1     -41.205  54.348 -53.662  1.00  0.00     0.325 C 
HETATM    3  N   UNL     1     -40.834  55.545 -54.245  1.00  0.00    -0.306 N 
HETATM    4  O   UNL     1     -42.206  54.173 -52.984  1.00  0.00    -0.247 OA
HETATM    5  H   UNL     1     -39.857  53.510 -54.889  1.00  0.00     0.170 HD
HETATM    6  H   UNL     1     -39.931  55.579 -54.700  1.00  0.00     0.171 HD
ENDROOT
BRANCH   3   7
HETATM    7  C   UNL     1     -41.442  56.814 -54.138  1.00  0.00     0.069 A 
HETATM    8  C   UNL     1     -42.199  57.236 -55.253  1.00  0.00     0.095 A 
HETATM    9  C   UNL     1     -42.818  58.488 -55.245  1.00  0.00     0.039 A 
HETATM   10  C   UNL     1     -42.677  59.323 -54.135  1.00  0.00     0.003 A 
HETATM   11  C   UNL     1     -41.929  58.908 -53.035  1.00  0.00     0.002 A 
HETATM   12  C   UNL     1     -41.313  57.654 -53.033  1.00  0.00     0.032 A 
BRANCH   8  13
HETATM   13  O   UNL     1     -42.288  56.325 -56.279  1.00  0.00    -0.348 OA
BRANCH  13  14
HETATM   14  C   UNL     1     -43.234  56.607 -57.310  1.00  0.00     0.180 C 
BRANCH  14  15
HETATM   15  C   UNL     1     -43.081  55.623 -58.439  1.00  0.00     0.010 A 
HETATM   16  C   UNL     1     -44.154  55.398 -59.476  1.00  0.00     0.007 A 
HETATM   17  C   UNL     1     -42.875  56.094 -59.858  1.00  0.00     0.007 A 
ENDBRANCH  14  15
ENDBRANCH  13  14
ENDBRANCH   8  13
ENDBRANCH   3   7
BRANCH   1  18
HETATM   18  C   UNL     1     -40.063  52.107 -53.391  1.00  0.00     0.059 A 
HETATM   19  C   UNL     1     -39.766  51.828 -52.049  1.00  0.00    -0.032 A 
HETATM   20  C   UNL     1     -39.609  52.854 -50.964  1.00  0.00     0.050 C 
HETATM   21  C   UNL     1     -39.574  50.483 -51.679  1.00  0.00     0.028 A 
HETATM   22  C   UNL     1     -39.628  49.486 -52.638  1.00  0.00     0.117 A 
HETATM   23  N   UNL     1     -39.865  49.723 -53.939  1.00  0.00    -0.271 NA
HETATM   24  C   UNL     1     -40.075  51.018 -54.275  1.00  0.00     0.146 A 
ENDBRANCH   1  18
TORSDOF 5
ENDMDL
MODEL 9
REMARK VINA RESULT:      -6.5      2.090      7.033
REMARK  5 active torsions:
REMARK  status: ('A' for Active; 'I' for Inactive)
REMARK    1  A    between atoms: C_3  and  N_4 
REMARK       I    between atoms: N_4  and  C_5 
REMARK       I    between atoms: C_5  and  N_6 
REMARK    2  A    between atoms: N_6  and  C_7 
REMARK    3  A    between atoms: C_8  and  O_9 
REMARK    4  A    between atoms: O_9  and  C_10 
REMARK    5  A    between atoms: C_10  and  C_11 
ROOT
HETATM    1  N   UNL     1     -41.249  55.184 -55.372  1.00  0.00    -0.307 N 
HETATM    2  C   UNL     1     -42.376  55.036 -56.160  1.00  0.00     0.325 C 
HETATM    3  N   UNL     1     -42.275  55.862 -57.263  1.00  0.00    -0.306 N 
HETATM    4  O   UNL     1     -43.311  54.284 -55.924  1.00  0.00    -0.247 OA
HETATM    5  H   UNL     1     -40.417  55.386 -55.910  1.00  0.00     0.170 HD
HETATM    6  H   UNL     1     -41.495  56.507 -57.290  1.00  0.00     0.171 HD
ENDROOT
BRANCH   3   7
HETATM    7  C   UNL     1     -43.212  56.094 -58.292  1.00  0.00     0.069 A 
HETATM    8  C   UNL     1     -43.881  57.337 -58.255  1.00  0.00     0.095 A 
HETATM    9  C   UNL     1     -44.843  57.644 -59.220  1.00  0.00     0.039 A 
HETATM   10  C   UNL     1     -45.146  56.714 -60.215  1.00  0.00     0.003 A 
HETATM   11  C   UNL     1     -44.487  55.486 -60.252  1.00  0.00     0.002 A 
HETATM   12  C   UNL     1     -43.519  55.175 -59.294  1.00  0.00     0.032 A 
BRANCH   8  13
HETATM   13  O   UNL     1     -43.487  58.184 -57.245  1.00  0.00    -0.348 OA
BRANCH  13  14
HETATM   14  C   UNL     1     -43.318  59.559 -57.587  1.00  0.00     0.180 C 
BRANCH  14  15
HETATM   15  C   UNL     1     -42.016  59.757 -58.315  1.00  0.00     0.010 A 
HETATM   16  C   UNL     1     -41.902  60.589 -59.570  1.00  0.00     0.007 A 
HETATM   17  C   UNL     1     -41.300  61.085 -58.281  1.00  0.00     0.007 A 
ENDBRANCH  14  15
ENDBRANCH  13  14
ENDBRANCH   8  13
ENDBRANCH   3   7
BRANCH   1  18
HETATM   18  C   UNL     1     -41.029  54.783 -54.034  1.00  0.00     0.059 A 
HETATM   19  C   UNL     1     -40.603  53.526 -53.583  1.00  0.00    -0.032 A 
HETATM   20  C   UNL     1     -40.298  52.347 -54.460  1.00  0.00     0.050 C 
HETATM   21  C   UNL     1     -40.468  53.330 -52.195  1.00  0.00     0.028 A 
HETATM   22  C   UNL     1     -40.803  54.348 -51.316  1.00  0.00     0.117 A 
HETATM   23  N   UNL     1     -41.256  55.548 -51.713  1.00  0.00    -0.271 NA
HETATM   24  C   UNL     1     -41.354  55.730 -53.051  1.00  0.00     0.146 A 
ENDBRANCH   1  18
TORSDOF 5
ENDMDL
MODEL 10
REMARK VINA RESULT:      -6.5      1.434      6.417
REMARK  5 active torsions:
REMARK  status: ('A' for Active; 'I' for Inactive)
REMARK    1  A    between atoms: C_3  and  N_4 
REMARK       I    between atoms: N_4  and  C_5 
REMARK       I    between atoms: C_5  and  N_6 
REMARK    2  A    between atoms: N_6  and  C_7 
REMARK    3  A    between atoms: C_8  and  O_9 
REMARK    4  A    between atoms: O_9  and  C_10 
REMARK    5  A    between atoms: C_10  and  C_11 
ROOT
HETATM    1  N   UNL     1     -41.186  55.338 -55.086  1.00  0.00    -0.307 N 
HETATM    2  C   UNL     1     -42.257  55.151 -55.942  1.00  0.00     0.325 C 
HETATM    3  N   UNL     1     -42.205  56.093 -56.952  1.00  0.00    -0.306 N 
HETATM    4  O   UNL     1     -43.109  54.282 -55.830  1.00  0.00    -0.247 OA
HETATM    5  H   UNL     1     -40.362  55.684 -55.557  1.00  0.00     0.170 HD
HETATM    6  H   UNL     1     -41.502  56.818 -56.874  1.00  0.00     0.171 HD
ENDROOT
BRANCH   3   7
HETATM    7  C   UNL     1     -43.120  56.328 -57.999  1.00  0.00     0.069 A 
HETATM    8  C   UNL     1     -44.107  57.307 -57.755  1.00  0.00     0.095 A 
HETATM    9  C   UNL     1     -45.069  57.588 -58.727  1.00  0.00     0.039 A 
HETATM   10  C   UNL     1     -45.056  56.893 -59.937  1.00  0.00     0.003 A 
HETATM   11  C   UNL     1     -44.081  55.926 -60.180  1.00  0.00     0.002 A 
HETATM   12  C   UNL     1     -43.112  55.643 -59.214  1.00  0.00     0.032 A 
BRANCH   8  13
HETATM   13  O   UNL     1     -44.012  57.943 -56.540  1.00  0.00    -0.348 OA
BRANCH  13  14
HETATM   14  C   UNL     1     -45.196  57.990 -55.743  1.00  0.00     0.180 C 
BRANCH  14  15
HETATM   15  C   UNL     1     -44.876  58.512 -54.368  1.00  0.00     0.010 A 
HETATM   16  C   UNL     1     -44.582  57.604 -53.199  1.00  0.00     0.007 A 
HETATM   17  C   UNL     1     -43.477  58.425 -53.810  1.00  0.00     0.007 A 
ENDBRANCH  14  15
ENDBRANCH  13  14
ENDBRANCH   8  13
ENDBRANCH   3   7
BRANCH   1  18
HETATM   18  C   UNL     1     -40.977  54.827 -53.784  1.00  0.00     0.059 A 
HETATM   19  C   UNL     1     -40.573  53.531 -53.435  1.00  0.00    -0.032 A 
HETATM   20  C   UNL     1     -40.283  52.421 -54.405  1.00  0.00     0.050 C 
HETATM   21  C   UNL     1     -40.445  53.221 -52.067  1.00  0.00     0.028 A 
HETATM   22  C   UNL     1     -40.766  54.170 -51.110  1.00  0.00     0.117 A 
HETATM   23  N   UNL     1     -41.200  55.405 -51.409  1.00  0.00    -0.271 NA
HETATM   24  C   UNL     1     -41.291  55.696 -52.729  1.00  0.00     0.146 A 
ENDBRANCH   1  18
TORSDOF 5
ENDMDL
