MODEL 1
REMARK VINA RESULT:      -9.6      0.000      0.000
REMARK  5 active torsions:
REMARK  status: ('A' for Active; 'I' for Inactive)
REMARK    1  A    between atoms: C_14  and  C_15 
REMARK    2  A    between atoms: C_15  and  C_16 
REMARK    3  A    between atoms: C_16  and  C_17 
REMARK       I    between atoms: C_17  and  N_18 
REMARK    4  A    between atoms: N_21  and  C_22 
REMARK    5  A    between atoms: C_23  and  O_24 
ROOT
HETATM    1  C   UNL     1     -41.242  55.239 -55.081  1.00  0.00     0.051 C 
ENDROOT
BRANCH   1   2
HETATM    2  C   UNL     1     -40.963  54.697 -53.709  1.00  0.00    -0.017 A 
HETATM    3  C   UNL     1     -40.528  53.349 -53.453  1.00  0.00    -0.000 A 
HETATM    4  C   UNL     1     -40.259  52.233 -54.276  1.00  0.00     0.021 A 
HETATM    5  C   UNL     1     -40.351  53.214 -52.083  1.00  0.00     0.043 A 
HETATM    6  C   UNL     1     -39.836  51.021 -53.703  1.00  0.00    -0.061 A 
HETATM    7  C   UNL     1     -39.512  49.843 -54.575  1.00  0.00     0.048 C 
HETATM    8  C   UNL     1     -39.663  50.935 -52.318  1.00  0.00     0.009 A 
HETATM    9  C   UNL     1     -39.921  52.026 -51.482  1.00  0.00     0.031 A 
HETATM   10  N   UNL     1     -40.660  54.426 -51.524  1.00  0.00    -0.354 N 
HETATM   11  H   UNL     1     -40.611  54.631 -50.536  1.00  0.00     0.166 HD
HETATM   12  C   UNL     1     -41.039  55.346 -52.479  1.00  0.00     0.057 A 
HETATM   13  C   UNL     1     -41.406  56.692 -52.104  1.00  0.00     0.032 A 
HETATM   14  S   UNL     1     -40.960  57.338 -50.567  1.00  0.00    -0.100 SA
HETATM   15  C   UNL     1     -42.121  57.628 -52.827  1.00  0.00     0.021 A 
HETATM   16  C   UNL     1     -41.704  58.839 -50.891  1.00  0.00     0.050 A 
HETATM   17  C   UNL     1     -42.291  58.864 -52.133  1.00  0.00     0.008 A 
ENDBRANCH   1   2
BRANCH   1  18
HETATM   18  C   UNL     1     -42.637  54.856 -55.576  1.00  0.00     0.108 C 
BRANCH  18  19
HETATM   19  C   UNL     1     -43.520  56.076 -55.763  1.00  0.00     0.220 C 
HETATM   20  N   UNL     1     -43.570  56.628 -57.035  1.00  0.00    -0.349 N 
HETATM   21  C   UNL     1     -42.724  56.235 -58.169  1.00  0.00     0.145 C 
HETATM   22  C   UNL     1     -44.290  57.892 -57.230  1.00  0.00     0.145 C 
HETATM   23  C   UNL     1     -43.471  56.295 -59.518  1.00  0.00     0.143 C 
HETATM   24  N   UNL     1     -44.267  57.526 -59.713  1.00  0.00    -0.376 N 
HETATM   25  C   UNL     1     -45.100  57.892 -58.534  1.00  0.00     0.143 C 
HETATM   26  O   UNL     1     -44.170  56.541 -54.827  1.00  0.00    -0.273 OA
BRANCH  24  27
HETATM   27  C   UNL     1     -43.694  58.619 -60.380  1.00  0.00     0.063 A 
HETATM   28  C   UNL     1     -44.534  59.481 -61.116  1.00  0.00     0.092 A 
HETATM   29  C   UNL     1     -44.067  60.609 -61.781  1.00  0.00     0.039 A 
HETATM   30  C   UNL     1     -42.707  60.895 -61.748  1.00  0.00     0.003 A 
HETATM   31  C   UNL     1     -41.839  60.048 -61.059  1.00  0.00     0.002 A 
HETATM   32  C   UNL     1     -42.329  58.918 -60.386  1.00  0.00     0.032 A 
BRANCH  28  33
HETATM   33  O   UNL     1     -45.864  59.166 -61.243  1.00  0.00    -0.358 OA
HETATM   34  H   UNL     1     -46.267  60.021 -61.497  1.00  0.00     0.218 HD
ENDBRANCH  28  33
ENDBRANCH  24  27
ENDBRANCH  18  19
ENDBRANCH   1  18
TORSDOF 5
ENDMDL
MODEL 2
REMARK VINA RESULT:      -9.2      1.684      2.074
REMARK  5 active torsions:
REMARK  status: ('A' for Active; 'I' for Inactive)
REMARK    1  A    between atoms: C_14  and  C_15 
REMARK    2  A    between atoms: C_15  and  C_16 
REMARK    3  A    between atoms: C_16  and  C_17 
REMARK       I    between atoms: C_17  and  N_18 
REMARK    4  A    between atoms: N_21  and  C_22 
REMARK    5  A    between atoms: C_23  and  O_24 
ROOT
HETATM    1  C   UNL     1     -42.930  54.433 -55.177  1.00  0.00     0.051 C 
ENDROOT
BRANCH   1   2
HETATM    2  C   UNL     1     -42.191  54.303 -53.877  1.00  0.00    -0.017 A 
HETATM    3  C   UNL     1     -41.297  53.218 -53.569  1.00  0.00    -0.000 A 
HETATM    4  C   UNL     1     -40.872  52.068 -54.272  1.00  0.00     0.021 A 
HETATM    5  C   UNL     1     -40.783  53.440 -52.299  1.00  0.00     0.043 A 
HETATM    6  C   UNL     1     -39.962  51.176 -53.677  1.00  0.00    -0.061 A 
HETATM    7  C   UNL     1     -39.478  49.973 -54.433  1.00  0.00     0.048 C 
HETATM    8  C   UNL     1     -39.465  51.446 -52.399  1.00  0.00     0.009 A 
HETATM    9  C   UNL     1     -39.868  52.579 -51.684  1.00  0.00     0.031 A 
HETATM   10  N   UNL     1     -41.335  54.611 -51.850  1.00  0.00    -0.354 N 
HETATM   11  H   UNL     1     -41.135  55.032 -50.954  1.00  0.00     0.166 HD
HETATM   12  C   UNL     1     -42.195  55.158 -52.778  1.00  0.00     0.057 A 
HETATM   13  C   UNL     1     -42.885  56.398 -52.506  1.00  0.00     0.032 A 
HETATM   14  S   UNL     1     -42.340  57.462 -51.261  1.00  0.00    -0.100 SA
HETATM   15  C   UNL     1     -44.008  56.918 -53.122  1.00  0.00     0.021 A 
HETATM   16  C   UNL     1     -43.583  58.590 -51.568  1.00  0.00     0.050 A 
HETATM   17  C   UNL     1     -44.409  58.179 -52.587  1.00  0.00     0.008 A 
ENDBRANCH   1   2
BRANCH   1  18
HETATM   18  C   UNL     1     -42.399  55.589 -56.026  1.00  0.00     0.108 C 
BRANCH  18  19
HETATM   19  C   UNL     1     -43.038  55.614 -57.402  1.00  0.00     0.220 C 
HETATM   20  N   UNL     1     -42.946  56.801 -58.117  1.00  0.00    -0.349 N 
HETATM   21  C   UNL     1     -42.428  58.072 -57.596  1.00  0.00     0.145 C 
HETATM   22  C   UNL     1     -43.675  56.920 -59.385  1.00  0.00     0.145 C 
HETATM   23  C   UNL     1     -41.650  58.877 -58.658  1.00  0.00     0.143 C 
HETATM   24  N   UNL     1     -42.326  58.954 -59.971  1.00  0.00    -0.376 N 
HETATM   25  C   UNL     1     -42.844  57.645 -60.454  1.00  0.00     0.143 C 
HETATM   26  O   UNL     1     -43.600  54.621 -57.861  1.00  0.00    -0.273 OA
BRANCH  24  27
HETATM   27  C   UNL     1     -43.157  60.048 -60.257  1.00  0.00     0.063 A 
HETATM   28  C   UNL     1     -42.870  60.840 -61.388  1.00  0.00     0.092 A 
HETATM   29  C   UNL     1     -43.655  61.922 -61.774  1.00  0.00     0.039 A 
HETATM   30  C   UNL     1     -44.759  62.263 -61.001  1.00  0.00     0.003 A 
HETATM   31  C   UNL     1     -45.055  61.524 -59.856  1.00  0.00     0.002 A 
HETATM   32  C   UNL     1     -44.258  60.430 -59.486  1.00  0.00     0.032 A 
BRANCH  28  33
HETATM   33  O   UNL     1     -41.732  60.583 -62.111  1.00  0.00    -0.358 OA
HETATM   34  H   UNL     1     -41.953  59.751 -62.576  1.00  0.00     0.218 HD
ENDBRANCH  28  33
ENDBRANCH  24  27
ENDBRANCH  18  19
ENDBRANCH   1  18
TORSDOF 5
ENDMDL
MODEL 3
REMARK VINA RESULT:      -8.8      2.127      2.866
REMARK  5 active torsions:
REMARK  status: ('A' for Active; 'I' for Inactive)
REMARK    1  A    between atoms: C_14  and  C_15 
REMARK    2  A    between atoms: C_15  and  C_16 
REMARK    3  A    between atoms: C_16  and  C_17 
REMARK       I    between atoms: C_17  and  N_18 
REMARK    4  A    between atoms: N_21  and  C_22 
REMARK    5  A    between atoms: C_23  and  O_24 
ROOT
HETATM    1  C   UNL     1     -43.052  54.725 -55.217  1.00  0.00     0.051 C 
ENDROOT
BRANCH   1   2
HETATM    2  C   UNL     1     -42.303  54.575 -53.924  1.00  0.00    -0.017 A 
HETATM    3  C   UNL     1     -41.431  53.469 -53.627  1.00  0.00    -0.000 A 
HETATM    4  C   UNL     1     -41.041  52.311 -54.335  1.00  0.00     0.021 A 
HETATM    5  C   UNL     1     -40.899  53.678 -52.362  1.00  0.00     0.043 A 
HETATM    6  C   UNL     1     -40.146  51.397 -53.751  1.00  0.00    -0.061 A 
HETATM    7  C   UNL     1     -39.698  50.184 -54.513  1.00  0.00     0.048 C 
HETATM    8  C   UNL     1     -39.630  51.654 -52.478  1.00  0.00     0.009 A 
HETATM    9  C   UNL     1     -39.999  52.795 -51.758  1.00  0.00     0.031 A 
HETATM   10  N   UNL     1     -41.419  54.861 -51.906  1.00  0.00    -0.354 N 
HETATM   11  H   UNL     1     -41.200  55.276 -51.012  1.00  0.00     0.166 HD
HETATM   12  C   UNL     1     -42.276  55.429 -52.824  1.00  0.00     0.057 A 
HETATM   13  C   UNL     1     -42.933  56.685 -52.544  1.00  0.00     0.032 A 
HETATM   14  S   UNL     1     -42.351  57.734 -51.304  1.00  0.00    -0.100 SA
HETATM   15  C   UNL     1     -44.050  57.231 -53.148  1.00  0.00     0.021 A 
HETATM   16  C   UNL     1     -43.570  58.891 -51.597  1.00  0.00     0.050 A 
HETATM   17  C   UNL     1     -44.416  58.501 -52.608  1.00  0.00     0.008 A 
ENDBRANCH   1   2
BRANCH   1  18
HETATM   18  C   UNL     1     -42.435  55.795 -56.117  1.00  0.00     0.108 C 
BRANCH  18  19
HETATM   19  C   UNL     1     -43.163  55.900 -57.445  1.00  0.00     0.220 C 
HETATM   20  N   UNL     1     -43.826  57.091 -57.707  1.00  0.00    -0.349 N 
HETATM   21  C   UNL     1     -44.016  58.189 -56.751  1.00  0.00     0.145 C 
HETATM   22  C   UNL     1     -44.665  57.184 -58.907  1.00  0.00     0.145 C 
HETATM   23  C   UNL     1     -43.950  59.578 -57.420  1.00  0.00     0.143 C 
HETATM   24  N   UNL     1     -44.728  59.682 -58.673  1.00  0.00    -0.376 N 
HETATM   25  C   UNL     1     -44.512  58.542 -59.606  1.00  0.00     0.143 C 
HETATM   26  O   UNL     1     -43.152  54.971 -58.252  1.00  0.00    -0.273 OA
BRANCH  24  27
HETATM   27  C   UNL     1     -46.049  60.153 -58.629  1.00  0.00     0.063 A 
HETATM   28  C   UNL     1     -46.363  61.356 -59.295  1.00  0.00     0.092 A 
HETATM   29  C   UNL     1     -47.649  61.885 -59.339  1.00  0.00     0.039 A 
HETATM   30  C   UNL     1     -48.673  61.219 -58.676  1.00  0.00     0.003 A 
HETATM   31  C   UNL     1     -48.395  60.045 -57.977  1.00  0.00     0.002 A 
HETATM   32  C   UNL     1     -47.094  59.521 -57.950  1.00  0.00     0.032 A 
BRANCH  28  33
HETATM   33  O   UNL     1     -45.351  62.080 -59.875  1.00  0.00    -0.358 OA
HETATM   34  H   UNL     1     -45.027  61.479 -60.576  1.00  0.00     0.218 HD
ENDBRANCH  28  33
ENDBRANCH  24  27
ENDBRANCH  18  19
ENDBRANCH   1  18
TORSDOF 5
ENDMDL
MODEL 4
REMARK VINA RESULT:      -8.5      2.760      4.006
REMARK  5 active torsions:
REMARK  status: ('A' for Active; 'I' for Inactive)
REMARK    1  A    between atoms: C_14  and  C_15 
REMARK    2  A    between atoms: C_15  and  C_16 
REMARK    3  A    between atoms: C_16  and  C_17 
REMARK       I    between atoms: C_17  and  N_18 
REMARK    4  A    between atoms: N_21  and  C_22 
REMARK    5  A    between atoms: C_23  and  O_24 
ROOT
HETATM    1  C   UNL     1     -41.110  58.554 -51.696  1.00  0.00     0.051 C 
ENDROOT
BRANCH   1   2
HETATM    2  C   UNL     1     -42.271  57.613 -51.552  1.00  0.00    -0.017 A 
HETATM    3  C   UNL     1     -42.141  56.180 -51.515  1.00  0.00    -0.000 A 
HETATM    4  C   UNL     1     -41.045  55.292 -51.596  1.00  0.00     0.021 A 
HETATM    5  C   UNL     1     -43.411  55.644 -51.352  1.00  0.00     0.043 A 
HETATM    6  C   UNL     1     -41.256  53.904 -51.524  1.00  0.00    -0.061 A 
HETATM    7  C   UNL     1     -40.092  52.958 -51.572  1.00  0.00     0.048 C 
HETATM    8  C   UNL     1     -42.553  53.411 -51.352  1.00  0.00     0.009 A 
HETATM    9  C   UNL     1     -43.654  54.269 -51.266  1.00  0.00     0.031 A 
HETATM   10  N   UNL     1     -44.280  56.701 -51.288  1.00  0.00    -0.354 N 
HETATM   11  H   UNL     1     -45.278  56.615 -51.159  1.00  0.00     0.166 HD
HETATM   12  C   UNL     1     -43.625  57.908 -51.410  1.00  0.00     0.057 A 
HETATM   13  C   UNL     1     -44.355  59.154 -51.367  1.00  0.00     0.032 A 
HETATM   14  S   UNL     1     -45.953  59.224 -50.719  1.00  0.00    -0.100 SA
HETATM   15  C   UNL     1     -43.959  60.405 -51.801  1.00  0.00     0.021 A 
HETATM   16  C   UNL     1     -46.085  60.900 -51.009  1.00  0.00     0.050 A 
HETATM   17  C   UNL     1     -44.951  61.411 -51.593  1.00  0.00     0.008 A 
ENDBRANCH   1   2
BRANCH   1  18
HETATM   18  C   UNL     1     -40.512  58.516 -53.102  1.00  0.00     0.108 C 
BRANCH  18  19
HETATM   19  C   UNL     1     -41.352  59.304 -54.090  1.00  0.00     0.220 C 
HETATM   20  N   UNL     1     -42.107  58.574 -54.998  1.00  0.00    -0.349 N 
HETATM   21  C   UNL     1     -42.040  57.119 -55.187  1.00  0.00     0.145 C 
HETATM   22  C   UNL     1     -42.817  59.289 -56.064  1.00  0.00     0.145 C 
HETATM   23  C   UNL     1     -43.415  56.497 -55.511  1.00  0.00     0.143 C 
HETATM   24  N   UNL     1     -44.187  57.238 -56.532  1.00  0.00    -0.376 N 
HETATM   25  C   UNL     1     -44.218  58.709 -56.305  1.00  0.00     0.143 C 
HETATM   26  O   UNL     1     -41.367  60.534 -54.074  1.00  0.00    -0.273 OA
BRANCH  24  27
HETATM   27  C   UNL     1     -44.090  56.861 -57.880  1.00  0.00     0.063 A 
HETATM   28  C   UNL     1     -45.227  56.990 -58.704  1.00  0.00     0.092 A 
HETATM   29  C   UNL     1     -45.220  56.677 -60.059  1.00  0.00     0.039 A 
HETATM   30  C   UNL     1     -44.051  56.187 -60.631  1.00  0.00     0.003 A 
HETATM   31  C   UNL     1     -42.916  56.012 -59.840  1.00  0.00     0.002 A 
HETATM   32  C   UNL     1     -42.938  56.342 -58.476  1.00  0.00     0.032 A 
BRANCH  28  33
HETATM   33  O   UNL     1     -46.417  57.381 -58.142  1.00  0.00    -0.358 OA
HETATM   34  H   UNL     1     -46.236  58.302 -57.867  1.00  0.00     0.218 HD
ENDBRANCH  28  33
ENDBRANCH  24  27
ENDBRANCH  18  19
ENDBRANCH   1  18
TORSDOF 5
ENDMDL
MODEL 5
REMARK VINA RESULT:      -8.5      2.014      2.847
REMARK  5 active torsions:
REMARK  status: ('A' for Active; 'I' for Inactive)
REMARK    1  A    between atoms: C_14  and  C_15 
REMARK    2  A    between atoms: C_15  and  C_16 
REMARK    3  A    between atoms: C_16  and  C_17 
REMARK       I    between atoms: C_17  and  N_18 
REMARK    4  A    between atoms: N_21  and  C_22 
REMARK    5  A    between atoms: C_23  and  O_24 
ROOT
HETATM    1  C   UNL     1     -43.258  55.741 -53.881  1.00  0.00     0.051 C 
ENDROOT
BRANCH   1   2
HETATM    2  C   UNL     1     -42.724  56.046 -52.511  1.00  0.00    -0.017 A 
HETATM    3  C   UNL     1     -41.830  55.181 -51.788  1.00  0.00    -0.000 A 
HETATM    4  C   UNL     1     -41.237  53.929 -52.069  1.00  0.00     0.021 A 
HETATM    5  C   UNL     1     -41.533  55.793 -50.578  1.00  0.00     0.043 A 
HETATM    6  C   UNL     1     -40.382  53.329 -51.128  1.00  0.00    -0.061 A 
HETATM    7  C   UNL     1     -39.719  52.018 -51.435  1.00  0.00     0.048 C 
HETATM    8  C   UNL     1     -40.106  53.988 -49.926  1.00  0.00     0.009 A 
HETATM    9  C   UNL     1     -40.679  55.228 -49.626  1.00  0.00     0.031 A 
HETATM   10  N   UNL     1     -42.214  56.982 -50.562  1.00  0.00    -0.354 N 
HETATM   11  H   UNL     1     -42.179  57.651 -49.805  1.00  0.00     0.166 HD
HETATM   12  C   UNL     1     -42.948  57.166 -51.714  1.00  0.00     0.057 A 
HETATM   13  C   UNL     1     -43.740  58.360 -51.903  1.00  0.00     0.032 A 
HETATM   14  S   UNL     1     -43.456  59.773 -50.954  1.00  0.00    -0.100 SA
HETATM   15  C   UNL     1     -44.780  58.577 -52.787  1.00  0.00     0.021 A 
HETATM   16  C   UNL     1     -44.697  60.646 -51.735  1.00  0.00     0.050 A 
HETATM   17  C   UNL     1     -45.330  59.891 -52.694  1.00  0.00     0.008 A 
ENDBRANCH   1   2
BRANCH   1  18
HETATM   18  C   UNL     1     -42.308  56.208 -54.983  1.00  0.00     0.108 C 
BRANCH  18  19
HETATM   19  C   UNL     1     -42.759  55.731 -56.352  1.00  0.00     0.220 C 
HETATM   20  N   UNL     1     -42.796  56.676 -57.368  1.00  0.00    -0.349 N 
HETATM   21  C   UNL     1     -42.592  58.120 -57.197  1.00  0.00     0.145 C 
HETATM   22  C   UNL     1     -43.365  56.296 -58.666  1.00  0.00     0.145 C 
HETATM   23  C   UNL     1     -41.846  58.760 -58.386  1.00  0.00     0.143 C 
HETATM   24  N   UNL     1     -42.350  58.340 -59.711  1.00  0.00    -0.376 N 
HETATM   25  C   UNL     1     -42.551  56.870 -59.835  1.00  0.00     0.143 C 
HETATM   26  O   UNL     1     -43.065  54.555 -56.547  1.00  0.00    -0.273 OA
BRANCH  24  27
HETATM   27  C   UNL     1     -43.324  59.116 -60.357  1.00  0.00     0.063 A 
HETATM   28  C   UNL     1     -42.931  59.946 -61.427  1.00  0.00     0.092 A 
HETATM   29  C   UNL     1     -43.828  60.723 -62.152  1.00  0.00     0.039 A 
HETATM   30  C   UNL     1     -45.171  60.710 -61.796  1.00  0.00     0.003 A 
HETATM   31  C   UNL     1     -45.593  59.928 -60.722  1.00  0.00     0.002 A 
HETATM   32  C   UNL     1     -44.677  59.142 -60.006  1.00  0.00     0.032 A 
BRANCH  28  33
HETATM   33  O   UNL     1     -41.597  60.049 -61.736  1.00  0.00    -0.358 OA
HETATM   34  H   UNL     1     -41.529  60.951 -62.110  1.00  0.00     0.218 HD
ENDBRANCH  28  33
ENDBRANCH  24  27
ENDBRANCH  18  19
ENDBRANCH   1  18
TORSDOF 5
ENDMDL
MODEL 6
REMARK VINA RESULT:      -8.4      2.739      5.236
REMARK  5 active torsions:
REMARK  status: ('A' for Active; 'I' for Inactive)
REMARK    1  A    between atoms: C_14  and  C_15 
REMARK    2  A    between atoms: C_15  and  C_16 
REMARK    3  A    between atoms: C_16  and  C_17 
REMARK       I    between atoms: C_17  and  N_18 
REMARK    4  A    between atoms: N_21  and  C_22 
REMARK    5  A    between atoms: C_23  and  O_24 
ROOT
HETATM    1  C   UNL     1     -42.263  54.068 -54.583  1.00  0.00     0.051 C 
ENDROOT
BRANCH   1   2
HETATM    2  C   UNL     1     -41.545  54.125 -53.266  1.00  0.00    -0.017 A 
HETATM    3  C   UNL     1     -41.630  55.237 -52.355  1.00  0.00    -0.000 A 
HETATM    4  C   UNL     1     -42.308  56.476 -52.380  1.00  0.00     0.021 A 
HETATM    5  C   UNL     1     -40.859  54.931 -51.241  1.00  0.00     0.043 A 
HETATM    6  C   UNL     1     -42.184  57.368 -51.301  1.00  0.00    -0.061 A 
HETATM    7  C   UNL     1     -42.932  58.669 -51.304  1.00  0.00     0.048 C 
HETATM    8  C   UNL     1     -41.403  57.013 -50.197  1.00  0.00     0.009 A 
HETATM    9  C   UNL     1     -40.723  55.792 -50.148  1.00  0.00     0.031 A 
HETATM   10  N   UNL     1     -40.329  53.686 -51.459  1.00  0.00    -0.354 N 
HETATM   11  H   UNL     1     -39.731  53.197 -50.808  1.00  0.00     0.166 HD
HETATM   12  C   UNL     1     -40.720  53.171 -52.676  1.00  0.00     0.057 A 
HETATM   13  C   UNL     1     -40.274  51.865 -53.104  1.00  0.00     0.032 A 
HETATM   14  S   UNL     1     -39.641  50.728 -51.970  1.00  0.00    -0.100 SA
HETATM   15  C   UNL     1     -40.261  51.328 -54.378  1.00  0.00     0.021 A 
HETATM   16  C   UNL     1     -39.377  49.550 -53.175  1.00  0.00     0.050 A 
HETATM   17  C   UNL     1     -39.749  49.997 -54.420  1.00  0.00     0.008 A 
ENDBRANCH   1   2
BRANCH   1  18
HETATM   18  C   UNL     1     -41.654  55.023 -55.610  1.00  0.00     0.108 C 
BRANCH  18  19
HETATM   19  C   UNL     1     -42.705  55.573 -56.557  1.00  0.00     0.220 C 
HETATM   20  N   UNL     1     -42.958  56.937 -56.492  1.00  0.00    -0.349 N 
HETATM   21  C   UNL     1     -42.417  57.857 -55.484  1.00  0.00     0.145 C 
HETATM   22  C   UNL     1     -44.067  57.488 -57.280  1.00  0.00     0.145 C 
HETATM   23  C   UNL     1     -42.102  59.253 -56.061  1.00  0.00     0.143 C 
HETATM   24  N   UNL     1     -43.172  59.806 -56.921  1.00  0.00    -0.376 N 
HETATM   25  C   UNL     1     -43.697  58.834 -57.919  1.00  0.00     0.143 C 
HETATM   26  O   UNL     1     -43.293  54.840 -57.351  1.00  0.00    -0.273 OA
BRANCH  24  27
HETATM   27  C   UNL     1     -44.147  60.643 -56.358  1.00  0.00     0.063 A 
HETATM   28  C   UNL     1     -44.408  61.887 -56.970  1.00  0.00     0.092 A 
HETATM   29  C   UNL     1     -45.379  62.769 -56.508  1.00  0.00     0.039 A 
HETATM   30  C   UNL     1     -46.112  62.432 -55.376  1.00  0.00     0.003 A 
HETATM   31  C   UNL     1     -45.858  61.226 -54.723  1.00  0.00     0.002 A 
HETATM   32  C   UNL     1     -44.881  60.343 -55.207  1.00  0.00     0.032 A 
BRANCH  28  33
HETATM   33  O   UNL     1     -43.633  62.284 -58.031  1.00  0.00    -0.358 OA
HETATM   34  H   UNL     1     -42.747  62.386 -57.627  1.00  0.00     0.218 HD
ENDBRANCH  28  33
ENDBRANCH  24  27
ENDBRANCH  18  19
ENDBRANCH   1  18
TORSDOF 5
ENDMDL
MODEL 7
REMARK VINA RESULT:      -8.3      1.390      4.225
REMARK  5 active torsions:
REMARK  status: ('A' for Active; 'I' for Inactive)
REMARK    1  A    between atoms: C_14  and  C_15 
REMARK    2  A    between atoms: C_15  and  C_16 
REMARK    3  A    between atoms: C_16  and  C_17 
REMARK       I    between atoms: C_17  and  N_18 
REMARK    4  A    between atoms: N_21  and  C_22 
REMARK    5  A    between atoms: C_23  and  O_24 
ROOT
HETATM    1  C   UNL     1     -42.907  54.541 -54.361  1.00  0.00     0.051 C 
ENDROOT
BRANCH   1   2
HETATM    2  C   UNL     1     -41.987  54.706 -53.186  1.00  0.00    -0.017 A 
HETATM    3  C   UNL     1     -41.984  55.862 -52.327  1.00  0.00    -0.000 A 
HETATM    4  C   UNL     1     -42.726  57.063 -52.298  1.00  0.00     0.021 A 
HETATM    5  C   UNL     1     -41.026  55.656 -51.344  1.00  0.00     0.043 A 
HETATM    6  C   UNL     1     -42.477  58.020 -51.299  1.00  0.00    -0.061 A 
HETATM    7  C   UNL     1     -43.288  59.282 -51.240  1.00  0.00     0.048 C 
HETATM    8  C   UNL     1     -41.508  57.765 -50.325  1.00  0.00     0.009 A 
HETATM    9  C   UNL     1     -40.762  56.582 -50.330  1.00  0.00     0.031 A 
HETATM   10  N   UNL     1     -40.469  54.428 -51.587  1.00  0.00    -0.354 N 
HETATM   11  H   UNL     1     -39.746  54.005 -51.022  1.00  0.00     0.166 HD
HETATM   12  C   UNL     1     -41.024  53.827 -52.696  1.00  0.00     0.057 A 
HETATM   13  C   UNL     1     -40.582  52.521 -53.130  1.00  0.00     0.032 A 
HETATM   14  S   UNL     1     -39.709  51.481 -52.064  1.00  0.00    -0.100 SA
HETATM   15  C   UNL     1     -40.747  51.915 -54.361  1.00  0.00     0.021 A 
HETATM   16  C   UNL     1     -39.580  50.251 -53.239  1.00  0.00     0.050 A 
HETATM   17  C   UNL     1     -40.174  50.609 -54.425  1.00  0.00     0.008 A 
ENDBRANCH   1   2
BRANCH   1  18
HETATM   18  C   UNL     1     -42.488  55.415 -55.544  1.00  0.00     0.108 C 
BRANCH  18  19
HETATM   19  C   UNL     1     -43.504  56.508 -55.821  1.00  0.00     0.220 C 
HETATM   20  N   UNL     1     -43.480  57.084 -57.084  1.00  0.00    -0.349 N 
HETATM   21  C   UNL     1     -42.462  56.841 -58.112  1.00  0.00     0.145 C 
HETATM   22  C   UNL     1     -44.341  58.243 -57.348  1.00  0.00     0.145 C 
HETATM   23  C   UNL     1     -43.048  56.836 -59.540  1.00  0.00     0.143 C 
HETATM   24  N   UNL     1     -43.978  57.953 -59.814  1.00  0.00    -0.376 N 
HETATM   25  C   UNL     1     -44.985  58.169 -58.740  1.00  0.00     0.143 C 
HETATM   26  O   UNL     1     -44.316  56.854 -54.963  1.00  0.00    -0.273 OA
BRANCH  24  27
HETATM   27  C   UNL     1     -43.488  59.132 -60.396  1.00  0.00     0.063 A 
HETATM   28  C   UNL     1     -44.342  59.881 -61.232  1.00  0.00     0.092 A 
HETATM   29  C   UNL     1     -43.961  61.080 -61.825  1.00  0.00     0.039 A 
HETATM   30  C   UNL     1     -42.672  61.557 -61.612  1.00  0.00     0.003 A 
HETATM   31  C   UNL     1     -41.788  60.826 -60.820  1.00  0.00     0.002 A 
HETATM   32  C   UNL     1     -42.191  59.623 -60.222  1.00  0.00     0.032 A 
BRANCH  28  33
HETATM   33  O   UNL     1     -45.585  59.384 -61.534  1.00  0.00    -0.358 OA
HETATM   34  H   UNL     1     -46.180  60.120 -61.287  1.00  0.00     0.218 HD
ENDBRANCH  28  33
ENDBRANCH  24  27
ENDBRANCH  18  19
ENDBRANCH   1  18
TORSDOF 5
ENDMDL
MODEL 8
REMARK VINA RESULT:      -8.3      2.115      4.983
REMARK  5 active torsions:
REMARK  status: ('A' for Active; 'I' for Inactive)
REMARK    1  A    between atoms: C_14  and  C_15 
REMARK    2  A    between atoms: C_15  and  C_16 
REMARK    3  A    between atoms: C_16  and  C_17 
REMARK       I    between atoms: C_17  and  N_18 
REMARK    4  A    between atoms: N_21  and  C_22 
REMARK    5  A    between atoms: C_23  and  O_24 
ROOT
HETATM    1  C   UNL     1     -43.834  56.118 -54.185  1.00  0.00     0.051 C 
ENDROOT
BRANCH   1   2
HETATM    2  C   UNL     1     -42.797  56.452 -53.151  1.00  0.00    -0.017 A 
HETATM    3  C   UNL     1     -42.755  57.698 -52.432  1.00  0.00    -0.000 A 
HETATM    4  C   UNL     1     -43.548  58.867 -52.449  1.00  0.00     0.021 A 
HETATM    5  C   UNL     1     -41.684  57.642 -51.551  1.00  0.00     0.043 A 
HETATM    6  C   UNL     1     -43.236  59.942 -51.597  1.00  0.00    -0.061 A 
HETATM    7  C   UNL     1     -44.096  61.172 -51.584  1.00  0.00     0.048 C 
HETATM    8  C   UNL     1     -42.151  59.836 -50.721  1.00  0.00     0.009 A 
HETATM    9  C   UNL     1     -41.353  58.688 -50.684  1.00  0.00     0.031 A 
HETATM   10  N   UNL     1     -41.098  56.415 -51.721  1.00  0.00    -0.354 N 
HETATM   11  H   UNL     1     -40.296  56.087 -51.201  1.00  0.00     0.166 HD
HETATM   12  C   UNL     1     -41.743  55.670 -52.684  1.00  0.00     0.057 A 
HETATM   13  C   UNL     1     -41.288  54.340 -53.019  1.00  0.00     0.032 A 
HETATM   14  S   UNL     1     -40.251  53.463 -51.955  1.00  0.00    -0.100 SA
HETATM   15  C   UNL     1     -41.561  53.591 -54.148  1.00  0.00     0.021 A 
HETATM   16  C   UNL     1     -40.194  52.111 -52.993  1.00  0.00     0.050 A 
HETATM   17  C   UNL     1     -40.935  52.308 -54.134  1.00  0.00     0.008 A 
ENDBRANCH   1   2
BRANCH   1  18
HETATM   18  C   UNL     1     -43.380  56.498 -55.595  1.00  0.00     0.108 C 
BRANCH  18  19
HETATM   19  C   UNL     1     -44.029  57.788 -56.064  1.00  0.00     0.220 C 
HETATM   20  N   UNL     1     -43.396  58.474 -57.091  1.00  0.00    -0.349 N 
HETATM   21  C   UNL     1     -42.078  58.147 -57.648  1.00  0.00     0.145 C 
HETATM   22  C   UNL     1     -43.903  59.796 -57.476  1.00  0.00     0.145 C 
HETATM   23  C   UNL     1     -41.995  58.399 -59.169  1.00  0.00     0.143 C 
HETATM   24  N   UNL     1     -42.566  59.694 -59.597  1.00  0.00    -0.376 N 
HETATM   25  C   UNL     1     -43.897  59.988 -58.999  1.00  0.00     0.143 C 
HETATM   26  O   UNL     1     -45.076  58.194 -55.560  1.00  0.00    -0.273 OA
BRANCH  24  27
HETATM   27  C   UNL     1     -41.726  60.811 -59.721  1.00  0.00     0.063 A 
HETATM   28  C   UNL     1     -41.412  61.285 -61.012  1.00  0.00     0.092 A 
HETATM   29  C   UNL     1     -40.618  62.405 -61.235  1.00  0.00     0.039 A 
HETATM   30  C   UNL     1     -40.083  63.080 -60.144  1.00  0.00     0.003 A 
HETATM   31  C   UNL     1     -40.342  62.621 -58.853  1.00  0.00     0.002 A 
HETATM   32  C   UNL     1     -41.152  61.494 -58.645  1.00  0.00     0.032 A 
BRANCH  28  33
HETATM   33  O   UNL     1     -41.850  60.580 -62.105  1.00  0.00    -0.358 OA
HETATM   34  H   UNL     1     -41.040  60.494 -62.647  1.00  0.00     0.218 HD
ENDBRANCH  28  33
ENDBRANCH  24  27
ENDBRANCH  18  19
ENDBRANCH   1  18
TORSDOF 5
ENDMDL
MODEL 9
REMARK VINA RESULT:      -8.2      1.704      4.811
REMARK  5 active torsions:
REMARK  status: ('A' for Active; 'I' for Inactive)
REMARK    1  A    between atoms: C_14  and  C_15 
REMARK    2  A    between atoms: C_15  and  C_16 
REMARK    3  A    between atoms: C_16  and  C_17 
REMARK       I    between atoms: C_17  and  N_18 
REMARK    4  A    between atoms: N_21  and  C_22 
REMARK    5  A    between atoms: C_23  and  O_24 
ROOT
HETATM    1  C   UNL     1     -42.746  56.087 -53.898  1.00  0.00     0.051 C 
ENDROOT
BRANCH   1   2
HETATM    2  C   UNL     1     -42.007  56.478 -52.651  1.00  0.00    -0.017 A 
HETATM    3  C   UNL     1     -42.065  57.791 -52.064  1.00  0.00    -0.000 A 
HETATM    4  C   UNL     1     -42.731  58.989 -52.406  1.00  0.00     0.021 A 
HETATM    5  C   UNL     1     -41.281  57.777 -50.918  1.00  0.00     0.043 A 
HETATM    6  C   UNL     1     -42.579  60.132 -51.602  1.00  0.00    -0.061 A 
HETATM    7  C   UNL     1     -43.313  61.398 -51.939  1.00  0.00     0.048 C 
HETATM    8  C   UNL     1     -41.785  60.069 -50.453  1.00  0.00     0.009 A 
HETATM    9  C   UNL     1     -41.118  58.894 -50.092  1.00  0.00     0.031 A 
HETATM   10  N   UNL     1     -40.768  56.512 -50.807  1.00  0.00    -0.354 N 
HETATM   11  H   UNL     1     -40.165  56.202 -50.058  1.00  0.00     0.166 HD
HETATM   12  C   UNL     1     -41.183  55.700 -51.841  1.00  0.00     0.057 A 
HETATM   13  C   UNL     1     -40.758  54.321 -51.915  1.00  0.00     0.032 A 
HETATM   14  S   UNL     1     -40.120  53.514 -50.530  1.00  0.00    -0.100 SA
HETATM   15  C   UNL     1     -40.771  53.468 -53.003  1.00  0.00     0.021 A 
HETATM   16  C   UNL     1     -39.888  52.056 -51.385  1.00  0.00     0.050 A 
HETATM   17  C   UNL     1     -40.274  52.165 -52.700  1.00  0.00     0.008 A 
ENDBRANCH   1   2
BRANCH   1  18
HETATM   18  C   UNL     1     -41.890  56.267 -55.152  1.00  0.00     0.108 C 
BRANCH  18  19
HETATM   19  C   UNL     1     -42.603  55.764 -56.394  1.00  0.00     0.220 C 
HETATM   20  N   UNL     1     -42.705  56.646 -57.462  1.00  0.00    -0.349 N 
HETATM   21  C   UNL     1     -42.328  58.064 -57.434  1.00  0.00     0.145 C 
HETATM   22  C   UNL     1     -43.513  56.258 -58.624  1.00  0.00     0.145 C 
HETATM   23  C   UNL     1     -41.721  58.544 -58.770  1.00  0.00     0.143 C 
HETATM   24  N   UNL     1     -42.474  58.107 -59.966  1.00  0.00    -0.376 N 
HETATM   25  C   UNL     1     -42.843  56.665 -59.944  1.00  0.00     0.143 C 
HETATM   26  O   UNL     1     -43.057  54.621 -56.450  1.00  0.00    -0.273 OA
BRANCH  24  27
HETATM   27  C   UNL     1     -43.454  58.949 -60.511  1.00  0.00     0.063 A 
HETATM   28  C   UNL     1     -43.064  59.924 -61.453  1.00  0.00     0.092 A 
HETATM   29  C   UNL     1     -43.966  60.780 -62.076  1.00  0.00     0.039 A 
HETATM   30  C   UNL     1     -45.312  60.699 -61.741  1.00  0.00     0.003 A 
HETATM   31  C   UNL     1     -45.732  59.771 -60.788  1.00  0.00     0.002 A 
HETATM   32  C   UNL     1     -44.810  58.909 -60.176  1.00  0.00     0.032 A 
BRANCH  28  33
HETATM   33  O   UNL     1     -41.729  60.088 -61.729  1.00  0.00    -0.358 OA
HETATM   34  H   UNL     1     -41.375  59.180 -61.637  1.00  0.00     0.218 HD
ENDBRANCH  28  33
ENDBRANCH  24  27
ENDBRANCH  18  19
ENDBRANCH   1  18
TORSDOF 5
ENDMDL
MODEL 10
REMARK VINA RESULT:      -8.2      2.939      5.964
REMARK  5 active torsions:
REMARK  status: ('A' for Active; 'I' for Inactive)
REMARK    1  A    between atoms: C_14  and  C_15 
REMARK    2  A    between atoms: C_15  and  C_16 
REMARK    3  A    between atoms: C_16  and  C_17 
REMARK       I    between atoms: C_17  and  N_18 
REMARK    4  A    between atoms: N_21  and  C_22 
REMARK    5  A    between atoms: C_23  and  O_24 
ROOT
HETATM    1  C   UNL     1     -41.007  58.740 -51.603  1.00  0.00     0.051 C 
ENDROOT
BRANCH   1   2
HETATM    2  C   UNL     1     -42.418  58.306 -51.323  1.00  0.00    -0.017 A 
HETATM    3  C   UNL     1     -43.533  59.213 -51.241  1.00  0.00    -0.000 A 
HETATM    4  C   UNL     1     -43.670  60.613 -51.367  1.00  0.00     0.021 A 
HETATM    5  C   UNL     1     -44.673  58.460 -50.994  1.00  0.00     0.043 A 
HETATM    6  C   UNL     1     -44.934  61.212 -51.230  1.00  0.00    -0.061 A 
HETATM    7  C   UNL     1     -45.092  62.695 -51.400  1.00  0.00     0.048 C 
HETATM    8  C   UNL     1     -46.055  60.412 -50.990  1.00  0.00     0.009 A 
HETATM    9  C   UNL     1     -45.946  59.023 -50.863  1.00  0.00     0.031 A 
HETATM   10  N   UNL     1     -44.274  57.150 -50.932  1.00  0.00    -0.354 N 
HETATM   11  H   UNL     1     -44.895  56.369 -50.774  1.00  0.00     0.166 HD
HETATM   12  C   UNL     1     -42.915  57.021 -51.123  1.00  0.00     0.057 A 
HETATM   13  C   UNL     1     -42.285  55.721 -51.098  1.00  0.00     0.032 A 
HETATM   14  S   UNL     1     -43.215  54.280 -51.290  1.00  0.00    -0.100 SA
HETATM   15  C   UNL     1     -40.949  55.409 -50.924  1.00  0.00     0.021 A 
HETATM   16  C   UNL     1     -41.841  53.278 -51.155  1.00  0.00     0.050 A 
HETATM   17  C   UNL     1     -40.692  54.006 -50.960  1.00  0.00     0.008 A 
ENDBRANCH   1   2
BRANCH   1  18
HETATM   18  C   UNL     1     -40.578  58.407 -53.032  1.00  0.00     0.108 C 
BRANCH  18  19
HETATM   19  C   UNL     1     -41.341  59.230 -54.053  1.00  0.00     0.220 C 
HETATM   20  N   UNL     1     -42.106  58.533 -54.979  1.00  0.00    -0.349 N 
HETATM   21  C   UNL     1     -42.113  57.076 -55.153  1.00  0.00     0.145 C 
HETATM   22  C   UNL     1     -42.740  59.276 -56.074  1.00  0.00     0.145 C 
HETATM   23  C   UNL     1     -43.509  56.527 -55.517  1.00  0.00     0.143 C 
HETATM   24  N   UNL     1     -44.206  57.299 -56.568  1.00  0.00    -0.376 N 
HETATM   25  C   UNL     1     -44.163  58.771 -56.355  1.00  0.00     0.143 C 
HETATM   26  O   UNL     1     -41.289  60.460 -54.047  1.00  0.00    -0.273 OA
BRANCH  24  27
HETATM   27  C   UNL     1     -44.086  56.903 -57.909  1.00  0.00     0.063 A 
HETATM   28  C   UNL     1     -45.221  56.983 -58.744  1.00  0.00     0.092 A 
HETATM   29  C   UNL     1     -45.193  56.649 -60.093  1.00  0.00     0.039 A 
HETATM   30  C   UNL     1     -44.006  56.187 -60.649  1.00  0.00     0.003 A 
HETATM   31  C   UNL     1     -42.871  56.061 -59.847  1.00  0.00     0.002 A 
HETATM   32  C   UNL     1     -42.914  56.411 -58.489  1.00  0.00     0.032 A 
BRANCH  28  33
HETATM   33  O   UNL     1     -46.426  57.345 -58.197  1.00  0.00    -0.358 OA
HETATM   34  H   UNL     1     -46.277  58.276 -57.935  1.00  0.00     0.218 HD
ENDBRANCH  28  33
ENDBRANCH  24  27
ENDBRANCH  18  19
ENDBRANCH   1  18
TORSDOF 5
ENDMDL
