MODEL 1
REMARK VINA RESULT:      -8.6      0.000      0.000
REMARK  6 active torsions:
REMARK  status: ('A' for Active; 'I' for Inactive)
REMARK    1  A    between atoms: C_9  and  C_10 
REMARK    2  A    between atoms: C_10  and  N_11 
REMARK       I    between atoms: N_11  and  C_12 
REMARK    3  A    between atoms: N_11  and  C_22 
REMARK    4  A    between atoms: C_12  and  C_13 
REMARK    5  A    between atoms: C_15  and  O_16 
REMARK    6  A    between atoms: C_22  and  C_23 
ROOT
HETATM    1  N   UNL     1     -42.224  56.827 -52.742  1.00  0.00    -0.341 N 
HETATM    2  C   UNL     1     -41.463  57.482 -53.728  1.00  0.00     0.254 C 
HETATM    3  O   UNL     1     -40.324  57.906 -53.544  1.00  0.00    -0.267 OA
ENDROOT
BRANCH   1   4
HETATM    4  C   UNL     1     -41.518  56.541 -51.489  1.00  0.00     0.170 C 
BRANCH   4   5
HETATM    5  C   UNL     1     -41.134  55.090 -51.373  1.00  0.00     0.029 A 
HETATM    6  C   UNL     1     -40.901  54.539 -50.003  1.00  0.00     0.253 A 
HETATM    7  N   UNL     1     -40.531  53.221 -49.915  1.00  0.00    -0.322 N 
HETATM    8  O   UNL     1     -41.019  55.221 -48.987  1.00  0.00    -0.268 OA
HETATM    9  C   UNL     1     -40.298  52.403 -51.027  1.00  0.00     0.045 A 
HETATM   10  H   UNL     1     -40.388  52.864 -48.982  1.00  0.00     0.169 HD
HETATM   11  C   UNL     1     -40.477  52.928 -52.309  1.00  0.00    -0.008 A 
HETATM   12  C   UNL     1     -39.870  51.089 -50.850  1.00  0.00     0.031 A 
HETATM   13  C   UNL     1     -40.198  52.133 -53.425  1.00  0.00     0.020 A 
HETATM   14  C   UNL     1     -40.930  54.309 -52.450  1.00  0.00     0.028 A 
HETATM   15  C   UNL     1     -39.731  50.821 -53.262  1.00  0.00    -0.061 A 
HETATM   16  C   UNL     1     -39.434  49.969 -54.461  1.00  0.00     0.048 C 
HETATM   17  C   UNL     1     -39.591  50.299 -51.968  1.00  0.00     0.009 A 
ENDBRANCH   4   5
ENDBRANCH   1   4
BRANCH   1  18
HETATM   18  C   UNL     1     -43.676  57.111 -52.671  1.00  0.00     0.158 C 
BRANCH  18  19
HETATM   19  C   UNL     1     -44.106  58.415 -51.976  1.00  0.00     0.139 C 
HETATM   20  O   UNL     1     -44.604  59.362 -52.949  1.00  0.00    -0.384 OA
HETATM   21  C   UNL     1     -45.745  60.034 -52.397  1.00  0.00     0.168 C 
HETATM   22  C   UNL     1     -45.859  59.596 -50.954  1.00  0.00     0.029 C 
HETATM   23  C   UNL     1     -45.255  58.216 -50.997  1.00  0.00     0.035 C 
ENDBRANCH  18  19
ENDBRANCH   1  18
BRANCH   2  24
HETATM   24  C   UNL     1     -42.047  57.668 -55.080  1.00  0.00     0.034 A 
HETATM   25  C   UNL     1     -42.319  56.533 -55.855  1.00  0.00     0.053 A 
HETATM   26  C   UNL     1     -42.901  56.675 -57.113  1.00  0.00     0.069 A 
HETATM   27  C   UNL     1     -43.202  57.955 -57.590  1.00  0.00     0.037 A 
HETATM   28  C   UNL     1     -42.960  59.086 -56.806  1.00  0.00     0.004 A 
HETATM   29  C   UNL     1     -42.395  58.943 -55.540  1.00  0.00     0.017 A 
BRANCH  26  30
HETATM   30  O   UNL     1     -43.215  55.656 -57.971  1.00  0.00    -0.356 OA
HETATM   31  C   UNL     1     -42.917  55.869 -59.346  1.00  0.00     0.210 C 
ENDBRANCH  26  30
ENDBRANCH   2  24
TORSDOF 6
ENDMDL
MODEL 2
REMARK VINA RESULT:      -8.4      2.615      7.515
REMARK  6 active torsions:
REMARK  status: ('A' for Active; 'I' for Inactive)
REMARK    1  A    between atoms: C_9  and  C_10 
REMARK    2  A    between atoms: C_10  and  N_11 
REMARK       I    between atoms: N_11  and  C_12 
REMARK    3  A    between atoms: N_11  and  C_22 
REMARK    4  A    between atoms: C_12  and  C_13 
REMARK    5  A    between atoms: C_15  and  O_16 
REMARK    6  A    between atoms: C_22  and  C_23 
ROOT
HETATM    1  N   UNL     1     -42.274  55.872 -54.139  1.00  0.00    -0.341 N 
HETATM    2  C   UNL     1     -42.687  54.722 -53.440  1.00  0.00     0.254 C 
HETATM    3  O   UNL     1     -43.863  54.432 -53.233  1.00  0.00    -0.267 OA
ENDROOT
BRANCH   1   4
HETATM    4  C   UNL     1     -43.352  56.656 -54.751  1.00  0.00     0.170 C 
BRANCH   4   5
HETATM    5  C   UNL     1     -43.076  56.969 -56.196  1.00  0.00     0.029 A 
HETATM    6  C   UNL     1     -42.957  55.822 -57.148  1.00  0.00     0.253 A 
HETATM    7  N   UNL     1     -42.685  56.124 -58.458  1.00  0.00    -0.322 N 
HETATM    8  O   UNL     1     -43.083  54.653 -56.792  1.00  0.00    -0.268 OA
HETATM    9  C   UNL     1     -42.449  57.422 -58.924  1.00  0.00     0.045 A 
HETATM   10  H   UNL     1     -42.617  55.337 -59.087  1.00  0.00     0.169 HD
HETATM   11  C   UNL     1     -42.521  58.492 -58.029  1.00  0.00    -0.008 A 
HETATM   12  C   UNL     1     -42.123  57.635 -60.262  1.00  0.00     0.031 A 
HETATM   13  C   UNL     1     -42.237  59.786 -58.476  1.00  0.00     0.020 A 
HETATM   14  C   UNL     1     -42.869  58.225 -56.636  1.00  0.00     0.028 A 
HETATM   15  C   UNL     1     -41.872  60.011 -59.811  1.00  0.00    -0.061 A 
HETATM   16  C   UNL     1     -41.570  61.401 -60.289  1.00  0.00     0.048 C 
HETATM   17  C   UNL     1     -41.839  58.930 -60.704  1.00  0.00     0.009 A 
ENDBRANCH   4   5
ENDBRANCH   1   4
BRANCH   1  18
HETATM   18  C   UNL     1     -41.076  56.596 -53.657  1.00  0.00     0.158 C 
BRANCH  18  19
HETATM   19  C   UNL     1     -41.306  57.783 -52.706  1.00  0.00     0.139 C 
HETATM   20  O   UNL     1     -41.498  57.312 -51.352  1.00  0.00    -0.384 OA
HETATM   21  C   UNL     1     -40.817  58.197 -50.453  1.00  0.00     0.168 C 
HETATM   22  C   UNL     1     -40.313  59.362 -51.277  1.00  0.00     0.029 C 
HETATM   23  C   UNL     1     -40.111  58.723 -52.628  1.00  0.00     0.035 C 
ENDBRANCH  18  19
ENDBRANCH   1  18
BRANCH   2  24
HETATM   24  C   UNL     1     -41.656  53.786 -52.927  1.00  0.00     0.034 A 
HETATM   25  C   UNL     1     -41.005  52.940 -53.836  1.00  0.00     0.053 A 
HETATM   26  C   UNL     1     -40.007  52.076 -53.389  1.00  0.00     0.069 A 
HETATM   27  C   UNL     1     -39.670  52.062 -52.031  1.00  0.00     0.037 A 
HETATM   28  C   UNL     1     -40.296  52.926 -51.129  1.00  0.00     0.004 A 
HETATM   29  C   UNL     1     -41.281  53.802 -51.579  1.00  0.00     0.017 A 
BRANCH  26  30
HETATM   30  O   UNL     1     -39.298  51.200 -54.165  1.00  0.00    -0.356 OA
HETATM   31  C   UNL     1     -39.845  49.895 -54.310  1.00  0.00     0.210 C 
ENDBRANCH  26  30
ENDBRANCH   2  24
TORSDOF 6
ENDMDL
MODEL 3
REMARK VINA RESULT:      -8.4      1.840      2.500
REMARK  6 active torsions:
REMARK  status: ('A' for Active; 'I' for Inactive)
REMARK    1  A    between atoms: C_9  and  C_10 
REMARK    2  A    between atoms: C_10  and  N_11 
REMARK       I    between atoms: N_11  and  C_12 
REMARK    3  A    between atoms: N_11  and  C_22 
REMARK    4  A    between atoms: C_12  and  C_13 
REMARK    5  A    between atoms: C_15  and  O_16 
REMARK    6  A    between atoms: C_22  and  C_23 
ROOT
HETATM    1  N   UNL     1     -42.518  57.477 -53.661  1.00  0.00    -0.341 N 
HETATM    2  C   UNL     1     -43.050  57.372 -54.960  1.00  0.00     0.254 C 
HETATM    3  O   UNL     1     -43.895  56.541 -55.289  1.00  0.00    -0.267 OA
ENDROOT
BRANCH   1   4
HETATM    4  C   UNL     1     -43.145  56.616 -52.653  1.00  0.00     0.170 C 
BRANCH   4   5
HETATM    5  C   UNL     1     -42.302  55.411 -52.334  1.00  0.00     0.029 A 
HETATM    6  C   UNL     1     -41.672  55.341 -50.980  1.00  0.00     0.253 A 
HETATM    7  N   UNL     1     -40.889  54.246 -50.712  1.00  0.00    -0.322 N 
HETATM    8  O   UNL     1     -41.825  56.218 -50.133  1.00  0.00    -0.268 OA
HETATM    9  C   UNL     1     -40.602  53.247 -51.648  1.00  0.00     0.045 A 
HETATM   10  H   UNL     1     -40.480  54.212 -49.789  1.00  0.00     0.169 HD
HETATM   11  C   UNL     1     -41.159  53.332 -52.928  1.00  0.00    -0.008 A 
HETATM   12  C   UNL     1     -39.751  52.197 -51.311  1.00  0.00     0.031 A 
HETATM   13  C   UNL     1     -40.836  52.364 -53.885  1.00  0.00     0.020 A 
HETATM   14  C   UNL     1     -42.048  54.447 -53.239  1.00  0.00     0.028 A 
HETATM   15  C   UNL     1     -39.953  51.322 -53.571  1.00  0.00    -0.061 A 
HETATM   16  C   UNL     1     -39.611  50.285 -54.599  1.00  0.00     0.048 C 
HETATM   17  C   UNL     1     -39.432  51.234 -52.272  1.00  0.00     0.009 A 
ENDBRANCH   4   5
ENDBRANCH   1   4
BRANCH   1  18
HETATM   18  C   UNL     1     -41.077  57.783 -53.515  1.00  0.00     0.158 C 
BRANCH  18  19
HETATM   19  C   UNL     1     -40.697  58.976 -52.621  1.00  0.00     0.139 C 
HETATM   20  O   UNL     1     -41.886  59.673 -52.181  1.00  0.00    -0.384 OA
HETATM   21  C   UNL     1     -41.714  60.059 -50.810  1.00  0.00     0.168 C 
HETATM   22  C   UNL     1     -40.287  59.726 -50.434  1.00  0.00     0.029 C 
HETATM   23  C   UNL     1     -39.989  58.559 -51.340  1.00  0.00     0.035 C 
ENDBRANCH  18  19
ENDBRANCH   1  18
BRANCH   2  24
HETATM   24  C   UNL     1     -42.586  58.318 -56.005  1.00  0.00     0.034 A 
HETATM   25  C   UNL     1     -42.366  57.834 -57.301  1.00  0.00     0.053 A 
HETATM   26  C   UNL     1     -41.965  58.707 -58.310  1.00  0.00     0.069 A 
HETATM   27  C   UNL     1     -41.781  60.061 -58.013  1.00  0.00     0.037 A 
HETATM   28  C   UNL     1     -42.029  60.552 -56.728  1.00  0.00     0.004 A 
HETATM   29  C   UNL     1     -42.448  59.683 -55.723  1.00  0.00     0.017 A 
BRANCH  26  30
HETATM   30  O   UNL     1     -41.714  58.367 -59.612  1.00  0.00    -0.356 OA
HETATM   31  C   UNL     1     -42.099  57.057 -60.012  1.00  0.00     0.210 C 
ENDBRANCH  26  30
ENDBRANCH   2  24
TORSDOF 6
ENDMDL
MODEL 4
REMARK VINA RESULT:      -8.4      2.120      3.124
REMARK  6 active torsions:
REMARK  status: ('A' for Active; 'I' for Inactive)
REMARK    1  A    between atoms: C_9  and  C_10 
REMARK    2  A    between atoms: C_10  and  N_11 
REMARK       I    between atoms: N_11  and  C_12 
REMARK    3  A    between atoms: N_11  and  C_22 
REMARK    4  A    between atoms: C_12  and  C_13 
REMARK    5  A    between atoms: C_15  and  O_16 
REMARK    6  A    between atoms: C_22  and  C_23 
ROOT
HETATM    1  N   UNL     1     -42.971  56.504 -55.676  1.00  0.00    -0.341 N 
HETATM    2  C   UNL     1     -42.830  57.099 -56.944  1.00  0.00     0.254 C 
HETATM    3  O   UNL     1     -41.994  57.961 -57.207  1.00  0.00    -0.267 OA
ENDROOT
BRANCH   1   4
HETATM    4  C   UNL     1     -41.948  56.872 -54.692  1.00  0.00     0.170 C 
BRANCH   4   5
HETATM    5  C   UNL     1     -41.471  55.687 -53.898  1.00  0.00     0.029 A 
HETATM    6  C   UNL     1     -41.252  55.873 -52.430  1.00  0.00     0.253 A 
HETATM    7  N   UNL     1     -40.797  54.789 -51.724  1.00  0.00    -0.322 N 
HETATM    8  O   UNL     1     -41.453  56.945 -51.863  1.00  0.00    -0.268 OA
HETATM    9  C   UNL     1     -40.469  53.561 -52.311  1.00  0.00     0.045 A 
HETATM   10  H   UNL     1     -40.664  54.932 -50.734  1.00  0.00     0.169 HD
HETATM   11  C   UNL     1     -40.635  53.397 -53.689  1.00  0.00    -0.008 A 
HETATM   12  C   UNL     1     -39.959  52.527 -51.529  1.00  0.00     0.031 A 
HETATM   13  C   UNL     1     -40.262  52.191 -54.289  1.00  0.00     0.020 A 
HETATM   14  C   UNL     1     -41.176  54.506 -54.471  1.00  0.00     0.028 A 
HETATM   15  C   UNL     1     -39.714  51.155 -53.520  1.00  0.00    -0.061 A 
HETATM   16  C   UNL     1     -39.317  49.861 -54.168  1.00  0.00     0.048 C 
HETATM   17  C   UNL     1     -39.587  51.324 -52.135  1.00  0.00     0.009 A 
ENDBRANCH   4   5
ENDBRANCH   1   4
BRANCH   1  18
HETATM   18  C   UNL     1     -44.337  56.216 -55.183  1.00  0.00     0.158 C 
BRANCH  18  19
HETATM   19  C   UNL     1     -45.056  57.332 -54.406  1.00  0.00     0.139 C 
HETATM   20  O   UNL     1     -44.592  57.370 -53.037  1.00  0.00    -0.384 OA
HETATM   21  C   UNL     1     -44.462  58.739 -52.631  1.00  0.00     0.168 C 
HETATM   22  C   UNL     1     -45.025  59.587 -53.750  1.00  0.00     0.029 C 
HETATM   23  C   UNL     1     -44.767  58.721 -54.957  1.00  0.00     0.035 C 
ENDBRANCH  18  19
ENDBRANCH   1  18
BRANCH   2  24
HETATM   24  C   UNL     1     -43.724  56.661 -58.045  1.00  0.00     0.034 A 
HETATM   25  C   UNL     1     -44.742  57.526 -58.467  1.00  0.00     0.053 A 
HETATM   26  C   UNL     1     -45.574  57.157 -59.523  1.00  0.00     0.069 A 
HETATM   27  C   UNL     1     -45.383  55.919 -60.146  1.00  0.00     0.037 A 
HETATM   28  C   UNL     1     -44.349  55.069 -59.747  1.00  0.00     0.004 A 
HETATM   29  C   UNL     1     -43.506  55.445 -58.704  1.00  0.00     0.017 A 
BRANCH  26  30
HETATM   30  O   UNL     1     -46.604  57.901 -60.031  1.00  0.00    -0.356 OA
HETATM   31  C   UNL     1     -47.422  57.269 -61.009  1.00  0.00     0.210 C 
ENDBRANCH  26  30
ENDBRANCH   2  24
TORSDOF 6
ENDMDL
MODEL 5
REMARK VINA RESULT:      -8.4      2.085      3.393
REMARK  6 active torsions:
REMARK  status: ('A' for Active; 'I' for Inactive)
REMARK    1  A    between atoms: C_9  and  C_10 
REMARK    2  A    between atoms: C_10  and  N_11 
REMARK       I    between atoms: N_11  and  C_12 
REMARK    3  A    between atoms: N_11  and  C_22 
REMARK    4  A    between atoms: C_12  and  C_13 
REMARK    5  A    between atoms: C_15  and  O_16 
REMARK    6  A    between atoms: C_22  and  C_23 
ROOT
HETATM    1  N   UNL     1     -41.409  56.592 -50.938  1.00  0.00    -0.341 N 
HETATM    2  C   UNL     1     -40.975  57.881 -51.300  1.00  0.00     0.254 C 
HETATM    3  O   UNL     1     -40.052  58.474 -50.744  1.00  0.00    -0.267 OA
ENDROOT
BRANCH   1   4
HETATM    4  C   UNL     1     -40.591  55.913 -49.929  1.00  0.00     0.170 C 
BRANCH   4   5
HETATM    5  C   UNL     1     -40.498  54.432 -50.176  1.00  0.00     0.029 A 
HETATM    6  C   UNL     1     -40.571  53.522 -48.992  1.00  0.00     0.253 A 
HETATM    7  N   UNL     1     -40.464  52.175 -49.232  1.00  0.00    -0.322 N 
HETATM    8  O   UNL     1     -40.710  53.940 -47.845  1.00  0.00    -0.268 OA
HETATM    9  C   UNL     1     -40.224  51.628 -50.497  1.00  0.00     0.045 A 
HETATM   10  H   UNL     1     -40.525  51.577 -48.421  1.00  0.00     0.169 HD
HETATM   11  C   UNL     1     -40.115  52.480 -51.600  1.00  0.00    -0.008 A 
HETATM   12  C   UNL     1     -40.072  50.251 -50.646  1.00  0.00     0.031 A 
HETATM   13  C   UNL     1     -39.826  51.944 -52.859  1.00  0.00     0.020 A 
HETATM   14  C   UNL     1     -40.285  53.917 -51.401  1.00  0.00     0.028 A 
HETATM   15  C   UNL     1     -39.634  50.565 -53.016  1.00  0.00    -0.061 A 
HETATM   16  C   UNL     1     -39.326  49.993 -54.369  1.00  0.00     0.048 C 
HETATM   17  C   UNL     1     -39.781  49.722 -51.906  1.00  0.00     0.009 A 
ENDBRANCH   4   5
ENDBRANCH   1   4
BRANCH   1  18
HETATM   18  C   UNL     1     -42.863  56.309 -50.960  1.00  0.00     0.158 C 
BRANCH  18  19
HETATM   19  C   UNL     1     -43.425  55.604 -52.206  1.00  0.00     0.139 C 
HETATM   20  O   UNL     1     -44.324  56.485 -52.919  1.00  0.00    -0.384 OA
HETATM   21  C   UNL     1     -44.110  56.322 -54.328  1.00  0.00     0.168 C 
HETATM   22  C   UNL     1     -43.145  55.169 -54.497  1.00  0.00     0.029 C 
HETATM   23  C   UNL     1     -42.349  55.237 -53.218  1.00  0.00     0.035 C 
ENDBRANCH  18  19
ENDBRANCH   1  18
BRANCH   2  24
HETATM   24  C   UNL     1     -41.648  58.575 -52.426  1.00  0.00     0.034 A 
HETATM   25  C   UNL     1     -42.777  59.359 -52.153  1.00  0.00     0.053 A 
HETATM   26  C   UNL     1     -43.408  60.051 -53.185  1.00  0.00     0.069 A 
HETATM   27  C   UNL     1     -42.905  59.950 -54.487  1.00  0.00     0.037 A 
HETATM   28  C   UNL     1     -41.762  59.194 -54.756  1.00  0.00     0.004 A 
HETATM   29  C   UNL     1     -41.120  58.516 -53.721  1.00  0.00     0.017 A 
BRANCH  26  30
HETATM   30  O   UNL     1     -44.515  60.846 -53.059  1.00  0.00    -0.356 OA
HETATM   31  C   UNL     1     -45.710  60.206 -52.627  1.00  0.00     0.210 C 
ENDBRANCH  26  30
ENDBRANCH   2  24
TORSDOF 6
ENDMDL
MODEL 6
REMARK VINA RESULT:      -8.1     15.322     17.291
REMARK  6 active torsions:
REMARK  status: ('A' for Active; 'I' for Inactive)
REMARK    1  A    between atoms: C_9  and  C_10 
REMARK    2  A    between atoms: C_10  and  N_11 
REMARK       I    between atoms: N_11  and  C_12 
REMARK    3  A    between atoms: N_11  and  C_22 
REMARK    4  A    between atoms: C_12  and  C_13 
REMARK    5  A    between atoms: C_15  and  O_16 
REMARK    6  A    between atoms: C_22  and  C_23 
ROOT
HETATM    1  N   UNL     1     -37.091  40.837 -54.622  1.00  0.00    -0.341 N 
HETATM    2  C   UNL     1     -38.132  41.044 -55.546  1.00  0.00     0.254 C 
HETATM    3  O   UNL     1     -39.308  41.208 -55.227  1.00  0.00    -0.267 OA
ENDROOT
BRANCH   1   4
HETATM    4  C   UNL     1     -37.467  40.971 -53.211  1.00  0.00     0.170 C 
BRANCH   4   5
HETATM    5  C   UNL     1     -36.276  40.885 -52.295  1.00  0.00     0.029 A 
HETATM    6  C   UNL     1     -35.329  42.042 -52.273  1.00  0.00     0.253 A 
HETATM    7  N   UNL     1     -34.236  41.939 -51.449  1.00  0.00    -0.322 N 
HETATM    8  O   UNL     1     -35.495  43.045 -52.962  1.00  0.00    -0.268 OA
HETATM    9  C   UNL     1     -33.935  40.798 -50.696  1.00  0.00     0.045 A 
HETATM   10  H   UNL     1     -33.614  42.733 -51.440  1.00  0.00     0.169 HD
HETATM   11  C   UNL     1     -34.798  39.700 -50.746  1.00  0.00    -0.008 A 
HETATM   12  C   UNL     1     -32.774  40.755 -49.927  1.00  0.00     0.031 A 
HETATM   13  C   UNL     1     -34.478  38.538 -50.037  1.00  0.00     0.020 A 
HETATM   14  C   UNL     1     -36.007  39.788 -51.562  1.00  0.00     0.028 A 
HETATM   15  C   UNL     1     -33.295  38.468 -49.288  1.00  0.00    -0.061 A 
HETATM   16  C   UNL     1     -32.955  37.220 -48.526  1.00  0.00     0.048 C 
HETATM   17  C   UNL     1     -32.459  39.591 -49.221  1.00  0.00     0.009 A 
ENDBRANCH   4   5
ENDBRANCH   1   4
BRANCH   1  18
HETATM   18  C   UNL     1     -36.027  39.866 -54.968  1.00  0.00     0.158 C 
BRANCH  18  19
HETATM   19  C   UNL     1     -34.661  40.437 -55.385  1.00  0.00     0.139 C 
HETATM   20  O   UNL     1     -33.626  39.967 -54.490  1.00  0.00    -0.384 OA
HETATM   21  C   UNL     1     -32.453  39.665 -55.258  1.00  0.00     0.168 C 
HETATM   22  C   UNL     1     -32.724  40.122 -56.675  1.00  0.00     0.029 C 
HETATM   23  C   UNL     1     -34.221  39.979 -56.768  1.00  0.00     0.035 C 
ENDBRANCH  18  19
ENDBRANCH   1  18
BRANCH   2  24
HETATM   24  C   UNL     1     -37.808  41.086 -56.994  1.00  0.00     0.034 A 
HETATM   25  C   UNL     1     -38.192  40.006 -57.799  1.00  0.00     0.053 A 
HETATM   26  C   UNL     1     -37.934  40.034 -59.168  1.00  0.00     0.069 A 
HETATM   27  C   UNL     1     -37.286  41.143 -59.721  1.00  0.00     0.037 A 
HETATM   28  C   UNL     1     -36.929  42.235 -58.925  1.00  0.00     0.004 A 
HETATM   29  C   UNL     1     -37.204  42.215 -57.560  1.00  0.00     0.017 A 
BRANCH  26  30
HETATM   30  O   UNL     1     -38.251  39.050 -60.065  1.00  0.00    -0.356 OA
HETATM   31  C   UNL     1     -39.303  38.167 -59.693  1.00  0.00     0.210 C 
ENDBRANCH  26  30
ENDBRANCH   2  24
TORSDOF 6
ENDMDL
MODEL 7
REMARK VINA RESULT:      -8.0      1.860      2.329
REMARK  6 active torsions:
REMARK  status: ('A' for Active; 'I' for Inactive)
REMARK    1  A    between atoms: C_9  and  C_10 
REMARK    2  A    between atoms: C_10  and  N_11 
REMARK       I    between atoms: N_11  and  C_12 
REMARK    3  A    between atoms: N_11  and  C_22 
REMARK    4  A    between atoms: C_12  and  C_13 
REMARK    5  A    between atoms: C_15  and  O_16 
REMARK    6  A    between atoms: C_22  and  C_23 
ROOT
HETATM    1  N   UNL     1     -43.107  57.598 -54.742  1.00  0.00    -0.341 N 
HETATM    2  C   UNL     1     -43.115  58.242 -55.994  1.00  0.00     0.254 C 
HETATM    3  O   UNL     1     -42.186  58.926 -56.418  1.00  0.00    -0.267 OA
ENDROOT
BRANCH   1   4
HETATM    4  C   UNL     1     -41.841  57.670 -54.006  1.00  0.00     0.170 C 
BRANCH   4   5
HETATM    5  C   UNL     1     -41.476  56.354 -53.375  1.00  0.00     0.029 A 
HETATM    6  C   UNL     1     -41.327  56.312 -51.887  1.00  0.00     0.253 A 
HETATM    7  N   UNL     1     -40.973  55.110 -51.329  1.00  0.00    -0.322 N 
HETATM    8  O   UNL     1     -41.497  57.302 -51.178  1.00  0.00    -0.268 OA
HETATM    9  C   UNL     1     -40.684  53.962 -52.074  1.00  0.00     0.045 A 
HETATM   10  H   UNL     1     -40.886  55.100 -50.323  1.00  0.00     0.169 HD
HETATM   11  C   UNL     1     -40.784  54.010 -53.467  1.00  0.00    -0.008 A 
HETATM   12  C   UNL     1     -40.277  52.795 -51.431  1.00  0.00     0.031 A 
HETATM   13  C   UNL     1     -40.448  52.881 -54.222  1.00  0.00     0.020 A 
HETATM   14  C   UNL     1     -41.218  55.251 -54.102  1.00  0.00     0.028 A 
HETATM   15  C   UNL     1     -40.003  51.712 -53.590  1.00  0.00    -0.061 A 
HETATM   16  C   UNL     1     -39.644  50.502 -54.402  1.00  0.00     0.048 C 
HETATM   17  C   UNL     1     -39.941  51.671 -52.190  1.00  0.00     0.009 A 
ENDBRANCH   4   5
ENDBRANCH   1   4
BRANCH   1  18
HETATM   18  C   UNL     1     -44.364  57.568 -53.960  1.00  0.00     0.158 C 
BRANCH  18  19
HETATM   19  C   UNL     1     -44.456  58.497 -52.737  1.00  0.00     0.139 C 
HETATM   20  O   UNL     1     -45.338  59.609 -53.016  1.00  0.00    -0.384 OA
HETATM   21  C   UNL     1     -46.126  59.878 -51.849  1.00  0.00     0.168 C 
HETATM   22  C   UNL     1     -45.593  58.994 -50.743  1.00  0.00     0.029 C 
HETATM   23  C   UNL     1     -45.058  57.815 -51.516  1.00  0.00     0.035 C 
ENDBRANCH  18  19
ENDBRANCH   1  18
BRANCH   2  24
HETATM   24  C   UNL     1     -44.299  58.084 -56.875  1.00  0.00     0.034 A 
HETATM   25  C   UNL     1     -44.170  57.323 -58.044  1.00  0.00     0.053 A 
HETATM   26  C   UNL     1     -45.274  57.128 -58.871  1.00  0.00     0.069 A 
HETATM   27  C   UNL     1     -46.502  57.702 -58.523  1.00  0.00     0.037 A 
HETATM   28  C   UNL     1     -46.641  58.435 -57.342  1.00  0.00     0.004 A 
HETATM   29  C   UNL     1     -45.541  58.615 -56.506  1.00  0.00     0.017 A 
BRANCH  26  30
HETATM   30  O   UNL     1     -45.286  56.413 -60.038  1.00  0.00    -0.356 OA
HETATM   31  C   UNL     1     -44.965  55.031 -59.939  1.00  0.00     0.210 C 
ENDBRANCH  26  30
ENDBRANCH   2  24
TORSDOF 6
ENDMDL
MODEL 8
REMARK VINA RESULT:      -7.9      2.367      5.233
REMARK  6 active torsions:
REMARK  status: ('A' for Active; 'I' for Inactive)
REMARK    1  A    between atoms: C_9  and  C_10 
REMARK    2  A    between atoms: C_10  and  N_11 
REMARK       I    between atoms: N_11  and  C_12 
REMARK    3  A    between atoms: N_11  and  C_22 
REMARK    4  A    between atoms: C_12  and  C_13 
REMARK    5  A    between atoms: C_15  and  O_16 
REMARK    6  A    between atoms: C_22  and  C_23 
ROOT
HETATM    1  N   UNL     1     -42.873  57.941 -53.958  1.00  0.00    -0.341 N 
HETATM    2  C   UNL     1     -44.274  57.854 -53.851  1.00  0.00     0.254 C 
HETATM    3  O   UNL     1     -44.954  57.016 -54.440  1.00  0.00    -0.267 OA
ENDROOT
BRANCH   1   4
HETATM    4  C   UNL     1     -42.232  56.863 -54.717  1.00  0.00     0.170 C 
BRANCH   4   5
HETATM    5  C   UNL     1     -41.672  55.792 -53.821  1.00  0.00     0.029 A 
HETATM    6  C   UNL     1     -41.324  54.477 -54.440  1.00  0.00     0.253 A 
HETATM    7  N   UNL     1     -40.835  53.504 -53.605  1.00  0.00    -0.322 N 
HETATM    8  O   UNL     1     -41.472  54.251 -55.639  1.00  0.00    -0.268 OA
HETATM    9  C   UNL     1     -40.714  53.657 -52.220  1.00  0.00     0.045 A 
HETATM   10  H   UNL     1     -40.597  52.626 -54.044  1.00  0.00     0.169 HD
HETATM   11  C   UNL     1     -41.077  54.872 -51.634  1.00  0.00    -0.008 A 
HETATM   12  C   UNL     1     -40.260  52.598 -51.436  1.00  0.00     0.031 A 
HETATM   13  C   UNL     1     -41.007  55.016 -50.244  1.00  0.00     0.020 A 
HETATM   14  C   UNL     1     -41.544  55.958 -52.491  1.00  0.00     0.028 A 
HETATM   15  C   UNL     1     -40.586  53.947 -49.441  1.00  0.00    -0.061 A 
HETATM   16  C   UNL     1     -40.510  54.105 -47.950  1.00  0.00     0.048 C 
HETATM   17  C   UNL     1     -40.194  52.746 -50.049  1.00  0.00     0.009 A 
ENDBRANCH   4   5
ENDBRANCH   1   4
BRANCH   1  18
HETATM   18  C   UNL     1     -42.255  59.286 -54.003  1.00  0.00     0.158 C 
BRANCH  18  19
HETATM   19  C   UNL     1     -41.374  59.698 -52.810  1.00  0.00     0.139 C 
HETATM   20  O   UNL     1     -42.034  59.375 -51.564  1.00  0.00    -0.384 OA
HETATM   21  C   UNL     1     -41.059  58.869 -50.642  1.00  0.00     0.168 C 
HETATM   22  C   UNL     1     -39.705  59.038 -51.296  1.00  0.00     0.029 C 
HETATM   23  C   UNL     1     -40.051  58.946 -52.760  1.00  0.00     0.035 C 
ENDBRANCH  18  19
ENDBRANCH   1  18
BRANCH   2  24
HETATM   24  C   UNL     1     -44.987  58.811 -52.969  1.00  0.00     0.034 A 
HETATM   25  C   UNL     1     -45.088  58.517 -51.602  1.00  0.00     0.053 A 
HETATM   26  C   UNL     1     -45.721  59.414 -50.744  1.00  0.00     0.069 A 
HETATM   27  C   UNL     1     -46.253  60.599 -51.261  1.00  0.00     0.037 A 
HETATM   28  C   UNL     1     -46.127  60.908 -52.618  1.00  0.00     0.004 A 
HETATM   29  C   UNL     1     -45.478  60.020 -53.473  1.00  0.00     0.017 A 
BRANCH  26  30
HETATM   30  O   UNL     1     -45.891  59.250 -49.396  1.00  0.00    -0.356 OA
HETATM   31  C   UNL     1     -45.639  60.390 -48.581  1.00  0.00     0.210 C 
ENDBRANCH  26  30
ENDBRANCH   2  24
TORSDOF 6
ENDMDL
MODEL 9
REMARK VINA RESULT:      -7.7     15.645     18.742
REMARK  6 active torsions:
REMARK  status: ('A' for Active; 'I' for Inactive)
REMARK    1  A    between atoms: C_9  and  C_10 
REMARK    2  A    between atoms: C_10  and  N_11 
REMARK       I    between atoms: N_11  and  C_12 
REMARK    3  A    between atoms: N_11  and  C_22 
REMARK    4  A    between atoms: C_12  and  C_13 
REMARK    5  A    between atoms: C_15  and  O_16 
REMARK    6  A    between atoms: C_22  and  C_23 
ROOT
HETATM    1  N   UNL     1     -35.475  40.688 -53.117  1.00  0.00    -0.341 N 
HETATM    2  C   UNL     1     -35.507  40.400 -51.740  1.00  0.00     0.254 C 
HETATM    3  O   UNL     1     -36.446  40.690 -51.002  1.00  0.00    -0.267 OA
ENDROOT
BRANCH   1   4
HETATM    4  C   UNL     1     -36.715  41.241 -53.673  1.00  0.00     0.170 C 
BRANCH   4   5
HETATM    5  C   UNL     1     -36.892  40.890 -55.126  1.00  0.00     0.029 A 
HETATM    6  C   UNL     1     -36.804  39.448 -55.510  1.00  0.00     0.253 A 
HETATM    7  N   UNL     1     -36.946  39.148 -56.841  1.00  0.00    -0.322 N 
HETATM    8  O   UNL     1     -36.602  38.556 -54.689  1.00  0.00    -0.268 OA
HETATM    9  C   UNL     1     -37.097  40.112 -57.844  1.00  0.00     0.045 A 
HETATM   10  H   UNL     1     -36.893  38.168 -57.080  1.00  0.00     0.169 HD
HETATM   11  C   UNL     1     -37.139  41.463 -57.491  1.00  0.00    -0.008 A 
HETATM   12  C   UNL     1     -37.178  39.723 -59.180  1.00  0.00     0.031 A 
HETATM   13  C   UNL     1     -37.240  42.434 -58.492  1.00  0.00     0.020 A 
HETATM   14  C   UNL     1     -37.054  41.827 -56.079  1.00  0.00     0.028 A 
HETATM   15  C   UNL     1     -37.286  42.060 -59.842  1.00  0.00    -0.061 A 
HETATM   16  C   UNL     1     -37.395  43.105 -60.913  1.00  0.00     0.048 C 
HETATM   17  C   UNL     1     -37.277  40.699 -60.176  1.00  0.00     0.009 A 
ENDBRANCH   4   5
ENDBRANCH   1   4
BRANCH   1  18
HETATM   18  C   UNL     1     -34.192  41.123 -53.714  1.00  0.00     0.158 C 
BRANCH  18  19
HETATM   19  C   UNL     1     -33.392  40.074 -54.506  1.00  0.00     0.139 C 
HETATM   20  O   UNL     1     -33.282  40.468 -55.894  1.00  0.00    -0.384 OA
HETATM   21  C   UNL     1     -31.961  40.159 -56.359  1.00  0.00     0.168 C 
HETATM   22  C   UNL     1     -31.273  39.390 -55.253  1.00  0.00     0.029 C 
HETATM   23  C   UNL     1     -31.955  39.934 -54.023  1.00  0.00     0.035 C 
ENDBRANCH  18  19
ENDBRANCH   1  18
BRANCH   2  24
HETATM   24  C   UNL     1     -34.355  39.692 -51.128  1.00  0.00     0.034 A 
HETATM   25  C   UNL     1     -33.552  40.383 -50.211  1.00  0.00     0.053 A 
HETATM   26  C   UNL     1     -32.485  39.732 -49.594  1.00  0.00     0.069 A 
HETATM   27  C   UNL     1     -32.227  38.393 -49.904  1.00  0.00     0.037 A 
HETATM   28  C   UNL     1     -33.045  37.693 -50.794  1.00  0.00     0.004 A 
HETATM   29  C   UNL     1     -34.122  38.338 -51.398  1.00  0.00     0.017 A 
BRANCH  26  30
HETATM   30  O   UNL     1     -31.624  40.287 -48.687  1.00  0.00    -0.356 OA
HETATM   31  C   UNL     1     -31.202  39.449 -47.617  1.00  0.00     0.210 C 
ENDBRANCH  26  30
ENDBRANCH   2  24
TORSDOF 6
ENDMDL
MODEL 10
REMARK VINA RESULT:      -7.6      1.857      2.648
REMARK  6 active torsions:
REMARK  status: ('A' for Active; 'I' for Inactive)
REMARK    1  A    between atoms: C_9  and  C_10 
REMARK    2  A    between atoms: C_10  and  N_11 
REMARK       I    between atoms: N_11  and  C_12 
REMARK    3  A    between atoms: N_11  and  C_22 
REMARK    4  A    between atoms: C_12  and  C_13 
REMARK    5  A    between atoms: C_15  and  O_16 
REMARK    6  A    between atoms: C_22  and  C_23 
ROOT
HETATM    1  N   UNL     1     -43.564  57.115 -54.874  1.00  0.00    -0.341 N 
HETATM    2  C   UNL     1     -42.476  57.729 -55.523  1.00  0.00     0.254 C 
HETATM    3  O   UNL     1     -41.545  58.272 -54.931  1.00  0.00    -0.267 OA
ENDROOT
BRANCH   1   4
HETATM    4  C   UNL     1     -43.460  57.029 -53.414  1.00  0.00     0.170 C 
BRANCH   4   5
HETATM    5  C   UNL     1     -42.580  55.890 -52.974  1.00  0.00     0.029 A 
HETATM    6  C   UNL     1     -41.839  56.040 -51.684  1.00  0.00     0.253 A 
HETATM    7  N   UNL     1     -41.024  55.002 -51.308  1.00  0.00    -0.322 N 
HETATM    8  O   UNL     1     -41.931  57.044 -50.982  1.00  0.00    -0.268 OA
HETATM    9  C   UNL     1     -40.804  53.863 -52.091  1.00  0.00     0.045 A 
HETATM   10  H   UNL     1     -40.540  55.118 -50.430  1.00  0.00     0.169 HD
HETATM   11  C   UNL     1     -41.466  53.740 -53.316  1.00  0.00    -0.008 A 
HETATM   12  C   UNL     1     -39.917  52.880 -51.660  1.00  0.00     0.031 A 
HETATM   13  C   UNL     1     -41.212  52.629 -54.127  1.00  0.00     0.020 A 
HETATM   14  C   UNL     1     -42.391  54.792 -53.729  1.00  0.00     0.028 A 
HETATM   15  C   UNL     1     -40.295  51.649 -53.722  1.00  0.00    -0.061 A 
HETATM   16  C   UNL     1     -40.027  50.457 -54.594  1.00  0.00     0.048 C 
HETATM   17  C   UNL     1     -39.667  51.772 -52.475  1.00  0.00     0.009 A 
ENDBRANCH   4   5
ENDBRANCH   1   4
BRANCH   1  18
HETATM   18  C   UNL     1     -44.913  57.271 -55.466  1.00  0.00     0.158 C 
BRANCH  18  19
HETATM   19  C   UNL     1     -45.520  58.685 -55.472  1.00  0.00     0.139 C 
HETATM   20  O   UNL     1     -44.606  59.627 -54.865  1.00  0.00    -0.384 OA
HETATM   21  C   UNL     1     -44.635  60.849 -55.615  1.00  0.00     0.168 C 
HETATM   22  C   UNL     1     -45.739  60.711 -56.641  1.00  0.00     0.029 C 
HETATM   23  C   UNL     1     -45.762  59.222 -56.876  1.00  0.00     0.035 C 
ENDBRANCH  18  19
ENDBRANCH   1  18
BRANCH   2  24
HETATM   24  C   UNL     1     -42.424  57.716 -57.006  1.00  0.00     0.034 A 
HETATM   25  C   UNL     1     -42.737  56.527 -57.678  1.00  0.00     0.053 A 
HETATM   26  C   UNL     1     -42.732  56.494 -59.071  1.00  0.00     0.069 A 
HETATM   27  C   UNL     1     -42.408  57.654 -59.783  1.00  0.00     0.037 A 
HETATM   28  C   UNL     1     -42.126  58.848 -59.115  1.00  0.00     0.004 A 
HETATM   29  C   UNL     1     -42.148  58.886 -57.723  1.00  0.00     0.017 A 
BRANCH  26  30
HETATM   30  O   UNL     1     -43.014  55.405 -59.849  1.00  0.00    -0.356 OA
HETATM   31  C   UNL     1     -44.383  55.030 -59.945  1.00  0.00     0.210 C 
ENDBRANCH  26  30
ENDBRANCH   2  24
TORSDOF 6
ENDMDL
