MODEL 1
REMARK VINA RESULT:      -7.5      0.000      0.000
REMARK  10 active torsions:
REMARK  status: ('A' for Active; 'I' for Inactive)
REMARK       I    between atoms: C_2  and  N_3 
REMARK    1  A    between atoms: N_3  and  C_4 
REMARK    2  A    between atoms: C_4  and  C_5 
REMARK    3  A    between atoms: C_5  and  N_6 
REMARK       I    between atoms: N_6  and  C_7 
REMARK    4  A    between atoms: C_7  and  C_8 
REMARK    5  A    between atoms: C_8  and  C_9 
REMARK    6  A    between atoms: C_9  and  C_10 
REMARK    7  A    between atoms: C_10  and  C_11 
REMARK    8  A    between atoms: C_11  and  C_12 
REMARK    9  A    between atoms: C_12  and  N_13 
REMARK   10  A    between atoms: N_13  and  C_14 
ROOT
HETATM    1  C   UNL     1     -43.676  55.365 -54.263  1.00  0.00     0.020 C 
ENDROOT
BRANCH   1   2
HETATM    2  C   UNL     1     -43.096  54.497 -55.386  1.00  0.00     0.002 C 
BRANCH   2   3
HETATM    3  C   UNL     1     -43.014  55.225 -56.728  1.00  0.00     0.009 C 
BRANCH   3   4
HETATM    4  C   UNL     1     -42.533  56.664 -56.564  1.00  0.00     0.103 C 
BRANCH   4   5
HETATM    5  C   UNL     1     -43.346  57.596 -57.435  1.00  0.00     0.217 C 
HETATM    6  N   UNL     1     -44.706  57.441 -57.310  1.00  0.00    -0.360 N 
HETATM    7  H   UNL     1     -45.078  56.684 -56.752  1.00  0.00     0.162 HD
HETATM    8  O   UNL     1     -42.825  58.392 -58.210  1.00  0.00    -0.274 OA
BRANCH   6   9
HETATM    9  C   UNL     1     -45.637  58.170 -58.156  1.00  0.00     0.142 C 
BRANCH   9  10
HETATM   10  C   UNL     1     -45.964  57.418 -59.453  1.00  0.00     0.142 C 
BRANCH  10  11
HETATM   11  N   UNL     1     -45.791  55.976 -59.345  1.00  0.00    -0.360 N 
HETATM   12  C   UNL     1     -44.805  55.314 -60.035  1.00  0.00     0.213 C 
HETATM   13  C   UNL     1     -44.710  53.843 -59.726  1.00  0.00     0.117 C 
HETATM   14  O   UNL     1     -44.056  55.858 -60.839  1.00  0.00    -0.274 OA
HETATM   15  H   UNL     1     -46.311  55.495 -58.622  1.00  0.00     0.162 HD
ENDBRANCH  10  11
ENDBRANCH   9  10
ENDBRANCH   6   9
ENDBRANCH   4   5
ENDBRANCH   3   4
ENDBRANCH   2   3
ENDBRANCH   1   2
BRANCH   1  16
HETATM   16  C   UNL     1     -42.652  55.732 -53.190  1.00  0.00     0.121 C 
BRANCH  16  17
HETATM   17  N   UNL     1     -41.424  54.973 -53.386  1.00  0.00    -0.374 N 
HETATM   18  H   UNL     1     -40.711  55.475 -53.900  1.00  0.00     0.161 HD
BRANCH  17  19
HETATM   19  C   UNL     1     -40.975  54.097 -52.412  1.00  0.00     0.139 A 
HETATM   20  N   UNL     1     -40.942  54.487 -51.169  1.00  0.00    -0.202 NA
HETATM   21  C   UNL     1     -40.469  53.676 -50.173  1.00  0.00     0.200 A 
HETATM   22  S   UNL     1     -40.420  54.135 -48.559  1.00  0.00    -0.039 SA
HETATM   23  N   UNL     1     -39.988  52.433 -50.486  1.00  0.00    -0.331 N 
HETATM   24  C   UNL     1     -40.007  51.936 -51.785  1.00  0.00     0.048 A 
HETATM   25  H   UNL     1     -39.642  51.873 -49.720  1.00  0.00     0.168 HD
HETATM   26  C   UNL     1     -40.521  52.732 -52.806  1.00  0.00     0.036 A 
HETATM   27  C   UNL     1     -39.533  50.652 -52.052  1.00  0.00     0.030 A 
HETATM   28  C   UNL     1     -40.594  52.230 -54.108  1.00  0.00     0.017 A 
HETATM   29  C   UNL     1     -40.122  50.943 -54.380  1.00  0.00     0.001 A 
HETATM   30  C   UNL     1     -39.587  50.159 -53.356  1.00  0.00     0.002 A 
ENDBRANCH  17  19
ENDBRANCH  16  17
ENDBRANCH   1  16
TORSDOF 10
ENDMDL
MODEL 2
REMARK VINA RESULT:      -7.2      2.837      4.802
REMARK  10 active torsions:
REMARK  status: ('A' for Active; 'I' for Inactive)
REMARK       I    between atoms: C_2  and  N_3 
REMARK    1  A    between atoms: N_3  and  C_4 
REMARK    2  A    between atoms: C_4  and  C_5 
REMARK    3  A    between atoms: C_5  and  N_6 
REMARK       I    between atoms: N_6  and  C_7 
REMARK    4  A    between atoms: C_7  and  C_8 
REMARK    5  A    between atoms: C_8  and  C_9 
REMARK    6  A    between atoms: C_9  and  C_10 
REMARK    7  A    between atoms: C_10  and  C_11 
REMARK    8  A    between atoms: C_11  and  C_12 
REMARK    9  A    between atoms: C_12  and  N_13 
REMARK   10  A    between atoms: N_13  and  C_14 
ROOT
HETATM    1  C   UNL     1     -42.731  54.649 -55.764  1.00  0.00     0.020 C 
ENDROOT
BRANCH   1   2
HETATM    2  C   UNL     1     -43.077  55.729 -56.795  1.00  0.00     0.002 C 
BRANCH   2   3
HETATM    3  C   UNL     1     -42.972  57.149 -56.237  1.00  0.00     0.009 C 
BRANCH   3   4
HETATM    4  C   UNL     1     -44.299  57.626 -55.650  1.00  0.00     0.103 C 
BRANCH   4   5
HETATM    5  C   UNL     1     -44.128  57.997 -54.193  1.00  0.00     0.217 C 
HETATM    6  N   UNL     1     -44.534  57.023 -53.312  1.00  0.00    -0.360 N 
HETATM    7  H   UNL     1     -44.997  56.194 -53.657  1.00  0.00     0.162 HD
HETATM    8  O   UNL     1     -43.699  59.091 -53.840  1.00  0.00    -0.274 OA
BRANCH   6   9
HETATM    9  C   UNL     1     -44.552  57.255 -51.876  1.00  0.00     0.142 C 
BRANCH   9  10
HETATM   10  C   UNL     1     -43.332  56.648 -51.169  1.00  0.00     0.142 C 
BRANCH  10  11
HETATM   11  N   UNL     1     -42.444  57.646 -50.589  1.00  0.00    -0.360 N 
HETATM   12  C   UNL     1     -41.313  58.071 -51.242  1.00  0.00     0.213 C 
HETATM   13  C   UNL     1     -40.569  59.178 -50.542  1.00  0.00     0.117 C 
HETATM   14  O   UNL     1     -40.927  57.601 -52.307  1.00  0.00    -0.274 OA
HETATM   15  H   UNL     1     -42.767  58.140 -49.767  1.00  0.00     0.162 HD
ENDBRANCH  10  11
ENDBRANCH   9  10
ENDBRANCH   6   9
ENDBRANCH   4   5
ENDBRANCH   3   4
ENDBRANCH   2   3
ENDBRANCH   1   2
BRANCH   1  16
HETATM   16  C   UNL     1     -41.756  55.126 -54.689  1.00  0.00     0.121 C 
BRANCH  16  17
HETATM   17  N   UNL     1     -40.686  54.153 -54.512  1.00  0.00    -0.374 N 
HETATM   18  H   UNL     1     -39.857  54.354 -55.058  1.00  0.00     0.161 HD
BRANCH  17  19
HETATM   19  C   UNL     1     -40.479  53.550 -53.283  1.00  0.00     0.139 A 
HETATM   20  N   UNL     1     -40.554  54.268 -52.199  1.00  0.00    -0.202 NA
HETATM   21  C   UNL     1     -40.318  53.731 -50.962  1.00  0.00     0.200 A 
HETATM   22  S   UNL     1     -40.416  54.618 -49.541  1.00  0.00    -0.039 SA
HETATM   23  N   UNL     1     -39.963  52.413 -50.856  1.00  0.00    -0.331 N 
HETATM   24  C   UNL     1     -39.881  51.575 -51.963  1.00  0.00     0.048 A 
HETATM   25  H   UNL     1     -39.791  52.062 -49.924  1.00  0.00     0.168 HD
HETATM   26  C   UNL     1     -40.157  52.095 -53.226  1.00  0.00     0.036 A 
HETATM   27  C   UNL     1     -39.544  50.232 -51.803  1.00  0.00     0.030 A 
HETATM   28  C   UNL     1     -40.127  51.256 -54.343  1.00  0.00     0.017 A 
HETATM   29  C   UNL     1     -39.793  49.908 -54.187  1.00  0.00     0.001 A 
HETATM   30  C   UNL     1     -39.495  49.399 -52.921  1.00  0.00     0.002 A 
ENDBRANCH  17  19
ENDBRANCH  16  17
ENDBRANCH   1  16
TORSDOF 10
ENDMDL
MODEL 3
REMARK VINA RESULT:      -7.0      1.373      2.198
REMARK  10 active torsions:
REMARK  status: ('A' for Active; 'I' for Inactive)
REMARK       I    between atoms: C_2  and  N_3 
REMARK    1  A    between atoms: N_3  and  C_4 
REMARK    2  A    between atoms: C_4  and  C_5 
REMARK    3  A    between atoms: C_5  and  N_6 
REMARK       I    between atoms: N_6  and  C_7 
REMARK    4  A    between atoms: C_7  and  C_8 
REMARK    5  A    between atoms: C_8  and  C_9 
REMARK    6  A    between atoms: C_9  and  C_10 
REMARK    7  A    between atoms: C_10  and  C_11 
REMARK    8  A    between atoms: C_11  and  C_12 
REMARK    9  A    between atoms: C_12  and  N_13 
REMARK   10  A    between atoms: N_13  and  C_14 
ROOT
HETATM    1  C   UNL     1     -41.028  56.521 -54.658  1.00  0.00     0.020 C 
ENDROOT
BRANCH   1   2
HETATM    2  C   UNL     1     -42.474  56.451 -55.161  1.00  0.00     0.002 C 
BRANCH   2   3
HETATM    3  C   UNL     1     -42.593  56.610 -56.677  1.00  0.00     0.009 C 
BRANCH   3   4
HETATM    4  C   UNL     1     -42.981  55.298 -57.355  1.00  0.00     0.103 C 
BRANCH   4   5
HETATM    5  C   UNL     1     -43.368  55.543 -58.797  1.00  0.00     0.217 C 
HETATM    6  N   UNL     1     -44.588  55.017 -59.150  1.00  0.00    -0.360 N 
HETATM    7  H   UNL     1     -45.093  54.434 -58.497  1.00  0.00     0.162 HD
HETATM    8  O   UNL     1     -42.632  56.131 -59.583  1.00  0.00    -0.274 OA
BRANCH   6   9
HETATM    9  C   UNL     1     -45.065  55.055 -60.523  1.00  0.00     0.142 C 
BRANCH   9  10
HETATM   10  C   UNL     1     -46.312  55.935 -60.687  1.00  0.00     0.142 C 
BRANCH  10  11
HETATM   11  N   UNL     1     -46.839  56.433 -59.424  1.00  0.00    -0.360 N 
HETATM   12  C   UNL     1     -46.409  57.618 -58.881  1.00  0.00     0.213 C 
HETATM   13  C   UNL     1     -47.133  58.026 -57.625  1.00  0.00     0.117 C 
HETATM   14  O   UNL     1     -45.512  58.301 -59.364  1.00  0.00    -0.274 OA
HETATM   15  H   UNL     1     -47.649  55.965 -59.038  1.00  0.00     0.162 HD
ENDBRANCH  10  11
ENDBRANCH   9  10
ENDBRANCH   6   9
ENDBRANCH   4   5
ENDBRANCH   3   4
ENDBRANCH   2   3
ENDBRANCH   1   2
BRANCH   1  16
HETATM   16  C   UNL     1     -40.263  55.208 -54.824  1.00  0.00     0.121 C 
BRANCH  16  17
HETATM   17  N   UNL     1     -41.058  54.096 -54.319  1.00  0.00    -0.374 N 
HETATM   18  H   UNL     1     -41.432  53.497 -55.044  1.00  0.00     0.161 HD
BRANCH  17  19
HETATM   19  C   UNL     1     -40.723  53.477 -53.126  1.00  0.00     0.139 A 
HETATM   20  N   UNL     1     -40.769  54.162 -52.017  1.00  0.00    -0.202 NA
HETATM   21  C   UNL     1     -40.409  53.611 -50.817  1.00  0.00     0.200 A 
HETATM   22  S   UNL     1     -40.466  54.453 -49.366  1.00  0.00    -0.039 SA
HETATM   23  N   UNL     1     -39.958  52.319 -50.775  1.00  0.00    -0.331 N 
HETATM   24  C   UNL     1     -39.898  51.517 -51.911  1.00  0.00     0.048 A 
HETATM   25  H   UNL     1     -39.696  51.958 -49.869  1.00  0.00     0.168 HD
HETATM   26  C   UNL     1     -40.298  52.048 -53.135  1.00  0.00     0.036 A 
HETATM   27  C   UNL     1     -39.459  50.198 -51.814  1.00  0.00     0.030 A 
HETATM   28  C   UNL     1     -40.291  51.242 -54.276  1.00  0.00     0.017 A 
HETATM   29  C   UNL     1     -39.854  49.918 -54.185  1.00  0.00     0.001 A 
HETATM   30  C   UNL     1     -39.432  49.399 -52.958  1.00  0.00     0.002 A 
ENDBRANCH  17  19
ENDBRANCH  16  17
ENDBRANCH   1  16
TORSDOF 10
ENDMDL
MODEL 4
REMARK VINA RESULT:      -6.9      1.664      2.290
REMARK  10 active torsions:
REMARK  status: ('A' for Active; 'I' for Inactive)
REMARK       I    between atoms: C_2  and  N_3 
REMARK    1  A    between atoms: N_3  and  C_4 
REMARK    2  A    between atoms: C_4  and  C_5 
REMARK    3  A    between atoms: C_5  and  N_6 
REMARK       I    between atoms: N_6  and  C_7 
REMARK    4  A    between atoms: C_7  and  C_8 
REMARK    5  A    between atoms: C_8  and  C_9 
REMARK    6  A    between atoms: C_9  and  C_10 
REMARK    7  A    between atoms: C_10  and  C_11 
REMARK    8  A    between atoms: C_11  and  C_12 
REMARK    9  A    between atoms: C_12  and  N_13 
REMARK   10  A    between atoms: N_13  and  C_14 
ROOT
HETATM    1  C   UNL     1     -43.380  57.223 -51.614  1.00  0.00     0.020 C 
ENDROOT
BRANCH   1   2
HETATM    2  C   UNL     1     -44.111  58.193 -52.550  1.00  0.00     0.002 C 
BRANCH   2   3
HETATM    3  C   UNL     1     -44.832  57.491 -53.701  1.00  0.00     0.009 C 
BRANCH   3   4
HETATM    4  C   UNL     1     -44.239  57.870 -55.056  1.00  0.00     0.103 C 
BRANCH   4   5
HETATM    5  C   UNL     1     -43.564  56.673 -55.690  1.00  0.00     0.217 C 
HETATM    6  N   UNL     1     -43.630  56.651 -57.063  1.00  0.00    -0.360 N 
HETATM    7  H   UNL     1     -44.184  57.340 -57.551  1.00  0.00     0.162 HD
HETATM    8  O   UNL     1     -43.038  55.787 -55.024  1.00  0.00    -0.274 OA
BRANCH   6   9
HETATM    9  C   UNL     1     -43.138  55.518 -57.830  1.00  0.00     0.142 C 
BRANCH   9  10
HETATM   10  C   UNL     1     -43.549  55.587 -59.307  1.00  0.00     0.142 C 
BRANCH  10  11
HETATM   11  N   UNL     1     -44.990  55.532 -59.511  1.00  0.00    -0.360 N 
HETATM   12  C   UNL     1     -45.681  56.585 -60.056  1.00  0.00     0.213 C 
HETATM   13  C   UNL     1     -47.145  56.316 -60.286  1.00  0.00     0.117 C 
HETATM   14  O   UNL     1     -45.167  57.662 -60.339  1.00  0.00    -0.274 OA
HETATM   15  H   UNL     1     -45.446  54.636 -59.392  1.00  0.00     0.162 HD
ENDBRANCH  10  11
ENDBRANCH   9  10
ENDBRANCH   6   9
ENDBRANCH   4   5
ENDBRANCH   3   4
ENDBRANCH   2   3
ENDBRANCH   1   2
BRANCH   1  16
HETATM   16  C   UNL     1     -41.887  57.097 -51.916  1.00  0.00     0.121 C 
BRANCH  16  17
HETATM   17  N   UNL     1     -41.609  55.816 -52.552  1.00  0.00    -0.374 N 
HETATM   18  H   UNL     1     -41.282  55.896 -53.507  1.00  0.00     0.161 HD
BRANCH  17  19
HETATM   19  C   UNL     1     -41.097  54.761 -51.815  1.00  0.00     0.139 A 
HETATM   20  N   UNL     1     -41.024  54.865 -50.519  1.00  0.00    -0.202 NA
HETATM   21  C   UNL     1     -40.489  53.870 -49.746  1.00  0.00     0.200 A 
HETATM   22  S   UNL     1     -40.387  53.959 -48.073  1.00  0.00    -0.039 SA
HETATM   23  N   UNL     1     -39.987  52.747 -50.346  1.00  0.00    -0.331 N 
HETATM   24  C   UNL     1     -40.045  52.552 -51.723  1.00  0.00     0.048 A 
HETATM   25  H   UNL     1     -39.594  52.042 -49.737  1.00  0.00     0.168 HD
HETATM   26  C   UNL     1     -40.622  53.536 -52.521  1.00  0.00     0.036 A 
HETATM   27  C   UNL     1     -39.547  51.378 -52.286  1.00  0.00     0.030 A 
HETATM   28  C   UNL     1     -40.734  53.335 -53.899  1.00  0.00     0.017 A 
HETATM   29  C   UNL     1     -40.239  52.159 -54.469  1.00  0.00     0.001 A 
HETATM   30  C   UNL     1     -39.640  51.186 -53.665  1.00  0.00     0.002 A 
ENDBRANCH  17  19
ENDBRANCH  16  17
ENDBRANCH   1  16
TORSDOF 10
ENDMDL
MODEL 5
REMARK VINA RESULT:      -6.8      1.937      2.545
REMARK  10 active torsions:
REMARK  status: ('A' for Active; 'I' for Inactive)
REMARK       I    between atoms: C_2  and  N_3 
REMARK    1  A    between atoms: N_3  and  C_4 
REMARK    2  A    between atoms: C_4  and  C_5 
REMARK    3  A    between atoms: C_5  and  N_6 
REMARK       I    between atoms: N_6  and  C_7 
REMARK    4  A    between atoms: C_7  and  C_8 
REMARK    5  A    between atoms: C_8  and  C_9 
REMARK    6  A    between atoms: C_9  and  C_10 
REMARK    7  A    between atoms: C_10  and  C_11 
REMARK    8  A    between atoms: C_11  and  C_12 
REMARK    9  A    between atoms: C_12  and  N_13 
REMARK   10  A    between atoms: N_13  and  C_14 
ROOT
HETATM    1  C   UNL     1     -43.453  57.012 -54.644  1.00  0.00     0.020 C 
ENDROOT
BRANCH   1   2
HETATM    2  C   UNL     1     -42.280  56.754 -55.597  1.00  0.00     0.002 C 
BRANCH   2   3
HETATM    3  C   UNL     1     -42.656  56.912 -57.071  1.00  0.00     0.009 C 
BRANCH   3   4
HETATM    4  C   UNL     1     -43.113  55.590 -57.683  1.00  0.00     0.103 C 
BRANCH   4   5
HETATM    5  C   UNL     1     -43.537  55.792 -59.122  1.00  0.00     0.217 C 
HETATM    6  N   UNL     1     -44.890  55.967 -59.291  1.00  0.00    -0.360 N 
HETATM    7  H   UNL     1     -45.514  55.855 -58.505  1.00  0.00     0.162 HD
HETATM    8  O   UNL     1     -42.737  55.764 -60.052  1.00  0.00    -0.274 OA
BRANCH   6   9
HETATM    9  C   UNL     1     -45.485  56.058 -60.614  1.00  0.00     0.142 C 
BRANCH   9  10
HETATM   10  C   UNL     1     -47.011  56.218 -60.561  1.00  0.00     0.142 C 
BRANCH  10  11
HETATM   11  N   UNL     1     -47.497  57.374 -61.302  1.00  0.00    -0.360 N 
HETATM   12  C   UNL     1     -48.376  57.241 -62.349  1.00  0.00     0.213 C 
HETATM   13  C   UNL     1     -48.850  58.547 -62.933  1.00  0.00     0.117 C 
HETATM   14  O   UNL     1     -48.754  56.160 -62.785  1.00  0.00    -0.274 OA
HETATM   15  H   UNL     1     -47.301  58.291 -60.922  1.00  0.00     0.162 HD
ENDBRANCH  10  11
ENDBRANCH   9  10
ENDBRANCH   6   9
ENDBRANCH   4   5
ENDBRANCH   3   4
ENDBRANCH   2   3
ENDBRANCH   1   2
BRANCH   1  16
HETATM   16  C   UNL     1     -43.392  56.175 -53.367  1.00  0.00     0.121 C 
BRANCH  16  17
HETATM   17  N   UNL     1     -42.703  54.917 -53.622  1.00  0.00    -0.374 N 
HETATM   18  H   UNL     1     -42.389  54.810 -54.579  1.00  0.00     0.161 HD
BRANCH  17  19
HETATM   19  C   UNL     1     -41.907  54.340 -52.647  1.00  0.00     0.139 A 
HETATM   20  N   UNL     1     -41.887  54.857 -51.451  1.00  0.00    -0.202 NA
HETATM   21  C   UNL     1     -41.088  54.351 -50.462  1.00  0.00     0.200 A 
HETATM   22  S   UNL     1     -41.042  54.979 -48.906  1.00  0.00    -0.039 SA
HETATM   23  N   UNL     1     -40.261  53.295 -50.737  1.00  0.00    -0.331 N 
HETATM   24  C   UNL     1     -40.238  52.676 -51.982  1.00  0.00     0.048 A 
HETATM   25  H   UNL     1     -39.683  52.961 -49.978  1.00  0.00     0.168 HD
HETATM   26  C   UNL     1     -41.074  53.151 -52.989  1.00  0.00     0.036 A 
HETATM   27  C   UNL     1     -39.400  51.584 -52.207  1.00  0.00     0.030 A 
HETATM   28  C   UNL     1     -41.099  52.510 -54.231  1.00  0.00     0.017 A 
HETATM   29  C   UNL     1     -40.263  51.414 -54.460  1.00  0.00     0.001 A 
HETATM   30  C   UNL     1     -39.410  50.957 -53.453  1.00  0.00     0.002 A 
ENDBRANCH  17  19
ENDBRANCH  16  17
ENDBRANCH   1  16
TORSDOF 10
ENDMDL
MODEL 6
REMARK VINA RESULT:      -6.6      1.597      2.166
REMARK  10 active torsions:
REMARK  status: ('A' for Active; 'I' for Inactive)
REMARK       I    between atoms: C_2  and  N_3 
REMARK    1  A    between atoms: N_3  and  C_4 
REMARK    2  A    between atoms: C_4  and  C_5 
REMARK    3  A    between atoms: C_5  and  N_6 
REMARK       I    between atoms: N_6  and  C_7 
REMARK    4  A    between atoms: C_7  and  C_8 
REMARK    5  A    between atoms: C_8  and  C_9 
REMARK    6  A    between atoms: C_9  and  C_10 
REMARK    7  A    between atoms: C_10  and  C_11 
REMARK    8  A    between atoms: C_11  and  C_12 
REMARK    9  A    between atoms: C_12  and  N_13 
REMARK   10  A    between atoms: N_13  and  C_14 
ROOT
HETATM    1  C   UNL     1     -43.101  55.626 -56.633  1.00  0.00     0.020 C 
ENDROOT
BRANCH   1   2
HETATM    2  C   UNL     1     -43.142  57.087 -57.096  1.00  0.00     0.002 C 
BRANCH   2   3
HETATM    3  C   UNL     1     -44.381  57.839 -56.608  1.00  0.00     0.009 C 
BRANCH   3   4
HETATM    4  C   UNL     1     -44.898  58.820 -57.657  1.00  0.00     0.103 C 
BRANCH   4   5
HETATM    5  C   UNL     1     -46.133  58.267 -58.334  1.00  0.00     0.217 C 
HETATM    6  N   UNL     1     -46.078  58.283 -59.707  1.00  0.00    -0.360 N 
HETATM    7  H   UNL     1     -45.303  58.734 -60.175  1.00  0.00     0.162 HD
HETATM    8  O   UNL     1     -47.108  57.875 -57.701  1.00  0.00    -0.274 OA
BRANCH   6   9
HETATM    9  C   UNL     1     -47.221  57.900 -60.519  1.00  0.00     0.142 C 
BRANCH   9  10
HETATM   10  C   UNL     1     -47.178  56.422 -60.933  1.00  0.00     0.142 C 
BRANCH  10  11
HETATM   11  N   UNL     1     -46.331  55.605 -60.076  1.00  0.00    -0.360 N 
HETATM   12  C   UNL     1     -45.263  54.903 -60.576  1.00  0.00     0.213 C 
HETATM   13  C   UNL     1     -44.440  54.195 -59.532  1.00  0.00     0.117 C 
HETATM   14  O   UNL     1     -44.986  54.845 -61.769  1.00  0.00    -0.274 OA
HETATM   15  H   UNL     1     -46.450  55.698 -59.075  1.00  0.00     0.162 HD
ENDBRANCH  10  11
ENDBRANCH   9  10
ENDBRANCH   6   9
ENDBRANCH   4   5
ENDBRANCH   3   4
ENDBRANCH   2   3
ENDBRANCH   1   2
BRANCH   1  16
HETATM   16  C   UNL     1     -41.907  55.307 -55.734  1.00  0.00     0.121 C 
BRANCH  16  17
HETATM   17  N   UNL     1     -42.163  54.092 -54.972  1.00  0.00    -0.374 N 
HETATM   18  H   UNL     1     -42.275  53.266 -55.545  1.00  0.00     0.161 HD
BRANCH  17  19
HETATM   19  C   UNL     1     -41.575  53.903 -53.732  1.00  0.00     0.139 A 
HETATM   20  N   UNL     1     -41.672  54.839 -52.831  1.00  0.00    -0.202 NA
HETATM   21  C   UNL     1     -41.075  54.722 -51.604  1.00  0.00     0.200 A 
HETATM   22  S   UNL     1     -41.186  55.897 -50.412  1.00  0.00    -0.039 SA
HETATM   23  N   UNL     1     -40.330  53.609 -51.321  1.00  0.00    -0.331 N 
HETATM   24  C   UNL     1     -40.194  52.557 -52.222  1.00  0.00     0.048 A 
HETATM   25  H   UNL     1     -39.901  53.569 -50.407  1.00  0.00     0.168 HD
HETATM   26  C   UNL     1     -40.827  52.642 -53.459  1.00  0.00     0.036 A 
HETATM   27  C   UNL     1     -39.448  51.431 -51.877  1.00  0.00     0.030 A 
HETATM   28  C   UNL     1     -40.742  51.574 -54.357  1.00  0.00     0.017 A 
HETATM   29  C   UNL     1     -39.998  50.442 -54.016  1.00  0.00     0.001 A 
HETATM   30  C   UNL     1     -39.347  50.373 -52.782  1.00  0.00     0.002 A 
ENDBRANCH  17  19
ENDBRANCH  16  17
ENDBRANCH   1  16
TORSDOF 10
ENDMDL
MODEL 7
REMARK VINA RESULT:      -6.4     15.326     19.634
REMARK  10 active torsions:
REMARK  status: ('A' for Active; 'I' for Inactive)
REMARK       I    between atoms: C_2  and  N_3 
REMARK    1  A    between atoms: N_3  and  C_4 
REMARK    2  A    between atoms: C_4  and  C_5 
REMARK    3  A    between atoms: C_5  and  N_6 
REMARK       I    between atoms: N_6  and  C_7 
REMARK    4  A    between atoms: C_7  and  C_8 
REMARK    5  A    between atoms: C_8  and  C_9 
REMARK    6  A    between atoms: C_9  and  C_10 
REMARK    7  A    between atoms: C_10  and  C_11 
REMARK    8  A    between atoms: C_11  and  C_12 
REMARK    9  A    between atoms: C_12  and  N_13 
REMARK   10  A    between atoms: N_13  and  C_14 
ROOT
HETATM    1  C   UNL     1     -34.054  40.626 -50.873  1.00  0.00     0.020 C 
ENDROOT
BRANCH   1   2
HETATM    2  C   UNL     1     -32.622  40.408 -51.375  1.00  0.00     0.002 C 
BRANCH   2   3
HETATM    3  C   UNL     1     -31.695  39.813 -50.313  1.00  0.00     0.009 C 
BRANCH   3   4
HETATM    4  C   UNL     1     -32.210  40.078 -48.901  1.00  0.00     0.103 C 
BRANCH   4   5
HETATM    5  C   UNL     1     -31.223  39.566 -47.874  1.00  0.00     0.217 C 
HETATM    6  N   UNL     1     -30.619  40.552 -47.132  1.00  0.00    -0.360 N 
HETATM    7  H   UNL     1     -30.775  41.524 -47.363  1.00  0.00     0.162 HD
HETATM    8  O   UNL     1     -30.965  38.373 -47.751  1.00  0.00    -0.274 OA
BRANCH   6   9
HETATM    9  C   UNL     1     -29.559  40.250 -46.183  1.00  0.00     0.142 C 
BRANCH   9  10
HETATM   10  C   UNL     1     -30.074  40.153 -44.740  1.00  0.00     0.142 C 
BRANCH  10  11
HETATM   11  N   UNL     1     -29.143  40.688 -43.757  1.00  0.00    -0.360 N 
HETATM   12  C   UNL     1     -28.225  39.887 -43.122  1.00  0.00     0.213 C 
HETATM   13  C   UNL     1     -27.278  40.626 -42.213  1.00  0.00     0.117 C 
HETATM   14  O   UNL     1     -28.166  38.671 -43.272  1.00  0.00    -0.274 OA
HETATM   15  H   UNL     1     -29.078  41.694 -43.672  1.00  0.00     0.162 HD
ENDBRANCH  10  11
ENDBRANCH   9  10
ENDBRANCH   6   9
ENDBRANCH   4   5
ENDBRANCH   3   4
ENDBRANCH   2   3
ENDBRANCH   1   2
BRANCH   1  16
HETATM   16  C   UNL     1     -34.656  41.958 -51.318  1.00  0.00     0.121 C 
BRANCH  16  17
HETATM   17  N   UNL     1     -34.734  42.014 -52.772  1.00  0.00    -0.374 N 
HETATM   18  H   UNL     1     -33.919  41.637 -53.240  1.00  0.00     0.161 HD
BRANCH  17  19
HETATM   19  C   UNL     1     -35.946  41.841 -53.419  1.00  0.00     0.139 A 
HETATM   20  N   UNL     1     -37.017  41.603 -52.716  1.00  0.00    -0.202 NA
HETATM   21  C   UNL     1     -38.232  41.383 -53.307  1.00  0.00     0.200 A 
HETATM   22  S   UNL     1     -39.636  41.086 -52.437  1.00  0.00    -0.039 SA
HETATM   23  N   UNL     1     -38.327  41.381 -54.672  1.00  0.00    -0.331 N 
HETATM   24  C   UNL     1     -37.235  41.646 -55.493  1.00  0.00     0.048 A 
HETATM   25  H   UNL     1     -39.242  41.207 -55.064  1.00  0.00     0.168 HD
HETATM   26  C   UNL     1     -35.999  41.911 -54.908  1.00  0.00     0.036 A 
HETATM   27  C   UNL     1     -37.387  41.662 -56.879  1.00  0.00     0.030 A 
HETATM   28  C   UNL     1     -34.903  42.227 -55.715  1.00  0.00     0.017 A 
HETATM   29  C   UNL     1     -35.050  42.247 -57.105  1.00  0.00     0.001 A 
HETATM   30  C   UNL     1     -36.287  41.958 -57.685  1.00  0.00     0.002 A 
ENDBRANCH  17  19
ENDBRANCH  16  17
ENDBRANCH   1  16
TORSDOF 10
ENDMDL
MODEL 8
REMARK VINA RESULT:      -6.4      2.478      4.103
REMARK  10 active torsions:
REMARK  status: ('A' for Active; 'I' for Inactive)
REMARK       I    between atoms: C_2  and  N_3 
REMARK    1  A    between atoms: N_3  and  C_4 
REMARK    2  A    between atoms: C_4  and  C_5 
REMARK    3  A    between atoms: C_5  and  N_6 
REMARK       I    between atoms: N_6  and  C_7 
REMARK    4  A    between atoms: C_7  and  C_8 
REMARK    5  A    between atoms: C_8  and  C_9 
REMARK    6  A    between atoms: C_9  and  C_10 
REMARK    7  A    between atoms: C_10  and  C_11 
REMARK    8  A    between atoms: C_11  and  C_12 
REMARK    9  A    between atoms: C_12  and  N_13 
REMARK   10  A    between atoms: N_13  and  C_14 
ROOT
HETATM    1  C   UNL     1     -42.873  55.687 -56.916  1.00  0.00     0.020 C 
ENDROOT
BRANCH   1   2
HETATM    2  C   UNL     1     -42.781  56.715 -58.049  1.00  0.00     0.002 C 
BRANCH   2   3
HETATM    3  C   UNL     1     -43.868  57.788 -57.980  1.00  0.00     0.009 C 
BRANCH   3   4
HETATM    4  C   UNL     1     -43.310  59.179 -58.270  1.00  0.00     0.103 C 
BRANCH   4   5
HETATM    5  C   UNL     1     -42.509  59.683 -57.090  1.00  0.00     0.217 C 
HETATM    6  N   UNL     1     -43.173  59.619 -55.888  1.00  0.00    -0.360 N 
HETATM    7  H   UNL     1     -44.147  59.350 -55.865  1.00  0.00     0.162 HD
HETATM    8  O   UNL     1     -41.378  60.143 -57.213  1.00  0.00    -0.274 OA
BRANCH   6   9
HETATM    9  C   UNL     1     -42.600  60.169 -54.671  1.00  0.00     0.142 C 
BRANCH   9  10
HETATM   10  C   UNL     1     -42.149  59.078 -53.689  1.00  0.00     0.142 C 
BRANCH  10  11
HETATM   11  N   UNL     1     -43.085  58.862 -52.594  1.00  0.00    -0.360 N 
HETATM   12  C   UNL     1     -44.191  58.062 -52.739  1.00  0.00     0.213 C 
HETATM   13  C   UNL     1     -44.991  57.872 -51.477  1.00  0.00     0.117 C 
HETATM   14  O   UNL     1     -44.517  57.538 -53.799  1.00  0.00    -0.274 OA
HETATM   15  H   UNL     1     -42.812  59.184 -51.675  1.00  0.00     0.162 HD
ENDBRANCH  10  11
ENDBRANCH   9  10
ENDBRANCH   6   9
ENDBRANCH   4   5
ENDBRANCH   3   4
ENDBRANCH   2   3
ENDBRANCH   1   2
BRANCH   1  16
HETATM   16  C   UNL     1     -42.014  56.043 -55.703  1.00  0.00     0.121 C 
BRANCH  16  17
HETATM   17  N   UNL     1     -41.227  54.888 -55.289  1.00  0.00    -0.374 N 
HETATM   18  H   UNL     1     -40.446  54.686 -55.901  1.00  0.00     0.161 HD
BRANCH  17  19
HETATM   19  C   UNL     1     -41.042  54.607 -53.946  1.00  0.00     0.139 A 
HETATM   20  N   UNL     1     -41.306  55.526 -53.060  1.00  0.00    -0.202 NA
HETATM   21  C   UNL     1     -41.102  55.316 -51.722  1.00  0.00     0.200 A 
HETATM   22  S   UNL     1     -41.441  56.467 -50.549  1.00  0.00    -0.039 SA
HETATM   23  N   UNL     1     -40.579  54.123 -51.300  1.00  0.00    -0.331 N 
HETATM   24  C   UNL     1     -40.289  53.086 -52.180  1.00  0.00     0.048 A 
HETATM   25  H   UNL     1     -40.438  54.016 -50.305  1.00  0.00     0.168 HD
HETATM   26  C   UNL     1     -40.527  53.268 -53.540  1.00  0.00     0.036 A 
HETATM   27  C   UNL     1     -39.784  51.879 -51.700  1.00  0.00     0.030 A 
HETATM   28  C   UNL     1     -40.288  52.220 -54.433  1.00  0.00     0.017 A 
HETATM   29  C   UNL     1     -39.785  51.006 -53.956  1.00  0.00     0.001 A 
HETATM   30  C   UNL     1     -39.527  50.839 -52.594  1.00  0.00     0.002 A 
ENDBRANCH  17  19
ENDBRANCH  16  17
ENDBRANCH   1  16
TORSDOF 10
ENDMDL
MODEL 9
REMARK VINA RESULT:      -6.4      3.671      8.655
REMARK  10 active torsions:
REMARK  status: ('A' for Active; 'I' for Inactive)
REMARK       I    between atoms: C_2  and  N_3 
REMARK    1  A    between atoms: N_3  and  C_4 
REMARK    2  A    between atoms: C_4  and  C_5 
REMARK    3  A    between atoms: C_5  and  N_6 
REMARK       I    between atoms: N_6  and  C_7 
REMARK    4  A    between atoms: C_7  and  C_8 
REMARK    5  A    between atoms: C_8  and  C_9 
REMARK    6  A    between atoms: C_9  and  C_10 
REMARK    7  A    between atoms: C_10  and  C_11 
REMARK    8  A    between atoms: C_11  and  C_12 
REMARK    9  A    between atoms: C_12  and  N_13 
REMARK   10  A    between atoms: N_13  and  C_14 
ROOT
HETATM    1  C   UNL     1     -42.639  54.698 -55.981  1.00  0.00     0.020 C 
ENDROOT
BRANCH   1   2
HETATM    2  C   UNL     1     -42.286  53.855 -54.750  1.00  0.00     0.002 C 
BRANCH   2   3
HETATM    3  C   UNL     1     -40.781  53.751 -54.503  1.00  0.00     0.009 C 
BRANCH   3   4
HETATM    4  C   UNL     1     -40.374  52.344 -54.073  1.00  0.00     0.103 C 
BRANCH   4   5
HETATM    5  C   UNL     1     -40.003  52.327 -52.606  1.00  0.00     0.217 C 
HETATM    6  N   UNL     1     -40.287  53.494 -51.939  1.00  0.00    -0.360 N 
HETATM    7  H   UNL     1     -40.615  54.301 -52.453  1.00  0.00     0.162 HD
HETATM    8  O   UNL     1     -39.461  51.361 -52.078  1.00  0.00    -0.274 OA
BRANCH   6   9
HETATM    9  C   UNL     1     -39.890  53.696 -50.555  1.00  0.00     0.142 C 
BRANCH   9  10
HETATM   10  C   UNL     1     -41.095  53.844 -49.615  1.00  0.00     0.142 C 
BRANCH  10  11
HETATM   11  N   UNL     1     -41.936  54.991 -49.928  1.00  0.00    -0.360 N 
HETATM   12  C   UNL     1     -43.037  54.877 -50.741  1.00  0.00     0.213 C 
HETATM   13  C   UNL     1     -43.845  56.140 -50.873  1.00  0.00     0.117 C 
HETATM   14  O   UNL     1     -43.350  53.842 -51.319  1.00  0.00    -0.274 OA
HETATM   15  H   UNL     1     -41.785  55.840 -49.399  1.00  0.00     0.162 HD
ENDBRANCH  10  11
ENDBRANCH   9  10
ENDBRANCH   6   9
ENDBRANCH   4   5
ENDBRANCH   3   4
ENDBRANCH   2   3
ENDBRANCH   1   2
BRANCH   1  16
HETATM   16  C   UNL     1     -42.140  56.139 -55.894  1.00  0.00     0.121 C 
BRANCH  16  17
HETATM   17  N   UNL     1     -42.223  56.780 -57.200  1.00  0.00    -0.374 N 
HETATM   18  H   UNL     1     -41.642  56.346 -57.906  1.00  0.00     0.161 HD
BRANCH  17  19
HETATM   19  C   UNL     1     -43.416  57.329 -57.639  1.00  0.00     0.139 A 
HETATM   20  N   UNL     1     -43.871  58.408 -57.068  1.00  0.00    -0.202 NA
HETATM   21  C   UNL     1     -45.065  58.968 -57.436  1.00  0.00     0.200 A 
HETATM   22  S   UNL     1     -45.679  60.364 -56.735  1.00  0.00    -0.039 SA
HETATM   23  N   UNL     1     -45.821  58.367 -58.405  1.00  0.00    -0.331 N 
HETATM   24  C   UNL     1     -45.397  57.224 -59.076  1.00  0.00     0.048 A 
HETATM   25  H   UNL     1     -46.699  58.811 -58.638  1.00  0.00     0.168 HD
HETATM   26  C   UNL     1     -44.167  56.663 -58.743  1.00  0.00     0.036 A 
HETATM   27  C   UNL     1     -46.189  56.664 -60.077  1.00  0.00     0.030 A 
HETATM   28  C   UNL     1     -43.703  55.544 -59.439  1.00  0.00     0.017 A 
HETATM   29  C   UNL     1     -44.492  54.980 -60.446  1.00  0.00     0.001 A 
HETATM   30  C   UNL     1     -45.735  55.534 -60.759  1.00  0.00     0.002 A 
ENDBRANCH  17  19
ENDBRANCH  16  17
ENDBRANCH   1  16
TORSDOF 10
ENDMDL
MODEL 10
REMARK VINA RESULT:      -6.4      4.383      6.437
REMARK  10 active torsions:
REMARK  status: ('A' for Active; 'I' for Inactive)
REMARK       I    between atoms: C_2  and  N_3 
REMARK    1  A    between atoms: N_3  and  C_4 
REMARK    2  A    between atoms: C_4  and  C_5 
REMARK    3  A    between atoms: C_5  and  N_6 
REMARK       I    between atoms: N_6  and  C_7 
REMARK    4  A    between atoms: C_7  and  C_8 
REMARK    5  A    between atoms: C_8  and  C_9 
REMARK    6  A    between atoms: C_9  and  C_10 
REMARK    7  A    between atoms: C_10  and  C_11 
REMARK    8  A    between atoms: C_11  and  C_12 
REMARK    9  A    between atoms: C_12  and  N_13 
REMARK   10  A    between atoms: N_13  and  C_14 
ROOT
HETATM    1  C   UNL     1     -44.053  56.429 -54.448  1.00  0.00     0.020 C 
ENDROOT
BRANCH   1   2
HETATM    2  C   UNL     1     -43.401  57.496 -53.561  1.00  0.00     0.002 C 
BRANCH   2   3
HETATM    3  C   UNL     1     -42.636  58.554 -54.357  1.00  0.00     0.009 C 
BRANCH   3   4
HETATM    4  C   UNL     1     -41.306  58.909 -53.695  1.00  0.00     0.103 C 
BRANCH   4   5
HETATM    5  C   UNL     1     -41.491  59.095 -52.205  1.00  0.00     0.217 C 
HETATM    6  N   UNL     1     -42.186  60.230 -51.861  1.00  0.00    -0.360 N 
HETATM    7  H   UNL     1     -42.435  60.903 -52.572  1.00  0.00     0.162 HD
HETATM    8  O   UNL     1     -41.025  58.312 -51.383  1.00  0.00    -0.274 OA
BRANCH   6   9
HETATM    9  C   UNL     1     -42.353  60.627 -50.472  1.00  0.00     0.142 C 
BRANCH   9  10
HETATM   10  C   UNL     1     -43.824  60.865 -50.104  1.00  0.00     0.142 C 
BRANCH  10  11
HETATM   11  N   UNL     1     -44.067  60.872 -48.668  1.00  0.00    -0.360 N 
HETATM   12  C   UNL     1     -45.327  61.052 -48.151  1.00  0.00     0.213 C 
HETATM   13  C   UNL     1     -45.407  60.930 -46.652  1.00  0.00     0.117 C 
HETATM   14  O   UNL     1     -46.315  61.292 -48.837  1.00  0.00    -0.274 OA
HETATM   15  H   UNL     1     -43.311  60.577 -48.063  1.00  0.00     0.162 HD
ENDBRANCH  10  11
ENDBRANCH   9  10
ENDBRANCH   6   9
ENDBRANCH   4   5
ENDBRANCH   3   4
ENDBRANCH   2   3
ENDBRANCH   1   2
BRANCH   1  16
HETATM   16  C   UNL     1     -43.566  55.012 -54.148  1.00  0.00     0.121 C 
BRANCH  16  17
HETATM   17  N   UNL     1     -42.121  55.005 -53.963  1.00  0.00    -0.374 N 
HETATM   18  H   UNL     1     -41.665  55.852 -54.278  1.00  0.00     0.161 HD
BRANCH  17  19
HETATM   19  C   UNL     1     -41.555  54.376 -52.867  1.00  0.00     0.139 A 
HETATM   20  N   UNL     1     -41.614  54.951 -51.699  1.00  0.00    -0.202 NA
HETATM   21  C   UNL     1     -41.036  54.393 -50.591  1.00  0.00     0.200 A 
HETATM   22  S   UNL     1     -41.101  55.094 -49.068  1.00  0.00    -0.039 SA
HETATM   23  N   UNL     1     -40.348  53.215 -50.711  1.00  0.00    -0.331 N 
HETATM   24  C   UNL     1     -40.255  52.529 -51.918  1.00  0.00     0.048 A 
HETATM   25  H   UNL     1     -39.930  52.844 -49.869  1.00  0.00     0.168 HD
HETATM   26  C   UNL     1     -40.871  53.063 -53.048  1.00  0.00     0.036 A 
HETATM   27  C   UNL     1     -39.567  51.318 -51.985  1.00  0.00     0.030 A 
HETATM   28  C   UNL     1     -40.829  52.363 -54.257  1.00  0.00     0.017 A 
HETATM   29  C   UNL     1     -40.144  51.147 -54.329  1.00  0.00     0.001 A 
HETATM   30  C   UNL     1     -39.509  50.630 -53.198  1.00  0.00     0.002 A 
ENDBRANCH  17  19
ENDBRANCH  16  17
ENDBRANCH   1  16
TORSDOF 10
ENDMDL
