MODEL 1
REMARK VINA RESULT:      -7.9      0.000      0.000
REMARK  6 active torsions:
REMARK  status: ('A' for Active; 'I' for Inactive)
REMARK    1  A    between atoms: C_2  and  C_4 
REMARK    2  A    between atoms: C_2  and  C_11 
REMARK    3  A    between atoms: C_2  and  O_3 
REMARK    4  A    between atoms: C_11  and  N_12 
REMARK       I    between atoms: N_12  and  C_13 
REMARK    5  A    between atoms: C_13  and  C_14 
REMARK    6  A    between atoms: C_15  and  C_16 
ROOT
HETATM    1  N   UNL     1     -41.925  53.989 -54.842  1.00  0.00    -0.354 N 
HETATM    2  C   UNL     1     -40.574  53.782 -54.675  1.00  0.00     0.255 C 
HETATM    3  O   UNL     1     -39.742  54.577 -55.104  1.00  0.00    -0.268 OA
HETATM    4  H   UNL     1     -42.543  53.204 -54.684  1.00  0.00     0.162 HD
ENDROOT
BRANCH   2   5
HETATM    5  C   UNL     1     -40.232  52.548 -53.995  1.00  0.00     0.080 A 
HETATM    6  C   UNL     1     -40.227  52.255 -52.593  1.00  0.00     0.104 A 
HETATM    7  N   UNL     1     -39.916  50.962 -52.382  1.00  0.00    -0.174 NA
HETATM    8  N   UNL     1     -39.713  50.452 -53.600  1.00  0.00    -0.288 N 
HETATM    9  H   UNL     1     -39.472  49.469 -53.672  1.00  0.00     0.188 HD
HETATM   10  C   UNL     1     -39.871  51.357 -54.602  1.00  0.00     0.128 A 
BRANCH   6  11
HETATM   11  C   UNL     1     -40.469  53.139 -51.448  1.00  0.00    -0.004 A 
HETATM   12  C   UNL     1     -41.780  53.545 -51.141  1.00  0.00     0.017 A 
HETATM   13  C   UNL     1     -42.034  54.361 -50.036  1.00  0.00     0.043 A 
HETATM   14  C   UNL     1     -40.979  54.772 -49.233  1.00  0.00     0.116 A 
HETATM   15  F   UNL     1     -41.222  55.552 -48.170  1.00  0.00    -0.206 F 
HETATM   16  C   UNL     1     -39.675  54.379 -49.510  1.00  0.00     0.043 A 
HETATM   17  C   UNL     1     -39.421  53.558 -50.613  1.00  0.00     0.017 A 
ENDBRANCH   6  11
ENDBRANCH   2   5
BRANCH   1  18
HETATM   18  C   UNL     1     -42.436  55.122 -55.604  1.00  0.00     0.165 C 
BRANCH  18  19
HETATM   19  C   UNL     1     -43.480  55.996 -54.839  1.00  0.00     0.097 C 
HETATM   20  C   UNL     1     -44.020  57.078 -55.786  1.00  0.00     0.053 C 
BRANCH  19  21
HETATM   21  C   UNL     1     -42.878  56.648 -53.588  1.00  0.00    -0.023 A 
HETATM   22  C   UNL     1     -41.544  57.102 -53.577  1.00  0.00     0.013 A 
HETATM   23  C   UNL     1     -40.996  57.693 -52.436  1.00  0.00     0.043 A 
HETATM   24  C   UNL     1     -41.775  57.839 -51.297  1.00  0.00     0.116 A 
HETATM   25  F   UNL     1     -41.247  58.408 -50.205  1.00  0.00    -0.206 F 
HETATM   26  C   UNL     1     -43.093  57.407 -51.276  1.00  0.00     0.043 A 
HETATM   27  C   UNL     1     -43.641  56.817 -52.417  1.00  0.00     0.013 A 
ENDBRANCH  19  21
BRANCH  19  28
HETATM   28  O   UNL     1     -44.626  55.214 -54.467  1.00  0.00    -0.384 OA
HETATM   29  H   UNL     1     -44.376  54.266 -54.470  1.00  0.00     0.211 HD
ENDBRANCH  19  28
ENDBRANCH  18  19
ENDBRANCH   1  18
TORSDOF 6
ENDMDL
MODEL 2
REMARK VINA RESULT:      -7.7      3.481      6.744
REMARK  6 active torsions:
REMARK  status: ('A' for Active; 'I' for Inactive)
REMARK    1  A    between atoms: C_2  and  C_4 
REMARK    2  A    between atoms: C_2  and  C_11 
REMARK    3  A    between atoms: C_2  and  O_3 
REMARK    4  A    between atoms: C_11  and  N_12 
REMARK       I    between atoms: N_12  and  C_13 
REMARK    5  A    between atoms: C_13  and  C_14 
REMARK    6  A    between atoms: C_15  and  C_16 
ROOT
HETATM    1  N   UNL     1     -42.559  55.246 -50.603  1.00  0.00    -0.354 N 
HETATM    2  C   UNL     1     -43.823  55.781 -50.725  1.00  0.00     0.255 C 
HETATM    3  O   UNL     1     -44.779  55.323 -50.106  1.00  0.00    -0.268 OA
HETATM    4  H   UNL     1     -41.872  55.502 -51.300  1.00  0.00     0.162 HD
ENDROOT
BRANCH   2   5
HETATM    5  C   UNL     1     -43.922  56.885 -51.660  1.00  0.00     0.080 A 
HETATM    6  C   UNL     1     -43.413  56.994 -52.995  1.00  0.00     0.104 A 
HETATM    7  N   UNL     1     -43.787  58.163 -53.548  1.00  0.00    -0.174 NA
HETATM    8  N   UNL     1     -44.493  58.784 -52.600  1.00  0.00    -0.288 N 
HETATM    9  H   UNL     1     -44.885  59.695 -52.816  1.00  0.00     0.188 HD
HETATM   10  C   UNL     1     -44.594  58.076 -51.444  1.00  0.00     0.128 A 
BRANCH   6  11
HETATM   11  C   UNL     1     -42.568  56.068 -53.756  1.00  0.00    -0.004 A 
HETATM   12  C   UNL     1     -41.190  56.318 -53.879  1.00  0.00     0.017 A 
HETATM   13  C   UNL     1     -40.363  55.432 -54.574  1.00  0.00     0.043 A 
HETATM   14  C   UNL     1     -40.910  54.291 -55.145  1.00  0.00     0.116 A 
HETATM   15  F   UNL     1     -40.118  53.438 -55.808  1.00  0.00    -0.206 F 
HETATM   16  C   UNL     1     -42.268  54.017 -55.031  1.00  0.00     0.043 A 
HETATM   17  C   UNL     1     -43.095  54.901 -54.331  1.00  0.00     0.017 A 
ENDBRANCH   6  11
ENDBRANCH   2   5
BRANCH   1  18
HETATM   18  C   UNL     1     -42.306  54.061 -49.794  1.00  0.00     0.165 C 
BRANCH  18  19
HETATM   19  C   UNL     1     -40.795  53.699 -49.634  1.00  0.00     0.097 C 
HETATM   20  C   UNL     1     -39.945  54.938 -49.955  1.00  0.00     0.053 C 
BRANCH  19  21
HETATM   21  C   UNL     1     -40.383  52.533 -50.540  1.00  0.00    -0.023 A 
HETATM   22  C   UNL     1     -40.105  52.739 -51.907  1.00  0.00     0.013 A 
HETATM   23  C   UNL     1     -39.733  51.675 -52.733  1.00  0.00     0.043 A 
HETATM   24  C   UNL     1     -39.632  50.397 -52.202  1.00  0.00     0.116 A 
HETATM   25  F   UNL     1     -39.273  49.379 -52.995  1.00  0.00    -0.206 F 
HETATM   26  C   UNL     1     -39.894  50.161 -50.860  1.00  0.00     0.043 A 
HETATM   27  C   UNL     1     -40.265  51.225 -50.035  1.00  0.00     0.013 A 
ENDBRANCH  19  21
BRANCH  19  28
HETATM   28  O   UNL     1     -40.490  53.376 -48.269  1.00  0.00    -0.384 OA
HETATM   29  H   UNL     1     -39.653  52.866 -48.244  1.00  0.00     0.211 HD
ENDBRANCH  19  28
ENDBRANCH  18  19
ENDBRANCH   1  18
TORSDOF 6
ENDMDL
MODEL 3
REMARK VINA RESULT:      -7.6      2.841      6.295
REMARK  6 active torsions:
REMARK  status: ('A' for Active; 'I' for Inactive)
REMARK    1  A    between atoms: C_2  and  C_4 
REMARK    2  A    between atoms: C_2  and  C_11 
REMARK    3  A    between atoms: C_2  and  O_3 
REMARK    4  A    between atoms: C_11  and  N_12 
REMARK       I    between atoms: N_12  and  C_13 
REMARK    5  A    between atoms: C_13  and  C_14 
REMARK    6  A    between atoms: C_15  and  C_16 
ROOT
HETATM    1  N   UNL     1     -43.313  55.491 -54.064  1.00  0.00    -0.354 N 
HETATM    2  C   UNL     1     -43.559  56.343 -55.119  1.00  0.00     0.255 C 
HETATM    3  O   UNL     1     -43.239  56.055 -56.268  1.00  0.00    -0.268 OA
HETATM    4  H   UNL     1     -43.379  55.870 -53.129  1.00  0.00     0.162 HD
ENDROOT
BRANCH   2   5
HETATM    5  C   UNL     1     -44.181  57.598 -54.747  1.00  0.00     0.080 A 
HETATM    6  C   UNL     1     -43.703  58.625 -53.869  1.00  0.00     0.104 A 
HETATM    7  N   UNL     1     -44.556  59.666 -53.851  1.00  0.00    -0.174 NA
HETATM    8  N   UNL     1     -45.549  59.313 -54.671  1.00  0.00    -0.288 N 
HETATM    9  H   UNL     1     -46.308  59.972 -54.813  1.00  0.00     0.188 HD
HETATM   10  C   UNL     1     -45.388  58.081 -55.222  1.00  0.00     0.128 A 
BRANCH   6  11
HETATM   11  C   UNL     1     -42.503  58.655 -53.026  1.00  0.00    -0.004 A 
HETATM   12  C   UNL     1     -41.234  58.780 -53.619  1.00  0.00     0.017 A 
HETATM   13  C   UNL     1     -40.081  58.842 -52.832  1.00  0.00     0.043 A 
HETATM   14  C   UNL     1     -40.193  58.784 -51.450  1.00  0.00     0.116 A 
HETATM   15  F   UNL     1     -39.089  58.847 -50.693  1.00  0.00    -0.206 F 
HETATM   16  C   UNL     1     -41.436  58.668 -50.839  1.00  0.00     0.043 A 
HETATM   17  C   UNL     1     -42.590  58.611 -51.626  1.00  0.00     0.017 A 
ENDBRANCH   6  11
ENDBRANCH   2   5
BRANCH   1  18
HETATM   18  C   UNL     1     -42.591  54.238 -54.247  1.00  0.00     0.165 C 
BRANCH  18  19
HETATM   19  C   UNL     1     -41.121  54.259 -53.723  1.00  0.00     0.097 C 
HETATM   20  C   UNL     1     -40.226  54.952 -54.762  1.00  0.00     0.053 C 
BRANCH  19  21
HETATM   21  C   UNL     1     -40.592  52.849 -53.435  1.00  0.00    -0.023 A 
HETATM   22  C   UNL     1     -40.077  52.512 -52.167  1.00  0.00     0.013 A 
HETATM   23  C   UNL     1     -39.593  51.227 -51.907  1.00  0.00     0.043 A 
HETATM   24  C   UNL     1     -39.619  50.267 -52.909  1.00  0.00     0.116 A 
HETATM   25  F   UNL     1     -39.156  49.036 -52.656  1.00  0.00    -0.206 F 
HETATM   26  C   UNL     1     -40.123  50.565 -54.166  1.00  0.00     0.043 A 
HETATM   27  C   UNL     1     -40.609  51.849 -54.426  1.00  0.00     0.013 A 
ENDBRANCH  19  21
BRANCH  19  28
HETATM   28  O   UNL     1     -41.013  55.062 -52.537  1.00  0.00    -0.384 OA
HETATM   29  H   UNL     1     -40.784  55.980 -52.797  1.00  0.00     0.211 HD
ENDBRANCH  19  28
ENDBRANCH  18  19
ENDBRANCH   1  18
TORSDOF 6
ENDMDL
MODEL 4
REMARK VINA RESULT:      -7.6      3.446      5.080
REMARK  6 active torsions:
REMARK  status: ('A' for Active; 'I' for Inactive)
REMARK    1  A    between atoms: C_2  and  C_4 
REMARK    2  A    between atoms: C_2  and  C_11 
REMARK    3  A    between atoms: C_2  and  O_3 
REMARK    4  A    between atoms: C_11  and  N_12 
REMARK       I    between atoms: N_12  and  C_13 
REMARK    5  A    between atoms: C_13  and  C_14 
REMARK    6  A    between atoms: C_15  and  C_16 
ROOT
HETATM    1  N   UNL     1     -42.247  55.537 -53.115  1.00  0.00    -0.354 N 
HETATM    2  C   UNL     1     -42.612  54.664 -52.113  1.00  0.00     0.255 C 
HETATM    3  O   UNL     1     -43.654  54.019 -52.168  1.00  0.00    -0.268 OA
HETATM    4  H   UNL     1     -41.515  56.205 -52.912  1.00  0.00     0.162 HD
ENDROOT
BRANCH   2   5
HETATM    5  C   UNL     1     -41.688  54.609 -50.996  1.00  0.00     0.080 A 
HETATM    6  C   UNL     1     -40.642  53.668 -50.728  1.00  0.00     0.104 A 
HETATM    7  N   UNL     1     -39.967  54.017 -49.616  1.00  0.00    -0.174 NA
HETATM    8  N   UNL     1     -40.569  55.127 -49.181  1.00  0.00    -0.288 N 
HETATM    9  H   UNL     1     -40.205  55.569 -48.343  1.00  0.00     0.188 HD
HETATM   10  C   UNL     1     -41.614  55.519 -49.955  1.00  0.00     0.128 A 
BRANCH   6  11
HETATM   11  C   UNL     1     -40.271  52.446 -51.449  1.00  0.00    -0.004 A 
HETATM   12  C   UNL     1     -40.132  52.472 -52.848  1.00  0.00     0.017 A 
HETATM   13  C   UNL     1     -39.749  51.326 -53.550  1.00  0.00     0.043 A 
HETATM   14  C   UNL     1     -39.502  50.150 -52.854  1.00  0.00     0.116 A 
HETATM   15  F   UNL     1     -39.131  49.051 -53.525  1.00  0.00    -0.206 F 
HETATM   16  C   UNL     1     -39.625  50.100 -51.471  1.00  0.00     0.043 A 
HETATM   17  C   UNL     1     -40.003  51.248 -50.768  1.00  0.00     0.017 A 
ENDBRANCH   6  11
ENDBRANCH   2   5
BRANCH   1  18
HETATM   18  C   UNL     1     -43.117  55.799 -54.254  1.00  0.00     0.165 C 
BRANCH  18  19
HETATM   19  C   UNL     1     -42.708  55.053 -55.563  1.00  0.00     0.097 C 
HETATM   20  C   UNL     1     -41.301  54.461 -55.386  1.00  0.00     0.053 C 
BRANCH  19  21
HETATM   21  C   UNL     1     -42.735  55.979 -56.785  1.00  0.00    -0.023 A 
HETATM   22  C   UNL     1     -42.382  57.339 -56.673  1.00  0.00     0.013 A 
HETATM   23  C   UNL     1     -42.410  58.182 -57.787  1.00  0.00     0.043 A 
HETATM   24  C   UNL     1     -42.789  57.676 -59.022  1.00  0.00     0.116 A 
HETATM   25  F   UNL     1     -42.813  58.487 -60.089  1.00  0.00    -0.206 F 
HETATM   26  C   UNL     1     -43.138  56.342 -59.168  1.00  0.00     0.043 A 
HETATM   27  C   UNL     1     -43.108  55.498 -58.054  1.00  0.00     0.013 A 
ENDBRANCH  19  21
BRANCH  19  28
HETATM   28  O   UNL     1     -43.565  53.925 -55.798  1.00  0.00    -0.384 OA
HETATM   29  H   UNL     1     -44.178  53.831 -55.038  1.00  0.00     0.211 HD
ENDBRANCH  19  28
ENDBRANCH  18  19
ENDBRANCH   1  18
TORSDOF 6
ENDMDL
MODEL 5
REMARK VINA RESULT:      -7.5      3.323      6.594
REMARK  6 active torsions:
REMARK  status: ('A' for Active; 'I' for Inactive)
REMARK    1  A    between atoms: C_2  and  C_4 
REMARK    2  A    between atoms: C_2  and  C_11 
REMARK    3  A    between atoms: C_2  and  O_3 
REMARK    4  A    between atoms: C_11  and  N_12 
REMARK       I    between atoms: N_12  and  C_13 
REMARK    5  A    between atoms: C_13  and  C_14 
REMARK    6  A    between atoms: C_15  and  C_16 
ROOT
HETATM    1  N   UNL     1     -43.100  56.290 -51.579  1.00  0.00    -0.354 N 
HETATM    2  C   UNL     1     -44.146  57.168 -51.402  1.00  0.00     0.255 C 
HETATM    3  O   UNL     1     -45.054  56.938 -50.609  1.00  0.00    -0.268 OA
HETATM    4  H   UNL     1     -42.517  56.412 -52.398  1.00  0.00     0.162 HD
ENDROOT
BRANCH   2   5
HETATM    5  C   UNL     1     -44.095  58.345 -52.247  1.00  0.00     0.080 A 
HETATM    6  C   UNL     1     -42.996  59.226 -52.513  1.00  0.00     0.104 A 
HETATM    7  N   UNL     1     -43.349  60.161 -53.415  1.00  0.00    -0.174 NA
HETATM    8  N   UNL     1     -44.627  59.900 -53.703  1.00  0.00    -0.288 N 
HETATM    9  H   UNL     1     -45.094  60.491 -54.383  1.00  0.00     0.188 HD
HETATM   10  C   UNL     1     -45.131  58.837 -53.023  1.00  0.00     0.128 A 
BRANCH   6  11
HETATM   11  C   UNL     1     -41.649  59.247 -51.935  1.00  0.00    -0.004 A 
HETATM   12  C   UNL     1     -40.541  58.902 -52.729  1.00  0.00     0.017 A 
HETATM   13  C   UNL     1     -39.246  58.945 -52.206  1.00  0.00     0.043 A 
HETATM   14  C   UNL     1     -39.054  59.337 -50.889  1.00  0.00     0.116 A 
HETATM   15  F   UNL     1     -37.813  59.384 -50.386  1.00  0.00    -0.206 F 
HETATM   16  C   UNL     1     -40.131  59.691 -50.085  1.00  0.00     0.043 A 
HETATM   17  C   UNL     1     -41.427  59.652 -50.610  1.00  0.00     0.017 A 
ENDBRANCH   6  11
ENDBRANCH   2   5
BRANCH   1  18
HETATM   18  C   UNL     1     -43.056  55.006 -50.893  1.00  0.00     0.165 C 
BRANCH  18  19
HETATM   19  C   UNL     1     -41.640  54.597 -50.377  1.00  0.00     0.097 C 
HETATM   20  C   UNL     1     -40.765  55.855 -50.261  1.00  0.00     0.053 C 
BRANCH  19  21
HETATM   21  C   UNL     1     -40.965  53.573 -51.296  1.00  0.00    -0.023 A 
HETATM   22  C   UNL     1     -41.040  53.696 -52.698  1.00  0.00     0.013 A 
HETATM   23  C   UNL     1     -40.427  52.760 -53.535  1.00  0.00     0.043 A 
HETATM   24  C   UNL     1     -39.732  51.694 -52.981  1.00  0.00     0.116 A 
HETATM   25  F   UNL     1     -39.144  50.799 -53.786  1.00  0.00    -0.206 F 
HETATM   26  C   UNL     1     -39.636  51.546 -51.605  1.00  0.00     0.043 A 
HETATM   27  C   UNL     1     -40.248  52.483 -50.768  1.00  0.00     0.013 A 
ENDBRANCH  19  21
BRANCH  19  28
HETATM   28  O   UNL     1     -41.717  54.068 -49.044  1.00  0.00    -0.384 OA
HETATM   29  H   UNL     1     -41.372  53.150 -49.048  1.00  0.00     0.211 HD
ENDBRANCH  19  28
ENDBRANCH  18  19
ENDBRANCH   1  18
TORSDOF 6
ENDMDL
MODEL 6
REMARK VINA RESULT:      -7.4      3.763      7.494
REMARK  6 active torsions:
REMARK  status: ('A' for Active; 'I' for Inactive)
REMARK    1  A    between atoms: C_2  and  C_4 
REMARK    2  A    between atoms: C_2  and  C_11 
REMARK    3  A    between atoms: C_2  and  O_3 
REMARK    4  A    between atoms: C_11  and  N_12 
REMARK       I    between atoms: N_12  and  C_13 
REMARK    5  A    between atoms: C_13  and  C_14 
REMARK    6  A    between atoms: C_15  and  C_16 
ROOT
HETATM    1  N   UNL     1     -41.304  56.842 -54.044  1.00  0.00    -0.354 N 
HETATM    2  C   UNL     1     -42.428  57.634 -54.124  1.00  0.00     0.255 C 
HETATM    3  O   UNL     1     -43.473  57.330 -53.556  1.00  0.00    -0.268 OA
HETATM    4  H   UNL     1     -40.561  57.012 -54.710  1.00  0.00     0.162 HD
ENDROOT
BRANCH   2   5
HETATM    5  C   UNL     1     -42.276  58.813 -54.954  1.00  0.00     0.080 A 
HETATM    6  C   UNL     1     -42.384  58.943 -56.377  1.00  0.00     0.104 A 
HETATM    7  N   UNL     1     -42.243  60.231 -56.745  1.00  0.00    -0.174 NA
HETATM    8  N   UNL     1     -42.037  60.896 -55.605  1.00  0.00    -0.288 N 
HETATM    9  H   UNL     1     -41.914  61.902 -55.655  1.00  0.00     0.188 HD
HETATM   10  C   UNL     1     -42.030  60.099 -54.504  1.00  0.00     0.128 A 
BRANCH   6  11
HETATM   11  C   UNL     1     -42.579  57.912 -57.402  1.00  0.00    -0.004 A 
HETATM   12  C   UNL     1     -43.319  56.756 -57.100  1.00  0.00     0.017 A 
HETATM   13  C   UNL     1     -43.543  55.777 -58.071  1.00  0.00     0.043 A 
HETATM   14  C   UNL     1     -43.029  55.952 -59.349  1.00  0.00     0.116 A 
HETATM   15  F   UNL     1     -43.245  55.016 -60.283  1.00  0.00    -0.206 F 
HETATM   16  C   UNL     1     -42.300  57.090 -59.675  1.00  0.00     0.043 A 
HETATM   17  C   UNL     1     -42.081  58.072 -58.704  1.00  0.00     0.017 A 
ENDBRANCH   6  11
ENDBRANCH   2   5
BRANCH   1  18
HETATM   18  C   UNL     1     -41.319  55.563 -53.346  1.00  0.00     0.165 C 
BRANCH  18  19
HETATM   19  C   UNL     1     -41.081  54.323 -54.265  1.00  0.00     0.097 C 
HETATM   20  C   UNL     1     -42.406  53.938 -54.943  1.00  0.00     0.053 C 
BRANCH  19  21
HETATM   21  C   UNL     1     -40.526  53.126 -53.485  1.00  0.00    -0.023 A 
HETATM   22  C   UNL     1     -40.189  51.925 -54.142  1.00  0.00     0.013 A 
HETATM   23  C   UNL     1     -39.686  50.833 -53.430  1.00  0.00     0.043 A 
HETATM   24  C   UNL     1     -39.511  50.931 -52.056  1.00  0.00     0.116 A 
HETATM   25  F   UNL     1     -39.027  49.883 -51.376  1.00  0.00    -0.206 F 
HETATM   26  C   UNL     1     -39.828  52.100 -51.380  1.00  0.00     0.043 A 
HETATM   27  C   UNL     1     -40.330  53.192 -52.093  1.00  0.00     0.013 A 
ENDBRANCH  19  21
BRANCH  19  28
HETATM   28  O   UNL     1     -40.189  54.650 -55.342  1.00  0.00    -0.384 OA
HETATM   29  H   UNL     1     -39.610  53.878 -55.517  1.00  0.00     0.211 HD
ENDBRANCH  19  28
ENDBRANCH  18  19
ENDBRANCH   1  18
TORSDOF 6
ENDMDL
MODEL 7
REMARK VINA RESULT:      -7.4      3.921      5.878
REMARK  6 active torsions:
REMARK  status: ('A' for Active; 'I' for Inactive)
REMARK    1  A    between atoms: C_2  and  C_4 
REMARK    2  A    between atoms: C_2  and  C_11 
REMARK    3  A    between atoms: C_2  and  O_3 
REMARK    4  A    between atoms: C_11  and  N_12 
REMARK       I    between atoms: N_12  and  C_13 
REMARK    5  A    between atoms: C_13  and  C_14 
REMARK    6  A    between atoms: C_15  and  C_16 
ROOT
HETATM    1  N   UNL     1     -43.109  56.974 -54.346  1.00  0.00    -0.354 N 
HETATM    2  C   UNL     1     -43.243  55.864 -53.540  1.00  0.00     0.255 C 
HETATM    3  O   UNL     1     -43.948  54.913 -53.864  1.00  0.00    -0.268 OA
HETATM    4  H   UNL     1     -42.716  57.809 -53.933  1.00  0.00     0.162 HD
ENDROOT
BRANCH   2   5
HETATM    5  C   UNL     1     -42.520  55.940 -52.286  1.00  0.00     0.080 A 
HETATM    6  C   UNL     1     -41.430  55.138 -51.816  1.00  0.00     0.104 A 
HETATM    7  N   UNL     1     -40.997  55.584 -50.621  1.00  0.00    -0.174 NA
HETATM    8  N   UNL     1     -41.789  56.619 -50.331  1.00  0.00    -0.288 N 
HETATM    9  H   UNL     1     -41.625  57.116 -49.461  1.00  0.00     0.188 HD
HETATM   10  C   UNL     1     -42.728  56.868 -51.281  1.00  0.00     0.128 A 
BRANCH   6  11
HETATM   11  C   UNL     1     -40.803  53.958 -52.421  1.00  0.00    -0.004 A 
HETATM   12  C   UNL     1     -40.333  52.917 -51.601  1.00  0.00     0.017 A 
HETATM   13  C   UNL     1     -39.762  51.770 -52.159  1.00  0.00     0.043 A 
HETATM   14  C   UNL     1     -39.660  51.661 -53.539  1.00  0.00     0.116 A 
HETATM   15  F   UNL     1     -39.116  50.560 -54.077  1.00  0.00    -0.206 F 
HETATM   16  C   UNL     1     -40.124  52.672 -54.372  1.00  0.00     0.043 A 
HETATM   17  C   UNL     1     -40.700  53.817 -53.814  1.00  0.00     0.017 A 
ENDBRANCH   6  11
ENDBRANCH   2   5
BRANCH   1  18
HETATM   18  C   UNL     1     -43.859  57.110 -55.588  1.00  0.00     0.165 C 
BRANCH  18  19
HETATM   19  C   UNL     1     -42.978  57.102 -56.878  1.00  0.00     0.097 C 
HETATM   20  C   UNL     1     -42.393  58.507 -57.096  1.00  0.00     0.053 C 
BRANCH  19  21
HETATM   21  C   UNL     1     -43.772  56.668 -58.115  1.00  0.00    -0.023 A 
HETATM   22  C   UNL     1     -44.877  57.418 -58.568  1.00  0.00     0.013 A 
HETATM   23  C   UNL     1     -45.602  57.019 -59.694  1.00  0.00     0.043 A 
HETATM   24  C   UNL     1     -45.230  55.872 -60.380  1.00  0.00     0.116 A 
HETATM   25  F   UNL     1     -45.927  55.493 -61.460  1.00  0.00    -0.206 F 
HETATM   26  C   UNL     1     -44.146  55.114 -59.963  1.00  0.00     0.043 A 
HETATM   27  C   UNL     1     -43.420  55.513 -58.838  1.00  0.00     0.013 A 
ENDBRANCH  19  21
BRANCH  19  28
HETATM   28  O   UNL     1     -41.840  56.242 -56.713  1.00  0.00    -0.384 OA
HETATM   29  H   UNL     1     -42.153  55.349 -56.458  1.00  0.00     0.211 HD
ENDBRANCH  19  28
ENDBRANCH  18  19
ENDBRANCH   1  18
TORSDOF 6
ENDMDL
MODEL 8
REMARK VINA RESULT:      -7.4      2.886      6.080
REMARK  6 active torsions:
REMARK  status: ('A' for Active; 'I' for Inactive)
REMARK    1  A    between atoms: C_2  and  C_4 
REMARK    2  A    between atoms: C_2  and  C_11 
REMARK    3  A    between atoms: C_2  and  O_3 
REMARK    4  A    between atoms: C_11  and  N_12 
REMARK       I    between atoms: N_12  and  C_13 
REMARK    5  A    between atoms: C_13  and  C_14 
REMARK    6  A    between atoms: C_15  and  C_16 
ROOT
HETATM    1  N   UNL     1     -43.047  56.326 -54.491  1.00  0.00    -0.354 N 
HETATM    2  C   UNL     1     -43.847  57.360 -54.924  1.00  0.00     0.255 C 
HETATM    3  O   UNL     1     -45.069  57.315 -54.826  1.00  0.00    -0.268 OA
HETATM    4  H   UNL     1     -42.085  56.312 -54.806  1.00  0.00     0.162 HD
ENDROOT
BRANCH   2   5
HETATM    5  C   UNL     1     -43.128  58.465 -55.528  1.00  0.00     0.080 A 
HETATM    6  C   UNL     1     -42.150  59.337 -54.949  1.00  0.00     0.104 A 
HETATM    7  N   UNL     1     -41.672  60.192 -55.874  1.00  0.00    -0.174 NA
HETATM    8  N   UNL     1     -42.331  59.889 -56.996  1.00  0.00    -0.288 N 
HETATM    9  H   UNL     1     -42.111  60.417 -57.835  1.00  0.00     0.188 HD
HETATM   10  C   UNL     1     -43.225  58.877 -56.846  1.00  0.00     0.128 A 
BRANCH   6  11
HETATM   11  C   UNL     1     -41.671  59.425 -53.565  1.00  0.00    -0.004 A 
HETATM   12  C   UNL     1     -42.451  60.078 -52.595  1.00  0.00     0.017 A 
HETATM   13  C   UNL     1     -42.028  60.145 -51.265  1.00  0.00     0.043 A 
HETATM   14  C   UNL     1     -40.825  59.555 -50.900  1.00  0.00     0.116 A 
HETATM   15  F   UNL     1     -40.419  59.615 -49.625  1.00  0.00    -0.206 F 
HETATM   16  C   UNL     1     -40.040  58.897 -51.839  1.00  0.00     0.043 A 
HETATM   17  C   UNL     1     -40.465  58.826 -53.168  1.00  0.00     0.017 A 
ENDBRANCH   6  11
ENDBRANCH   2   5
BRANCH   1  18
HETATM   18  C   UNL     1     -43.614  55.091 -53.965  1.00  0.00     0.165 C 
BRANCH  18  19
HETATM   19  C   UNL     1     -42.973  54.605 -52.627  1.00  0.00     0.097 C 
HETATM   20  C   UNL     1     -42.455  55.822 -51.845  1.00  0.00     0.053 C 
BRANCH  19  21
HETATM   21  C   UNL     1     -41.830  53.611 -52.863  1.00  0.00    -0.023 A 
HETATM   22  C   UNL     1     -41.609  53.049 -54.137  1.00  0.00     0.013 A 
HETATM   23  C   UNL     1     -40.569  52.141 -54.351  1.00  0.00     0.043 A 
HETATM   24  C   UNL     1     -39.738  51.787 -53.297  1.00  0.00     0.116 A 
HETATM   25  F   UNL     1     -38.741  50.917 -53.506  1.00  0.00    -0.206 F 
HETATM   26  C   UNL     1     -39.926  52.324 -52.032  1.00  0.00     0.043 A 
HETATM   27  C   UNL     1     -40.965  53.234 -51.819  1.00  0.00     0.013 A 
ENDBRANCH  19  21
BRANCH  19  28
HETATM   28  O   UNL     1     -43.961  54.004 -51.776  1.00  0.00    -0.384 OA
HETATM   29  H   UNL     1     -43.660  53.105 -51.526  1.00  0.00     0.211 HD
ENDBRANCH  19  28
ENDBRANCH  18  19
ENDBRANCH   1  18
TORSDOF 6
ENDMDL
MODEL 9
REMARK VINA RESULT:      -7.3      2.296      5.541
REMARK  6 active torsions:
REMARK  status: ('A' for Active; 'I' for Inactive)
REMARK    1  A    between atoms: C_2  and  C_4 
REMARK    2  A    between atoms: C_2  and  C_11 
REMARK    3  A    between atoms: C_2  and  O_3 
REMARK    4  A    between atoms: C_11  and  N_12 
REMARK       I    between atoms: N_12  and  C_13 
REMARK    5  A    between atoms: C_13  and  C_14 
REMARK    6  A    between atoms: C_15  and  C_16 
ROOT
HETATM    1  N   UNL     1     -43.310  55.314 -53.971  1.00  0.00    -0.354 N 
HETATM    2  C   UNL     1     -43.309  56.244 -54.987  1.00  0.00     0.255 C 
HETATM    3  O   UNL     1     -42.719  56.043 -56.044  1.00  0.00    -0.268 OA
HETATM    4  H   UNL     1     -43.604  55.622 -53.053  1.00  0.00     0.162 HD
ENDROOT
BRANCH   2   5
HETATM    5  C   UNL     1     -44.023  57.469 -54.684  1.00  0.00     0.080 A 
HETATM    6  C   UNL     1     -43.622  58.575 -53.865  1.00  0.00     0.104 A 
HETATM    7  N   UNL     1     -44.550  59.550 -53.903  1.00  0.00    -0.174 NA
HETATM    8  N   UNL     1     -45.513  59.080 -54.700  1.00  0.00    -0.288 N 
HETATM    9  H   UNL     1     -46.319  59.673 -54.876  1.00  0.00     0.188 HD
HETATM   10  C   UNL     1     -45.261  57.835 -55.183  1.00  0.00     0.128 A 
BRANCH   6  11
HETATM   11  C   UNL     1     -42.429  58.740 -53.028  1.00  0.00    -0.004 A 
HETATM   12  C   UNL     1     -41.151  58.621 -53.601  1.00  0.00     0.017 A 
HETATM   13  C   UNL     1     -40.002  58.805 -52.827  1.00  0.00     0.043 A 
HETATM   14  C   UNL     1     -40.128  59.114 -51.480  1.00  0.00     0.116 A 
HETATM   15  F   UNL     1     -39.027  59.295 -50.737  1.00  0.00    -0.206 F 
HETATM   16  C   UNL     1     -41.380  59.245 -50.892  1.00  0.00     0.043 A 
HETATM   17  C   UNL     1     -42.530  59.065 -51.667  1.00  0.00     0.017 A 
ENDBRANCH   6  11
ENDBRANCH   2   5
BRANCH   1  18
HETATM   18  C   UNL     1     -42.545  54.077 -54.066  1.00  0.00     0.165 C 
BRANCH  18  19
HETATM   19  C   UNL     1     -41.073  54.188 -53.558  1.00  0.00     0.097 C 
HETATM   20  C   UNL     1     -40.289  52.948 -54.014  1.00  0.00     0.053 C 
BRANCH  19  21
HETATM   21  C   UNL     1     -40.999  54.322 -52.032  1.00  0.00    -0.023 A 
HETATM   22  C   UNL     1     -40.669  53.217 -51.222  1.00  0.00     0.013 A 
HETATM   23  C   UNL     1     -40.605  53.339 -49.832  1.00  0.00     0.043 A 
HETATM   24  C   UNL     1     -40.867  54.565 -49.237  1.00  0.00     0.116 A 
HETATM   25  F   UNL     1     -40.803  54.679 -47.904  1.00  0.00    -0.206 F 
HETATM   26  C   UNL     1     -41.190  55.674 -50.006  1.00  0.00     0.043 A 
HETATM   27  C   UNL     1     -41.253  55.552 -51.396  1.00  0.00     0.013 A 
ENDBRANCH  19  21
BRANCH  19  28
HETATM   28  O   UNL     1     -40.405  55.303 -54.170  1.00  0.00    -0.384 OA
HETATM   29  H   UNL     1     -40.704  56.128 -53.734  1.00  0.00     0.211 HD
ENDBRANCH  19  28
ENDBRANCH  18  19
ENDBRANCH   1  18
TORSDOF 6
ENDMDL
MODEL 10
REMARK VINA RESULT:      -7.3      3.505      6.963
REMARK  6 active torsions:
REMARK  status: ('A' for Active; 'I' for Inactive)
REMARK    1  A    between atoms: C_2  and  C_4 
REMARK    2  A    between atoms: C_2  and  C_11 
REMARK    3  A    between atoms: C_2  and  O_3 
REMARK    4  A    between atoms: C_11  and  N_12 
REMARK       I    between atoms: N_12  and  C_13 
REMARK    5  A    between atoms: C_13  and  C_14 
REMARK    6  A    between atoms: C_15  and  C_16 
ROOT
HETATM    1  N   UNL     1     -41.497  55.597 -50.880  1.00  0.00    -0.354 N 
HETATM    2  C   UNL     1     -42.513  56.516 -51.032  1.00  0.00     0.255 C 
HETATM    3  O   UNL     1     -43.668  56.261 -50.705  1.00  0.00    -0.268 OA
HETATM    4  H   UNL     1     -40.632  55.768 -51.374  1.00  0.00     0.162 HD
ENDROOT
BRANCH   2   5
HETATM    5  C   UNL     1     -42.106  57.769 -51.636  1.00  0.00     0.080 A 
HETATM    6  C   UNL     1     -42.060  58.139 -53.020  1.00  0.00     0.104 A 
HETATM    7  N   UNL     1     -41.690  59.427 -53.153  1.00  0.00    -0.174 NA
HETATM    8  N   UNL     1     -41.490  59.859 -51.905  1.00  0.00    -0.288 N 
HETATM    9  H   UNL     1     -41.209  60.826 -51.774  1.00  0.00     0.188 HD
HETATM   10  C   UNL     1     -41.707  58.909 -50.958  1.00  0.00     0.128 A 
BRANCH   6  11
HETATM   11  C   UNL     1     -42.316  57.330 -54.217  1.00  0.00    -0.004 A 
HETATM   12  C   UNL     1     -43.285  57.744 -55.147  1.00  0.00     0.017 A 
HETATM   13  C   UNL     1     -43.522  57.004 -56.309  1.00  0.00     0.043 A 
HETATM   14  C   UNL     1     -42.788  55.850 -56.545  1.00  0.00     0.116 A 
HETATM   15  F   UNL     1     -43.010  55.141 -57.660  1.00  0.00    -0.206 F 
HETATM   16  C   UNL     1     -41.818  55.424 -55.645  1.00  0.00     0.043 A 
HETATM   17  C   UNL     1     -41.578  56.166 -54.485  1.00  0.00     0.017 A 
ENDBRANCH   6  11
ENDBRANCH   2   5
BRANCH   1  18
HETATM   18  C   UNL     1     -41.755  54.248 -50.395  1.00  0.00     0.165 C 
BRANCH  18  19
HETATM   19  C   UNL     1     -40.478  53.363 -50.238  1.00  0.00     0.097 C 
HETATM   20  C   UNL     1     -39.267  54.272 -49.975  1.00  0.00     0.053 C 
BRANCH  19  21
HETATM   21  C   UNL     1     -40.222  52.496 -51.476  1.00  0.00    -0.023 A 
HETATM   22  C   UNL     1     -39.738  51.178 -51.351  1.00  0.00     0.013 A 
HETATM   23  C   UNL     1     -39.503  50.389 -52.480  1.00  0.00     0.043 A 
HETATM   24  C   UNL     1     -39.750  50.907 -53.743  1.00  0.00     0.116 A 
HETATM   25  F   UNL     1     -39.525  50.148 -54.824  1.00  0.00    -0.206 F 
HETATM   26  C   UNL     1     -40.230  52.199 -53.901  1.00  0.00     0.043 A 
HETATM   27  C   UNL     1     -40.467  52.987 -52.772  1.00  0.00     0.013 A 
ENDBRANCH  19  21
BRANCH  19  28
HETATM   28  O   UNL     1     -40.578  52.524 -49.077  1.00  0.00    -0.384 OA
HETATM   29  H   UNL     1     -40.749  51.603 -49.367  1.00  0.00     0.211 HD
ENDBRANCH  19  28
ENDBRANCH  18  19
ENDBRANCH   1  18
TORSDOF 6
ENDMDL
