MODEL 1
REMARK VINA RESULT:      -8.2      0.000      0.000
REMARK  9 active torsions:
REMARK  status: ('A' for Active; 'I' for Inactive)
REMARK    1  A    between atoms: C_2  and  C_3 
REMARK    2  A    between atoms: C_3  and  C_4 
REMARK    3  A    between atoms: C_4  and  N_5 
REMARK    4  A    between atoms: C_14  and  C_15 
REMARK    5  A    between atoms: C_15  and  C_16 
REMARK    6  A    between atoms: C_16  and  C_17 
REMARK       I    between atoms: C_17  and  N_18 
REMARK    7  A    between atoms: N_18  and  C_19 
REMARK    8  A    between atoms: N_32  and  C_33 
REMARK    9  A    between atoms: C_33  and  C_34 
ROOT
HETATM    1  N   UNL     1     -40.736  53.760 -50.905  1.00  0.00    -0.282 N 
HETATM    2  C   UNL     1     -40.264  54.487 -49.814  1.00  0.00     0.331 A 
HETATM    3  O   UNL     1     -39.590  54.003 -48.906  1.00  0.00    -0.246 OA
HETATM    4  N   UNL     1     -40.565  55.834 -49.776  1.00  0.00    -0.273 N 
HETATM    5  C   UNL     1     -41.272  56.562 -50.706  1.00  0.00     0.280 A 
HETATM    6  O   UNL     1     -41.434  57.771 -50.606  1.00  0.00    -0.265 OA
HETATM    7  C   UNL     1     -41.738  55.759 -51.786  1.00  0.00     0.151 A 
HETATM    8  C   UNL     1     -41.458  54.426 -51.874  1.00  0.00     0.168 A 
HETATM    9  N   UNL     1     -41.950  53.886 -53.017  1.00  0.00    -0.215 NA
HETATM   10  C   UNL     1     -42.641  54.856 -53.595  1.00  0.00     0.109 A 
HETATM   11  N   UNL     1     -42.515  56.038 -52.881  1.00  0.00    -0.327 N 
HETATM   12  H   UNL     1     -40.214  56.340 -48.976  1.00  0.00     0.173 HD
ENDROOT
BRANCH  10  13
HETATM   13  C   UNL     1     -43.435  54.703 -54.859  1.00  0.00     0.088 C 
BRANCH  13  14
HETATM   14  C   UNL     1     -42.611  54.997 -56.113  1.00  0.00     0.110 C 
BRANCH  14  15
HETATM   15  C   UNL     1     -42.901  56.365 -56.703  1.00  0.00     0.218 C 
HETATM   16  N   UNL     1     -44.050  56.448 -57.463  1.00  0.00    -0.356 N 
HETATM   17  H   UNL     1     -44.691  55.671 -57.270  1.00  0.00     0.162 HD
HETATM   18  O   UNL     1     -42.139  57.309 -56.528  1.00  0.00    -0.274 OA
BRANCH  16  19
HETATM   19  C   UNL     1     -44.691  57.694 -57.869  1.00  0.00     0.089 C 
HETATM   20  C   UNL     1     -45.980  57.414 -58.656  1.00  0.00     0.063 C 
HETATM   21  C   UNL     1     -45.779  57.042 -60.136  1.00  0.00     0.121 C 
HETATM   22  C   UNL     1     -45.313  55.599 -60.350  1.00  0.00     0.046 C 
HETATM   23  C   UNL     1     -47.117  57.208 -60.886  1.00  0.00     0.046 C 
HETATM   24  N   UNL     1     -44.815  58.005 -60.796  1.00  0.00    -0.059 N 
HETATM   25  H   UNL     1     -45.335  58.875 -60.982  1.00  0.00     0.279 HD
HETATM   26  H   UNL     1     -44.573  57.652 -61.732  1.00  0.00     0.279 HD
HETATM   27  C   UNL     1     -43.536  58.407 -60.085  1.00  0.00     0.121 C 
HETATM   28  C   UNL     1     -43.045  59.689 -60.795  1.00  0.00     0.046 C 
HETATM   29  C   UNL     1     -42.463  57.337 -60.290  1.00  0.00     0.046 C 
HETATM   30  C   UNL     1     -43.861  58.740 -58.626  1.00  0.00     0.063 C 
ENDBRANCH  16  19
ENDBRANCH  14  15
ENDBRANCH  13  14
ENDBRANCH  10  13
BRANCH  11  31
HETATM   31  C   UNL     1     -43.051  57.334 -53.258  1.00  0.00     0.134 C 
BRANCH  31  32
HETATM   32  C   UNL     1     -44.571  57.468 -53.078  1.00  0.00    -0.004 C 
HETATM   33  C   UNL     1     -44.935  58.108 -51.738  1.00  0.00     0.011 C 
HETATM   34  C   UNL     1     -45.149  58.298 -54.225  1.00  0.00     0.011 C 
ENDBRANCH  31  32
ENDBRANCH  11  31
BRANCH   1  35
HETATM   35  C   UNL     1     -40.542  52.314 -50.957  1.00  0.00     0.135 C 
BRANCH  35  36
HETATM   36  C   UNL     1     -39.352  51.874 -51.812  1.00  0.00     0.020 C 
BRANCH  36  37
HETATM   37  C   UNL     1     -39.673  50.688 -52.721  1.00  0.00    -0.003 C 
HETATM   38  C   UNL     1     -40.025  51.154 -54.125  1.00  0.00     0.005 C 
ENDBRANCH  36  37
ENDBRANCH  35  36
ENDBRANCH   1  35
TORSDOF 9
ENDMDL
MODEL 2
REMARK VINA RESULT:      -8.2      1.469      4.311
REMARK  9 active torsions:
REMARK  status: ('A' for Active; 'I' for Inactive)
REMARK    1  A    between atoms: C_2  and  C_3 
REMARK    2  A    between atoms: C_3  and  C_4 
REMARK    3  A    between atoms: C_4  and  N_5 
REMARK    4  A    between atoms: C_14  and  C_15 
REMARK    5  A    between atoms: C_15  and  C_16 
REMARK    6  A    between atoms: C_16  and  C_17 
REMARK       I    between atoms: C_17  and  N_18 
REMARK    7  A    between atoms: N_18  and  C_19 
REMARK    8  A    between atoms: N_32  and  C_33 
REMARK    9  A    between atoms: C_33  and  C_34 
ROOT
HETATM    1  N   UNL     1     -42.523  58.598 -51.778  1.00  0.00    -0.282 N 
HETATM    2  C   UNL     1     -41.771  58.824 -50.627  1.00  0.00     0.331 A 
HETATM    3  O   UNL     1     -41.600  59.933 -50.125  1.00  0.00    -0.246 OA
HETATM    4  N   UNL     1     -41.208  57.721 -50.017  1.00  0.00    -0.273 N 
HETATM    5  C   UNL     1     -41.311  56.404 -50.403  1.00  0.00     0.280 A 
HETATM    6  O   UNL     1     -40.818  55.490 -49.754  1.00  0.00    -0.265 OA
HETATM    7  C   UNL     1     -42.079  56.244 -51.592  1.00  0.00     0.151 A 
HETATM    8  C   UNL     1     -42.664  57.301 -52.226  1.00  0.00     0.168 A 
HETATM    9  N   UNL     1     -43.395  56.901 -53.297  1.00  0.00    -0.215 NA
HETATM   10  C   UNL     1     -43.174  55.600 -53.405  1.00  0.00     0.109 A 
HETATM   11  N   UNL     1     -42.387  55.148 -52.357  1.00  0.00    -0.327 N 
HETATM   12  H   UNL     1     -40.666  57.908 -49.185  1.00  0.00     0.173 HD
ENDROOT
BRANCH  10  13
HETATM   13  C   UNL     1     -43.717  54.730 -54.501  1.00  0.00     0.088 C 
BRANCH  13  14
HETATM   14  C   UNL     1     -42.862  54.771 -55.766  1.00  0.00     0.110 C 
BRANCH  14  15
HETATM   15  C   UNL     1     -42.871  56.130 -56.443  1.00  0.00     0.218 C 
HETATM   16  N   UNL     1     -43.984  56.397 -57.213  1.00  0.00    -0.356 N 
HETATM   17  H   UNL     1     -44.769  55.780 -56.976  1.00  0.00     0.162 HD
HETATM   18  O   UNL     1     -41.933  56.908 -56.322  1.00  0.00    -0.274 OA
BRANCH  16  19
HETATM   19  C   UNL     1     -44.362  57.720 -57.700  1.00  0.00     0.089 C 
HETATM   20  C   UNL     1     -45.681  57.657 -58.485  1.00  0.00     0.063 C 
HETATM   21  C   UNL     1     -45.559  57.164 -59.937  1.00  0.00     0.121 C 
HETATM   22  C   UNL     1     -45.392  55.646 -60.060  1.00  0.00     0.046 C 
HETATM   23  C   UNL     1     -46.837  57.550 -60.713  1.00  0.00     0.046 C 
HETATM   24  N   UNL     1     -44.421  57.872 -60.641  1.00  0.00    -0.059 N 
HETATM   25  H   UNL     1     -44.755  58.816 -60.885  1.00  0.00     0.279 HD
HETATM   26  H   UNL     1     -44.255  57.422 -61.552  1.00  0.00     0.279 HD
HETATM   27  C   UNL     1     -43.087  58.051 -59.940  1.00  0.00     0.121 C 
HETATM   28  C   UNL     1     -42.348  59.163 -60.719  1.00  0.00     0.046 C 
HETATM   29  C   UNL     1     -42.252  56.777 -60.068  1.00  0.00     0.046 C 
HETATM   30  C   UNL     1     -43.338  58.530 -58.507  1.00  0.00     0.063 C 
ENDBRANCH  16  19
ENDBRANCH  14  15
ENDBRANCH  13  14
ENDBRANCH  10  13
BRANCH  11  31
HETATM   31  C   UNL     1     -42.016  53.770 -52.088  1.00  0.00     0.134 C 
BRANCH  31  32
HETATM   32  C   UNL     1     -40.593  53.398 -52.530  1.00  0.00    -0.004 C 
HETATM   33  C   UNL     1     -39.860  52.577 -51.468  1.00  0.00     0.011 C 
HETATM   34  C   UNL     1     -40.653  52.617 -53.843  1.00  0.00     0.011 C 
ENDBRANCH  31  32
ENDBRANCH  11  31
BRANCH   1  35
HETATM   35  C   UNL     1     -43.061  59.729 -52.530  1.00  0.00     0.135 C 
BRANCH  35  36
HETATM   36  C   UNL     1     -42.109  60.282 -53.592  1.00  0.00     0.020 C 
BRANCH  36  37
HETATM   37  C   UNL     1     -42.643  60.124 -55.015  1.00  0.00    -0.003 C 
HETATM   38  C   UNL     1     -44.162  60.170 -55.040  1.00  0.00     0.005 C 
ENDBRANCH  36  37
ENDBRANCH  35  36
ENDBRANCH   1  35
TORSDOF 9
ENDMDL
MODEL 3
REMARK VINA RESULT:      -8.0      1.575      2.874
REMARK  9 active torsions:
REMARK  status: ('A' for Active; 'I' for Inactive)
REMARK    1  A    between atoms: C_2  and  C_3 
REMARK    2  A    between atoms: C_3  and  C_4 
REMARK    3  A    between atoms: C_4  and  N_5 
REMARK    4  A    between atoms: C_14  and  C_15 
REMARK    5  A    between atoms: C_15  and  C_16 
REMARK    6  A    between atoms: C_16  and  C_17 
REMARK       I    between atoms: C_17  and  N_18 
REMARK    7  A    between atoms: N_18  and  C_19 
REMARK    8  A    between atoms: N_32  and  C_33 
REMARK    9  A    between atoms: C_33  and  C_34 
ROOT
HETATM    1  N   UNL     1     -40.219  53.195 -52.603  1.00  0.00    -0.282 N 
HETATM    2  C   UNL     1     -40.137  52.648 -51.324  1.00  0.00     0.331 A 
HETATM    3  O   UNL     1     -39.655  51.543 -51.078  1.00  0.00    -0.246 OA
HETATM    4  N   UNL     1     -40.614  53.415 -50.279  1.00  0.00    -0.273 N 
HETATM    5  C   UNL     1     -41.155  54.678 -50.345  1.00  0.00     0.280 A 
HETATM    6  O   UNL     1     -41.495  55.298 -49.345  1.00  0.00    -0.265 OA
HETATM    7  C   UNL     1     -41.224  55.172 -51.679  1.00  0.00     0.151 A 
HETATM    8  C   UNL     1     -40.757  54.457 -52.743  1.00  0.00     0.168 A 
HETATM    9  N   UNL     1     -40.870  55.153 -53.902  1.00  0.00    -0.215 NA
HETATM   10  C   UNL     1     -41.516  56.263 -53.583  1.00  0.00     0.109 A 
HETATM   11  N   UNL     1     -41.732  56.328 -52.214  1.00  0.00    -0.327 N 
HETATM   12  H   UNL     1     -40.545  52.998 -49.362  1.00  0.00     0.173 HD
ENDROOT
BRANCH  10  13
HETATM   13  C   UNL     1     -41.940  57.317 -54.564  1.00  0.00     0.088 C 
BRANCH  13  14
HETATM   14  C   UNL     1     -43.332  57.061 -55.141  1.00  0.00     0.110 C 
BRANCH  14  15
HETATM   15  C   UNL     1     -43.294  56.339 -56.476  1.00  0.00     0.218 C 
HETATM   16  N   UNL     1     -43.947  56.979 -57.511  1.00  0.00    -0.356 N 
HETATM   17  H   UNL     1     -44.096  57.973 -57.310  1.00  0.00     0.162 HD
HETATM   18  O   UNL     1     -42.741  55.253 -56.598  1.00  0.00    -0.274 OA
BRANCH  16  19
HETATM   19  C   UNL     1     -43.791  56.649 -58.924  1.00  0.00     0.089 C 
HETATM   20  C   UNL     1     -43.251  57.853 -59.710  1.00  0.00     0.063 C 
HETATM   21  C   UNL     1     -44.295  58.921 -60.080  1.00  0.00     0.121 C 
HETATM   22  C   UNL     1     -44.682  59.833 -58.912  1.00  0.00     0.046 C 
HETATM   23  C   UNL     1     -43.726  59.820 -61.197  1.00  0.00     0.046 C 
HETATM   24  N   UNL     1     -45.530  58.269 -60.664  1.00  0.00    -0.059 N 
HETATM   25  H   UNL     1     -45.306  58.010 -61.636  1.00  0.00     0.279 HD
HETATM   26  H   UNL     1     -46.272  58.977 -60.759  1.00  0.00     0.279 HD
HETATM   27  C   UNL     1     -46.121  57.034 -60.011  1.00  0.00     0.121 C 
HETATM   28  C   UNL     1     -47.042  56.394 -61.073  1.00  0.00     0.046 C 
HETATM   29  C   UNL     1     -47.005  57.437 -58.829  1.00  0.00     0.046 C 
HETATM   30  C   UNL     1     -44.989  56.057 -59.680  1.00  0.00     0.063 C 
ENDBRANCH  16  19
ENDBRANCH  14  15
ENDBRANCH  13  14
ENDBRANCH  10  13
BRANCH  11  31
HETATM   31  C   UNL     1     -42.323  57.436 -51.486  1.00  0.00     0.134 C 
BRANCH  31  32
HETATM   32  C   UNL     1     -41.507  58.736 -51.537  1.00  0.00    -0.004 C 
HETATM   33  C   UNL     1     -42.354  59.959 -51.184  1.00  0.00     0.011 C 
HETATM   34  C   UNL     1     -40.319  58.632 -50.580  1.00  0.00     0.011 C 
ENDBRANCH  31  32
ENDBRANCH  11  31
BRANCH   1  35
HETATM   35  C   UNL     1     -39.828  52.398 -53.763  1.00  0.00     0.135 C 
BRANCH  35  36
HETATM   36  C   UNL     1     -40.978  51.614 -54.398  1.00  0.00     0.020 C 
BRANCH  36  37
HETATM   37  C   UNL     1     -40.719  50.109 -54.453  1.00  0.00    -0.003 C 
HETATM   38  C   UNL     1     -39.248  49.797 -54.232  1.00  0.00     0.005 C 
ENDBRANCH  36  37
ENDBRANCH  35  36
ENDBRANCH   1  35
TORSDOF 9
ENDMDL
MODEL 4
REMARK VINA RESULT:      -7.8      1.562      2.097
REMARK  9 active torsions:
REMARK  status: ('A' for Active; 'I' for Inactive)
REMARK    1  A    between atoms: C_2  and  C_3 
REMARK    2  A    between atoms: C_3  and  C_4 
REMARK    3  A    between atoms: C_4  and  N_5 
REMARK    4  A    between atoms: C_14  and  C_15 
REMARK    5  A    between atoms: C_15  and  C_16 
REMARK    6  A    between atoms: C_16  and  C_17 
REMARK       I    between atoms: C_17  and  N_18 
REMARK    7  A    between atoms: N_18  and  C_19 
REMARK    8  A    between atoms: N_32  and  C_33 
REMARK    9  A    between atoms: C_33  and  C_34 
ROOT
HETATM    1  N   UNL     1     -40.191  52.976 -52.364  1.00  0.00    -0.282 N 
HETATM    2  C   UNL     1     -40.290  52.472 -51.068  1.00  0.00     0.331 A 
HETATM    3  O   UNL     1     -39.832  51.386 -50.716  1.00  0.00    -0.246 OA
HETATM    4  N   UNL     1     -40.926  53.263 -50.132  1.00  0.00    -0.273 N 
HETATM    5  C   UNL     1     -41.470  54.513 -50.321  1.00  0.00     0.280 A 
HETATM    6  O   UNL     1     -41.964  55.158 -49.404  1.00  0.00    -0.265 OA
HETATM    7  C   UNL     1     -41.350  54.962 -51.667  1.00  0.00     0.151 A 
HETATM    8  C   UNL     1     -40.720  54.222 -52.625  1.00  0.00     0.168 A 
HETATM    9  N   UNL     1     -40.672  54.878 -53.812  1.00  0.00    -0.215 NA
HETATM   10  C   UNL     1     -41.374  55.985 -53.630  1.00  0.00     0.109 A 
HETATM   11  N   UNL     1     -41.790  56.089 -52.311  1.00  0.00    -0.327 N 
HETATM   12  H   UNL     1     -40.987  52.878 -49.201  1.00  0.00     0.173 HD
ENDROOT
BRANCH  10  13
HETATM   13  C   UNL     1     -41.665  56.998 -54.699  1.00  0.00     0.088 C 
BRANCH  13  14
HETATM   14  C   UNL     1     -42.612  56.467 -55.774  1.00  0.00     0.110 C 
BRANCH  14  15
HETATM   15  C   UNL     1     -43.244  57.570 -56.603  1.00  0.00     0.218 C 
HETATM   16  N   UNL     1     -44.367  57.202 -57.316  1.00  0.00    -0.356 N 
HETATM   17  H   UNL     1     -44.784  56.339 -56.951  1.00  0.00     0.162 HD
HETATM   18  O   UNL     1     -42.758  58.694 -56.644  1.00  0.00    -0.274 OA
BRANCH  16  19
HETATM   19  C   UNL     1     -45.309  58.135 -57.925  1.00  0.00     0.089 C 
HETATM   20  C   UNL     1     -46.441  57.381 -58.638  1.00  0.00     0.063 C 
HETATM   21  C   UNL     1     -46.091  56.832 -60.033  1.00  0.00     0.121 C 
HETATM   22  C   UNL     1     -45.240  55.559 -59.997  1.00  0.00     0.046 C 
HETATM   23  C   UNL     1     -47.395  56.493 -60.786  1.00  0.00     0.046 C 
HETATM   24  N   UNL     1     -45.403  57.897 -60.860  1.00  0.00    -0.059 N 
HETATM   25  H   UNL     1     -46.133  58.545 -61.190  1.00  0.00     0.279 HD
HETATM   26  H   UNL     1     -45.039  57.470 -61.724  1.00  0.00     0.279 HD
HETATM   27  C   UNL     1     -44.310  58.751 -60.244  1.00  0.00     0.121 C 
HETATM   28  C   UNL     1     -44.161  59.978 -61.172  1.00  0.00     0.046 C 
HETATM   29  C   UNL     1     -42.979  57.999 -60.272  1.00  0.00     0.046 C 
HETATM   30  C   UNL     1     -44.768  59.225 -58.862  1.00  0.00     0.063 C 
ENDBRANCH  16  19
ENDBRANCH  14  15
ENDBRANCH  13  14
ENDBRANCH  10  13
BRANCH  11  31
HETATM   31  C   UNL     1     -42.499  57.209 -51.716  1.00  0.00     0.134 C 
BRANCH  31  32
HETATM   32  C   UNL     1     -41.669  58.496 -51.602  1.00  0.00    -0.004 C 
HETATM   33  C   UNL     1     -42.516  59.686 -51.147  1.00  0.00     0.011 C 
HETATM   34  C   UNL     1     -40.514  58.275 -50.625  1.00  0.00     0.011 C 
ENDBRANCH  31  32
ENDBRANCH  11  31
BRANCH   1  35
HETATM   35  C   UNL     1     -39.621  52.150 -53.425  1.00  0.00     0.135 C 
BRANCH  35  36
HETATM   36  C   UNL     1     -40.662  51.406 -54.264  1.00  0.00     0.020 C 
BRANCH  36  37
HETATM   37  C   UNL     1     -40.323  49.931 -54.470  1.00  0.00    -0.003 C 
HETATM   38  C   UNL     1     -39.472  49.399 -53.327  1.00  0.00     0.005 C 
ENDBRANCH  36  37
ENDBRANCH  35  36
ENDBRANCH   1  35
TORSDOF 9
ENDMDL
MODEL 5
REMARK VINA RESULT:      -7.6      1.993      5.131
REMARK  9 active torsions:
REMARK  status: ('A' for Active; 'I' for Inactive)
REMARK    1  A    between atoms: C_2  and  C_3 
REMARK    2  A    between atoms: C_3  and  C_4 
REMARK    3  A    between atoms: C_4  and  N_5 
REMARK    4  A    between atoms: C_14  and  C_15 
REMARK    5  A    between atoms: C_15  and  C_16 
REMARK    6  A    between atoms: C_16  and  C_17 
REMARK       I    between atoms: C_17  and  N_18 
REMARK    7  A    between atoms: N_18  and  C_19 
REMARK    8  A    between atoms: N_32  and  C_33 
REMARK    9  A    between atoms: C_33  and  C_34 
ROOT
HETATM    1  N   UNL     1     -42.275  58.747 -51.980  1.00  0.00    -0.282 N 
HETATM    2  C   UNL     1     -41.666  58.951 -50.744  1.00  0.00     0.331 A 
HETATM    3  O   UNL     1     -41.511  60.057 -50.228  1.00  0.00    -0.246 OA
HETATM    4  N   UNL     1     -41.235  57.831 -50.062  1.00  0.00    -0.273 N 
HETATM    5  C   UNL     1     -41.347  56.516 -50.452  1.00  0.00     0.280 A 
HETATM    6  O   UNL     1     -40.982  55.588 -49.742  1.00  0.00    -0.265 OA
HETATM    7  C   UNL     1     -41.963  56.378 -51.729  1.00  0.00     0.151 A 
HETATM    8  C   UNL     1     -42.415  57.453 -52.436  1.00  0.00     0.168 A 
HETATM    9  N   UNL     1     -43.021  57.074 -53.590  1.00  0.00    -0.215 NA
HETATM   10  C   UNL     1     -42.847  55.764 -53.663  1.00  0.00     0.109 A 
HETATM   11  N   UNL     1     -42.220  55.289 -52.521  1.00  0.00    -0.327 N 
HETATM   12  H   UNL     1     -40.796  58.003 -49.168  1.00  0.00     0.173 HD
ENDROOT
BRANCH  10  13
HETATM   13  C   UNL     1     -43.284  54.907 -54.815  1.00  0.00     0.088 C 
BRANCH  13  14
HETATM   14  C   UNL     1     -42.294  54.932 -55.979  1.00  0.00     0.110 C 
BRANCH  14  15
HETATM   15  C   UNL     1     -42.845  55.629 -57.210  1.00  0.00     0.218 C 
HETATM   16  N   UNL     1     -42.492  56.957 -57.343  1.00  0.00    -0.356 N 
HETATM   17  H   UNL     1     -41.676  57.193 -56.770  1.00  0.00     0.162 HD
HETATM   18  O   UNL     1     -43.573  55.043 -58.002  1.00  0.00    -0.274 OA
BRANCH  16  19
HETATM   19  C   UNL     1     -42.636  57.737 -58.568  1.00  0.00     0.089 C 
HETATM   20  C   UNL     1     -41.695  58.951 -58.555  1.00  0.00     0.063 C 
HETATM   21  C   UNL     1     -42.186  60.157 -57.736  1.00  0.00     0.121 C 
HETATM   22  C   UNL     1     -42.013  59.984 -56.223  1.00  0.00     0.046 C 
HETATM   23  C   UNL     1     -41.387  61.411 -58.149  1.00  0.00     0.046 C 
HETATM   24  N   UNL     1     -43.632  60.464 -58.064  1.00  0.00    -0.059 N 
HETATM   25  H   UNL     1     -43.640  60.952 -58.971  1.00  0.00     0.279 HD
HETATM   26  H   UNL     1     -43.987  61.165 -57.399  1.00  0.00     0.279 HD
HETATM   27  C   UNL     1     -44.644  59.338 -58.166  1.00  0.00     0.121 C 
HETATM   28  C   UNL     1     -45.851  59.925 -58.932  1.00  0.00     0.046 C 
HETATM   29  C   UNL     1     -45.139  58.949 -56.772  1.00  0.00     0.046 C 
HETATM   30  C   UNL     1     -44.038  58.198 -58.990  1.00  0.00     0.063 C 
ENDBRANCH  16  19
ENDBRANCH  14  15
ENDBRANCH  13  14
ENDBRANCH  10  13
BRANCH  11  31
HETATM   31  C   UNL     1     -41.948  53.899 -52.201  1.00  0.00     0.134 C 
BRANCH  31  32
HETATM   32  C   UNL     1     -40.532  53.429 -52.566  1.00  0.00    -0.004 C 
HETATM   33  C   UNL     1     -39.846  52.718 -51.399  1.00  0.00     0.011 C 
HETATM   34  C   UNL     1     -40.600  52.496 -53.776  1.00  0.00     0.011 C 
ENDBRANCH  31  32
ENDBRANCH  11  31
BRANCH   1  35
HETATM   35  C   UNL     1     -42.662  59.893 -52.800  1.00  0.00     0.135 C 
BRANCH  35  36
HETATM   36  C   UNL     1     -43.929  60.603 -52.321  1.00  0.00     0.020 C 
BRANCH  36  37
HETATM   37  C   UNL     1     -45.195  59.772 -52.522  1.00  0.00    -0.003 C 
HETATM   38  C   UNL     1     -45.774  59.322 -51.190  1.00  0.00     0.005 C 
ENDBRANCH  36  37
ENDBRANCH  35  36
ENDBRANCH   1  35
TORSDOF 9
ENDMDL
MODEL 6
REMARK VINA RESULT:      -7.5      1.101      2.223
REMARK  9 active torsions:
REMARK  status: ('A' for Active; 'I' for Inactive)
REMARK    1  A    between atoms: C_2  and  C_3 
REMARK    2  A    between atoms: C_3  and  C_4 
REMARK    3  A    between atoms: C_4  and  N_5 
REMARK    4  A    between atoms: C_14  and  C_15 
REMARK    5  A    between atoms: C_15  and  C_16 
REMARK    6  A    between atoms: C_16  and  C_17 
REMARK       I    between atoms: C_17  and  N_18 
REMARK    7  A    between atoms: N_18  and  C_19 
REMARK    8  A    between atoms: N_32  and  C_33 
REMARK    9  A    between atoms: C_33  and  C_34 
ROOT
HETATM    1  N   UNL     1     -40.741  53.853 -51.101  1.00  0.00    -0.282 N 
HETATM    2  C   UNL     1     -40.327  54.517 -49.948  1.00  0.00     0.331 A 
HETATM    3  O   UNL     1     -39.726  53.975 -49.021  1.00  0.00    -0.246 OA
HETATM    4  N   UNL     1     -40.600  55.868 -49.868  1.00  0.00    -0.273 N 
HETATM    5  C   UNL     1     -41.226  56.655 -50.806  1.00  0.00     0.280 A 
HETATM    6  O   UNL     1     -41.367  57.862 -50.661  1.00  0.00    -0.265 OA
HETATM    7  C   UNL     1     -41.637  55.914 -51.952  1.00  0.00     0.151 A 
HETATM    8  C   UNL     1     -41.382  54.580 -52.082  1.00  0.00     0.168 A 
HETATM    9  N   UNL     1     -41.808  54.104 -53.280  1.00  0.00    -0.215 NA
HETATM   10  C   UNL     1     -42.437  55.116 -53.855  1.00  0.00     0.109 A 
HETATM   11  N   UNL     1     -42.333  56.262 -53.080  1.00  0.00    -0.327 N 
HETATM   12  H   UNL     1     -40.291  56.329 -49.023  1.00  0.00     0.173 HD
ENDROOT
BRANCH  10  13
HETATM   13  C   UNL     1     -43.148  55.041 -55.175  1.00  0.00     0.088 C 
BRANCH  13  14
HETATM   14  C   UNL     1     -42.206  55.228 -56.364  1.00  0.00     0.110 C 
BRANCH  14  15
HETATM   15  C   UNL     1     -42.943  55.465 -57.670  1.00  0.00     0.218 C 
HETATM   16  N   UNL     1     -42.564  56.596 -58.364  1.00  0.00    -0.356 N 
HETATM   17  H   UNL     1     -41.647  56.940 -58.061  1.00  0.00     0.162 HD
HETATM   18  O   UNL     1     -43.829  54.708 -58.049  1.00  0.00    -0.274 OA
BRANCH  16  19
HETATM   19  C   UNL     1     -42.896  56.868 -59.759  1.00  0.00     0.089 C 
HETATM   20  C   UNL     1     -42.037  58.014 -60.312  1.00  0.00     0.063 C 
HETATM   21  C   UNL     1     -42.504  59.430 -59.932  1.00  0.00     0.121 C 
HETATM   22  C   UNL     1     -42.148  59.831 -58.496  1.00  0.00     0.046 C 
HETATM   23  C   UNL     1     -41.837  60.454 -60.873  1.00  0.00     0.046 C 
HETATM   24  N   UNL     1     -43.994  59.572 -60.158  1.00  0.00    -0.059 N 
HETATM   25  H   UNL     1     -44.137  59.691 -61.171  1.00  0.00     0.279 HD
HETATM   26  H   UNL     1     -44.313  60.464 -59.754  1.00  0.00     0.279 HD
HETATM   27  C   UNL     1     -44.940  58.473 -59.711  1.00  0.00     0.121 C 
HETATM   28  C   UNL     1     -46.261  58.717 -60.474  1.00  0.00     0.046 C 
HETATM   29  C   UNL     1     -45.246  58.618 -58.220  1.00  0.00     0.046 C 
HETATM   30  C   UNL     1     -44.364  57.118 -60.134  1.00  0.00     0.063 C 
ENDBRANCH  16  19
ENDBRANCH  14  15
ENDBRANCH  13  14
ENDBRANCH  10  13
BRANCH  11  31
HETATM   31  C   UNL     1     -42.814  57.587 -53.430  1.00  0.00     0.134 C 
BRANCH  31  32
HETATM   32  C   UNL     1     -44.315  57.802 -53.186  1.00  0.00    -0.004 C 
HETATM   33  C   UNL     1     -44.574  58.834 -52.087  1.00  0.00     0.011 C 
HETATM   34  C   UNL     1     -44.986  58.246 -54.486  1.00  0.00     0.011 C 
ENDBRANCH  31  32
ENDBRANCH  11  31
BRANCH   1  35
HETATM   35  C   UNL     1     -40.576  52.405 -51.207  1.00  0.00     0.135 C 
BRANCH  35  36
HETATM   36  C   UNL     1     -39.453  51.973 -52.151  1.00  0.00     0.020 C 
BRANCH  36  37
HETATM   37  C   UNL     1     -39.651  50.566 -52.714  1.00  0.00    -0.003 C 
HETATM   38  C   UNL     1     -39.882  50.604 -54.216  1.00  0.00     0.005 C 
ENDBRANCH  36  37
ENDBRANCH  35  36
ENDBRANCH   1  35
TORSDOF 9
ENDMDL
MODEL 7
REMARK VINA RESULT:      -7.4      1.512      4.230
REMARK  9 active torsions:
REMARK  status: ('A' for Active; 'I' for Inactive)
REMARK    1  A    between atoms: C_2  and  C_3 
REMARK    2  A    between atoms: C_3  and  C_4 
REMARK    3  A    between atoms: C_4  and  N_5 
REMARK    4  A    between atoms: C_14  and  C_15 
REMARK    5  A    between atoms: C_15  and  C_16 
REMARK    6  A    between atoms: C_16  and  C_17 
REMARK       I    between atoms: C_17  and  N_18 
REMARK    7  A    between atoms: N_18  and  C_19 
REMARK    8  A    between atoms: N_32  and  C_33 
REMARK    9  A    between atoms: C_33  and  C_34 
ROOT
HETATM    1  N   UNL     1     -41.641  55.180 -50.614  1.00  0.00    -0.282 N 
HETATM    2  C   UNL     1     -40.996  54.748 -49.456  1.00  0.00     0.331 A 
HETATM    3  O   UNL     1     -41.178  55.240 -48.344  1.00  0.00    -0.246 OA
HETATM    4  N   UNL     1     -40.119  53.689 -49.583  1.00  0.00    -0.273 N 
HETATM    5  C   UNL     1     -39.809  52.988 -50.725  1.00  0.00     0.280 A 
HETATM    6  O   UNL     1     -39.057  52.022 -50.718  1.00  0.00    -0.265 OA
HETATM    7  C   UNL     1     -40.488  53.489 -51.873  1.00  0.00     0.151 A 
HETATM    8  C   UNL     1     -41.373  54.525 -51.798  1.00  0.00     0.168 A 
HETATM    9  N   UNL     1     -41.942  54.785 -53.002  1.00  0.00    -0.215 NA
HETATM   10  C   UNL     1     -41.329  53.985 -53.859  1.00  0.00     0.109 A 
HETATM   11  N   UNL     1     -40.441  53.149 -53.200  1.00  0.00    -0.327 N 
HETATM   12  H   UNL     1     -39.663  53.393 -48.731  1.00  0.00     0.173 HD
ENDROOT
BRANCH  10  13
HETATM   13  C   UNL     1     -41.575  53.971 -55.340  1.00  0.00     0.088 C 
BRANCH  13  14
HETATM   14  C   UNL     1     -42.941  54.544 -55.717  1.00  0.00     0.110 C 
BRANCH  14  15
HETATM   15  C   UNL     1     -42.863  55.969 -56.233  1.00  0.00     0.218 C 
HETATM   16  N   UNL     1     -43.771  56.290 -57.221  1.00  0.00    -0.356 N 
HETATM   17  H   UNL     1     -44.554  55.628 -57.248  1.00  0.00     0.162 HD
HETATM   18  O   UNL     1     -42.026  56.756 -55.807  1.00  0.00    -0.274 OA
BRANCH  16  19
HETATM   19  C   UNL     1     -44.094  57.648 -57.647  1.00  0.00     0.089 C 
HETATM   20  C   UNL     1     -45.448  57.686 -58.371  1.00  0.00     0.063 C 
HETATM   21  C   UNL     1     -45.422  57.236 -59.842  1.00  0.00     0.121 C 
HETATM   22  C   UNL     1     -45.349  55.716 -60.020  1.00  0.00     0.046 C 
HETATM   23  C   UNL     1     -46.709  57.719 -60.543  1.00  0.00     0.046 C 
HETATM   24  N   UNL     1     -44.278  57.903 -60.576  1.00  0.00    -0.059 N 
HETATM   25  H   UNL     1     -44.567  58.871 -60.775  1.00  0.00     0.279 HD
HETATM   26  H   UNL     1     -44.180  57.475 -61.508  1.00  0.00     0.279 HD
HETATM   27  C   UNL     1     -42.905  57.983 -59.935  1.00  0.00     0.121 C 
HETATM   28  C   UNL     1     -42.139  59.076 -60.712  1.00  0.00     0.046 C 
HETATM   29  C   UNL     1     -42.151  56.668 -60.142  1.00  0.00     0.046 C 
HETATM   30  C   UNL     1     -43.063  58.426 -58.477  1.00  0.00     0.063 C 
ENDBRANCH  16  19
ENDBRANCH  14  15
ENDBRANCH  13  14
ENDBRANCH  10  13
BRANCH  11  31
HETATM   31  C   UNL     1     -39.661  52.078 -53.795  1.00  0.00     0.134 C 
BRANCH  31  32
HETATM   32  C   UNL     1     -40.347  50.704 -53.768  1.00  0.00    -0.004 C 
HETATM   33  C   UNL     1     -40.176  49.952 -55.089  1.00  0.00     0.011 C 
HETATM   34  C   UNL     1     -39.780  49.872 -52.618  1.00  0.00     0.011 C 
ENDBRANCH  31  32
ENDBRANCH  11  31
BRANCH   1  35
HETATM   35  C   UNL     1     -42.503  56.358 -50.571  1.00  0.00     0.135 C 
BRANCH  35  36
HETATM   36  C   UNL     1     -42.043  57.502 -51.477  1.00  0.00     0.020 C 
BRANCH  36  37
HETATM   37  C   UNL     1     -40.722  58.127 -51.029  1.00  0.00    -0.003 C 
HETATM   38  C   UNL     1     -40.949  59.180 -49.956  1.00  0.00     0.005 C 
ENDBRANCH  36  37
ENDBRANCH  35  36
ENDBRANCH   1  35
TORSDOF 9
ENDMDL
MODEL 8
REMARK VINA RESULT:      -7.3      2.618      8.257
REMARK  9 active torsions:
REMARK  status: ('A' for Active; 'I' for Inactive)
REMARK    1  A    between atoms: C_2  and  C_3 
REMARK    2  A    between atoms: C_3  and  C_4 
REMARK    3  A    between atoms: C_4  and  N_5 
REMARK    4  A    between atoms: C_14  and  C_15 
REMARK    5  A    between atoms: C_15  and  C_16 
REMARK    6  A    between atoms: C_16  and  C_17 
REMARK       I    between atoms: C_17  and  N_18 
REMARK    7  A    between atoms: N_18  and  C_19 
REMARK    8  A    between atoms: N_32  and  C_33 
REMARK    9  A    between atoms: C_33  and  C_34 
ROOT
HETATM    1  N   UNL     1     -42.094  60.027 -56.940  1.00  0.00    -0.282 N 
HETATM    2  C   UNL     1     -41.959  60.816 -58.081  1.00  0.00     0.331 A 
HETATM    3  O   UNL     1     -41.743  62.026 -58.058  1.00  0.00    -0.246 OA
HETATM    4  N   UNL     1     -42.057  60.179 -59.302  1.00  0.00    -0.273 N 
HETATM    5  C   UNL     1     -42.260  58.838 -59.534  1.00  0.00     0.280 A 
HETATM    6  O   UNL     1     -42.274  58.363 -60.663  1.00  0.00    -0.265 OA
HETATM    7  C   UNL     1     -42.405  58.092 -58.330  1.00  0.00     0.151 A 
HETATM    8  C   UNL     1     -42.305  58.674 -57.100  1.00  0.00     0.168 A 
HETATM    9  N   UNL     1     -42.413  57.758 -56.103  1.00  0.00    -0.215 NA
HETATM   10  C   UNL     1     -42.697  56.615 -56.707  1.00  0.00     0.109 A 
HETATM   11  N   UNL     1     -42.676  56.770 -58.085  1.00  0.00    -0.327 N 
HETATM   12  H   UNL     1     -41.957  60.770 -60.115  1.00  0.00     0.173 HD
ENDROOT
BRANCH  10  13
HETATM   13  C   UNL     1     -42.982  55.323 -55.998  1.00  0.00     0.088 C 
BRANCH  13  14
HETATM   14  C   UNL     1     -41.720  54.662 -55.444  1.00  0.00     0.110 C 
BRANCH  14  15
HETATM   15  C   UNL     1     -41.746  54.510 -53.934  1.00  0.00     0.218 C 
HETATM   16  N   UNL     1     -41.571  55.678 -53.220  1.00  0.00    -0.356 N 
HETATM   17  H   UNL     1     -41.752  56.507 -53.796  1.00  0.00     0.162 HD
HETATM   18  O   UNL     1     -41.887  53.413 -53.407  1.00  0.00    -0.274 OA
BRANCH  16  19
HETATM   19  C   UNL     1     -41.859  55.836 -51.798  1.00  0.00     0.089 C 
HETATM   20  C   UNL     1     -43.358  56.078 -51.569  1.00  0.00     0.063 C 
HETATM   21  C   UNL     1     -43.839  57.517 -51.821  1.00  0.00     0.121 C 
HETATM   22  C   UNL     1     -43.992  57.864 -53.305  1.00  0.00     0.046 C 
HETATM   23  C   UNL     1     -45.219  57.714 -51.159  1.00  0.00     0.046 C 
HETATM   24  N   UNL     1     -42.914  58.508 -51.146  1.00  0.00    -0.059 N 
HETATM   25  H   UNL     1     -43.144  58.502 -50.142  1.00  0.00     0.279 HD
HETATM   26  H   UNL     1     -43.158  59.460 -51.453  1.00  0.00     0.279 HD
HETATM   27  C   UNL     1     -41.410  58.337 -51.249  1.00  0.00     0.121 C 
HETATM   28  C   UNL     1     -40.809  59.203 -50.120  1.00  0.00     0.046 C 
HETATM   29  C   UNL     1     -40.907  58.909 -52.575  1.00  0.00     0.046 C 
HETATM   30  C   UNL     1     -41.058  56.868 -50.993  1.00  0.00     0.063 C 
ENDBRANCH  16  19
ENDBRANCH  14  15
ENDBRANCH  13  14
ENDBRANCH  10  13
BRANCH  11  31
HETATM   31  C   UNL     1     -42.845  55.720 -59.073  1.00  0.00     0.134 C 
BRANCH  31  32
HETATM   32  C   UNL     1     -44.309  55.386 -59.399  1.00  0.00    -0.004 C 
HETATM   33  C   UNL     1     -44.735  55.945 -60.758  1.00  0.00     0.011 C 
HETATM   34  C   UNL     1     -44.504  53.869 -59.376  1.00  0.00     0.011 C 
ENDBRANCH  31  32
ENDBRANCH  11  31
BRANCH   1  35
HETATM   35  C   UNL     1     -42.102  60.651 -55.620  1.00  0.00     0.135 C 
BRANCH  35  36
HETATM   36  C   UNL     1     -43.479  61.145 -55.171  1.00  0.00     0.020 C 
BRANCH  36  37
HETATM   37  C   UNL     1     -43.545  61.460 -53.678  1.00  0.00    -0.003 C 
HETATM   38  C   UNL     1     -44.980  61.441 -53.176  1.00  0.00     0.005 C 
ENDBRANCH  36  37
ENDBRANCH  35  36
ENDBRANCH   1  35
TORSDOF 9
ENDMDL
MODEL 9
REMARK VINA RESULT:      -7.3      2.321      5.374
REMARK  9 active torsions:
REMARK  status: ('A' for Active; 'I' for Inactive)
REMARK    1  A    between atoms: C_2  and  C_3 
REMARK    2  A    between atoms: C_3  and  C_4 
REMARK    3  A    between atoms: C_4  and  N_5 
REMARK    4  A    between atoms: C_14  and  C_15 
REMARK    5  A    between atoms: C_15  and  C_16 
REMARK    6  A    between atoms: C_16  and  C_17 
REMARK       I    between atoms: C_17  and  N_18 
REMARK    7  A    between atoms: N_18  and  C_19 
REMARK    8  A    between atoms: N_32  and  C_33 
REMARK    9  A    between atoms: C_33  and  C_34 
ROOT
HETATM    1  N   UNL     1     -44.767  58.060 -52.646  1.00  0.00    -0.282 N 
HETATM    2  C   UNL     1     -44.954  57.632 -51.332  1.00  0.00     0.331 A 
HETATM    3  O   UNL     1     -45.558  58.280 -50.479  1.00  0.00    -0.246 OA
HETATM    4  N   UNL     1     -44.441  56.396 -50.993  1.00  0.00    -0.273 N 
HETATM    5  C   UNL     1     -43.770  55.514 -51.808  1.00  0.00     0.280 A 
HETATM    6  O   UNL     1     -43.406  54.411 -51.421  1.00  0.00    -0.265 OA
HETATM    7  C   UNL     1     -43.599  56.016 -53.130  1.00  0.00     0.151 A 
HETATM    8  C   UNL     1     -44.096  57.227 -53.517  1.00  0.00     0.168 A 
HETATM    9  N   UNL     1     -43.867  57.465 -54.833  1.00  0.00    -0.215 NA
HETATM   10  C   UNL     1     -43.122  56.452 -55.248  1.00  0.00     0.109 A 
HETATM   11  N   UNL     1     -42.954  55.521 -54.234  1.00  0.00    -0.327 N 
HETATM   12  H   UNL     1     -44.588  56.107 -50.036  1.00  0.00     0.173 HD
ENDROOT
BRANCH  10  13
HETATM   13  C   UNL     1     -42.554  56.320 -56.631  1.00  0.00     0.088 C 
BRANCH  13  14
HETATM   14  C   UNL     1     -43.302  55.294 -57.481  1.00  0.00     0.110 C 
BRANCH  14  15
HETATM   15  C   UNL     1     -43.645  55.810 -58.866  1.00  0.00     0.218 C 
HETATM   16  N   UNL     1     -44.764  56.614 -58.936  1.00  0.00    -0.356 N 
HETATM   17  H   UNL     1     -45.021  56.991 -58.017  1.00  0.00     0.162 HD
HETATM   18  O   UNL     1     -42.977  55.499 -59.845  1.00  0.00    -0.274 OA
BRANCH  16  19
HETATM   19  C   UNL     1     -45.111  57.462 -60.072  1.00  0.00     0.089 C 
HETATM   20  C   UNL     1     -44.092  58.600 -60.234  1.00  0.00     0.063 C 
HETATM   21  C   UNL     1     -44.286  59.798 -59.287  1.00  0.00     0.121 C 
HETATM   22  C   UNL     1     -43.797  59.538 -57.859  1.00  0.00     0.046 C 
HETATM   23  C   UNL     1     -43.496  61.007 -59.831  1.00  0.00     0.046 C 
HETATM   24  N   UNL     1     -45.737  60.227 -59.271  1.00  0.00    -0.059 N 
HETATM   25  H   UNL     1     -45.906  60.759 -60.138  1.00  0.00     0.279 HD
HETATM   26  H   UNL     1     -45.876  60.920 -58.522  1.00  0.00     0.279 HD
HETATM   27  C   UNL     1     -46.838  59.187 -59.178  1.00  0.00     0.121 C 
HETATM   28  C   UNL     1     -48.131  59.899 -59.634  1.00  0.00     0.046 C 
HETATM   29  C   UNL     1     -47.042  58.768 -57.722  1.00  0.00     0.046 C 
HETATM   30  C   UNL     1     -46.528  58.046 -60.152  1.00  0.00     0.063 C 
ENDBRANCH  16  19
ENDBRANCH  14  15
ENDBRANCH  13  14
ENDBRANCH  10  13
BRANCH  11  31
HETATM   31  C   UNL     1     -42.279  54.240 -54.344  1.00  0.00     0.134 C 
BRANCH  31  32
HETATM   32  C   UNL     1     -40.807  54.258 -53.904  1.00  0.00    -0.004 C 
HETATM   33  C   UNL     1     -40.486  53.125 -52.929  1.00  0.00     0.011 C 
HETATM   34  C   UNL     1     -39.905  54.157 -55.135  1.00  0.00     0.011 C 
ENDBRANCH  31  32
ENDBRANCH  11  31
BRANCH   1  35
HETATM   35  C   UNL     1     -45.194  59.398 -53.044  1.00  0.00     0.135 C 
BRANCH  35  36
HETATM   36  C   UNL     1     -44.095  60.459 -52.947  1.00  0.00     0.020 C 
BRANCH  36  37
HETATM   37  C   UNL     1     -43.973  61.312 -54.209  1.00  0.00    -0.003 C 
HETATM   38  C   UNL     1     -45.274  61.315 -54.997  1.00  0.00     0.005 C 
ENDBRANCH  36  37
ENDBRANCH  35  36
ENDBRANCH   1  35
TORSDOF 9
ENDMDL
MODEL 10
REMARK VINA RESULT:      -7.3      2.015      3.205
REMARK  9 active torsions:
REMARK  status: ('A' for Active; 'I' for Inactive)
REMARK    1  A    between atoms: C_2  and  C_3 
REMARK    2  A    between atoms: C_3  and  C_4 
REMARK    3  A    between atoms: C_4  and  N_5 
REMARK    4  A    between atoms: C_14  and  C_15 
REMARK    5  A    between atoms: C_15  and  C_16 
REMARK    6  A    between atoms: C_16  and  C_17 
REMARK       I    between atoms: C_17  and  N_18 
REMARK    7  A    between atoms: N_18  and  C_19 
REMARK    8  A    between atoms: N_32  and  C_33 
REMARK    9  A    between atoms: C_33  and  C_34 
ROOT
HETATM    1  N   UNL     1     -41.367  53.478 -53.217  1.00  0.00    -0.282 N 
HETATM    2  C   UNL     1     -41.126  53.507 -51.845  1.00  0.00     0.331 A 
HETATM    3  O   UNL     1     -40.710  52.546 -51.200  1.00  0.00    -0.246 OA
HETATM    4  N   UNL     1     -41.356  54.701 -51.191  1.00  0.00    -0.273 N 
HETATM    5  C   UNL     1     -41.786  55.888 -51.738  1.00  0.00     0.280 A 
HETATM    6  O   UNL     1     -41.902  56.911 -51.075  1.00  0.00    -0.265 OA
HETATM    7  C   UNL     1     -42.028  55.787 -53.138  1.00  0.00     0.151 A 
HETATM    8  C   UNL     1     -41.806  54.633 -53.830  1.00  0.00     0.168 A 
HETATM    9  N   UNL     1     -42.045  54.792 -55.157  1.00  0.00    -0.215 NA
HETATM   10  C   UNL     1     -42.529  56.017 -55.281  1.00  0.00     0.109 A 
HETATM   11  N   UNL     1     -42.512  56.677 -54.061  1.00  0.00    -0.327 N 
HETATM   12  H   UNL     1     -41.175  54.699 -50.197  1.00  0.00     0.173 HD
ENDROOT
BRANCH  10  13
HETATM   13  C   UNL     1     -43.012  56.618 -56.569  1.00  0.00     0.088 C 
BRANCH  13  14
HETATM   14  C   UNL     1     -42.965  55.631 -57.735  1.00  0.00     0.110 C 
BRANCH  14  15
HETATM   15  C   UNL     1     -43.309  56.273 -59.067  1.00  0.00     0.218 C 
HETATM   16  N   UNL     1     -43.978  57.477 -58.986  1.00  0.00    -0.356 N 
HETATM   17  H   UNL     1     -43.875  57.909 -58.061  1.00  0.00     0.162 HD
HETATM   18  O   UNL     1     -43.030  55.728 -60.128  1.00  0.00    -0.274 OA
BRANCH  16  19
HETATM   19  C   UNL     1     -44.139  58.416 -60.092  1.00  0.00     0.089 C 
HETATM   20  C   UNL     1     -42.831  59.174 -60.360  1.00  0.00     0.063 C 
HETATM   21  C   UNL     1     -42.545  60.351 -59.411  1.00  0.00     0.121 C 
HETATM   22  C   UNL     1     -42.034  59.919 -58.033  1.00  0.00     0.046 C 
HETATM   23  C   UNL     1     -41.465  61.258 -60.038  1.00  0.00     0.046 C 
HETATM   24  N   UNL     1     -43.776  61.219 -59.262  1.00  0.00    -0.059 N 
HETATM   25  H   UNL     1     -43.847  61.795 -60.113  1.00  0.00     0.279 HD
HETATM   26  H   UNL     1     -43.617  61.904 -58.509  1.00  0.00     0.279 HD
HETATM   27  C   UNL     1     -45.137  60.581 -59.055  1.00  0.00     0.121 C 
HETATM   28  C   UNL     1     -46.173  61.677 -59.393  1.00  0.00     0.046 C 
HETATM   29  C   UNL     1     -45.328  60.217 -57.582  1.00  0.00     0.046 C 
HETATM   30  C   UNL     1     -45.298  59.422 -60.043  1.00  0.00     0.063 C 
ENDBRANCH  16  19
ENDBRANCH  14  15
ENDBRANCH  13  14
ENDBRANCH  10  13
BRANCH  11  31
HETATM   31  C   UNL     1     -42.876  58.063 -53.825  1.00  0.00     0.134 C 
BRANCH  31  32
HETATM   32  C   UNL     1     -41.825  59.082 -54.291  1.00  0.00    -0.004 C 
HETATM   33  C   UNL     1     -42.390  60.502 -54.345  1.00  0.00     0.011 C 
HETATM   34  C   UNL     1     -40.618  59.037 -53.352  1.00  0.00     0.011 C 
ENDBRANCH  31  32
ENDBRANCH  11  31
BRANCH   1  35
HETATM   35  C   UNL     1     -41.243  52.222 -53.952  1.00  0.00     0.135 C 
BRANCH  35  36
HETATM   36  C   UNL     1     -39.803  51.843 -54.301  1.00  0.00     0.020 C 
BRANCH  36  37
HETATM   37  C   UNL     1     -39.591  50.334 -54.416  1.00  0.00    -0.003 C 
HETATM   38  C   UNL     1     -39.719  49.657 -53.060  1.00  0.00     0.005 C 
ENDBRANCH  36  37
ENDBRANCH  35  36
ENDBRANCH   1  35
TORSDOF 9
ENDMDL
