MODEL 1
REMARK VINA RESULT:      -8.3      0.000      0.000
REMARK  10 active torsions:
REMARK  status: ('A' for Active; 'I' for Inactive)
REMARK    1  A    between atoms: C_2  and  C_3 
REMARK    2  A    between atoms: C_3  and  O_4 
REMARK    3  A    between atoms: O_4  and  C_5 
REMARK    4  A    between atoms: C_8  and  C_9 
REMARK       I    between atoms: C_9  and  N_10 
REMARK    5  A    between atoms: N_10  and  C_11 
REMARK    6  A    between atoms: C_11  and  N_12 
REMARK    7  A    between atoms: N_12  and  C_13 
REMARK    8  A    between atoms: C_16  and  N_17 
REMARK    9  A    between atoms: N_20  and  C_22 
REMARK   10  A    between atoms: C_22  and  C_23 
ROOT
HETATM    1  C   UNL     1     -44.400  60.450 -52.903  1.00  0.00     0.034 A 
HETATM    2  C   UNL     1     -45.251  59.646 -53.661  1.00  0.00     0.032 A 
HETATM    3  C   UNL     1     -44.830  58.392 -54.124  1.00  0.00     0.031 A 
HETATM    4  C   UNL     1     -43.538  57.909 -53.873  1.00  0.00     0.030 A 
HETATM    5  C   UNL     1     -42.693  58.737 -53.126  1.00  0.00     0.031 A 
HETATM    6  C   UNL     1     -43.118  59.984 -52.638  1.00  0.00     0.032 A 
ENDROOT
BRANCH   1   7
HETATM    7  N   UNL     1     -44.867  61.734 -52.562  1.00  0.00    -0.333 N 
HETATM    8  H   UNL     1     -44.387  62.503 -53.034  1.00  0.00     0.168 HD
BRANCH   7   9
HETATM    9  C   UNL     1     -45.805  62.160 -51.652  1.00  0.00     0.179 C 
HETATM   10  S   UNL     1     -47.392  62.610 -51.928  1.00  0.00    -0.040 SA
BRANCH   9  11
HETATM   11  N   UNL     1     -45.357  62.220 -50.342  1.00  0.00    -0.299 N 
HETATM   12  C   UNL     1     -45.521  61.255 -49.358  1.00  0.00     0.257 C 
HETATM   13  O   UNL     1     -45.786  60.079 -49.585  1.00  0.00    -0.267 OA
HETATM   14  H   UNL     1     -45.097  63.154 -50.057  1.00  0.00     0.171 HD
BRANCH  12  15
HETATM   15  C   UNL     1     -45.388  61.734 -47.962  1.00  0.00     0.032 A 
HETATM   16  C   UNL     1     -45.415  63.115 -47.741  1.00  0.00     0.020 A 
HETATM   17  C   UNL     1     -45.229  63.626 -46.453  1.00  0.00     0.038 A 
HETATM   18  C   UNL     1     -45.030  62.757 -45.379  1.00  0.00     0.068 A 
HETATM   19  C   UNL     1     -45.039  61.376 -45.602  1.00  0.00     0.038 A 
HETATM   20  C   UNL     1     -45.214  60.858 -46.889  1.00  0.00     0.020 A 
BRANCH  18  21
HETATM   21  O   UNL     1     -44.829  63.126 -44.078  1.00  0.00    -0.351 OA
BRANCH  21  22
HETATM   22  C   UNL     1     -43.971  62.295 -43.294  1.00  0.00     0.175 C 
BRANCH  22  23
HETATM   23  C   UNL     1     -42.974  63.196 -42.572  1.00  0.00     0.022 C 
HETATM   24  C   UNL     1     -43.137  64.651 -42.973  1.00  0.00     0.007 C 
ENDBRANCH  22  23
ENDBRANCH  21  22
ENDBRANCH  18  21
ENDBRANCH  12  15
ENDBRANCH   9  11
ENDBRANCH   7   9
ENDBRANCH   1   7
BRANCH   4  25
HETATM   25  N   UNL     1     -43.137  56.688 -54.410  1.00  0.00    -0.378 N 
HETATM   26  C   UNL     1     -43.743  55.470 -53.839  1.00  0.00     0.150 C 
HETATM   27  C   UNL     1     -42.807  54.835 -52.788  1.00  0.00     0.255 C 
HETATM   28  N   UNL     1     -41.419  54.587 -53.391  1.00  0.00    -0.064 N 
HETATM   29  H   UNL     1     -41.555  53.950 -54.185  1.00  0.00     0.280 HD
HETATM   30  C   UNL     1     -40.828  55.882 -53.940  1.00  0.00     0.255 C 
HETATM   31  C   UNL     1     -41.786  56.521 -54.964  1.00  0.00     0.150 C 
BRANCH  28  32
HETATM   32  C   UNL     1     -40.472  53.907 -52.435  1.00  0.00     0.273 C 
BRANCH  32  33
HETATM   33  C   UNL     1     -40.223  52.467 -52.786  1.00  0.00    -0.033 A 
HETATM   34  C   UNL     1     -39.711  51.578 -51.827  1.00  0.00     0.009 A 
HETATM   35  C   UNL     1     -39.458  50.247 -52.161  1.00  0.00     0.001 A 
HETATM   36  C   UNL     1     -39.716  49.791 -53.453  1.00  0.00     0.000 A 
HETATM   37  C   UNL     1     -40.231  50.662 -54.410  1.00  0.00     0.001 A 
HETATM   38  C   UNL     1     -40.484  51.993 -54.081  1.00  0.00     0.009 A 
ENDBRANCH  32  33
ENDBRANCH  28  32
ENDBRANCH   4  25
TORSDOF 10
ENDMDL
MODEL 2
REMARK VINA RESULT:      -8.2      1.302      1.795
REMARK  10 active torsions:
REMARK  status: ('A' for Active; 'I' for Inactive)
REMARK    1  A    between atoms: C_2  and  C_3 
REMARK    2  A    between atoms: C_3  and  O_4 
REMARK    3  A    between atoms: O_4  and  C_5 
REMARK    4  A    between atoms: C_8  and  C_9 
REMARK       I    between atoms: C_9  and  N_10 
REMARK    5  A    between atoms: N_10  and  C_11 
REMARK    6  A    between atoms: C_11  and  N_12 
REMARK    7  A    between atoms: N_12  and  C_13 
REMARK    8  A    between atoms: C_16  and  N_17 
REMARK    9  A    between atoms: N_20  and  C_22 
REMARK   10  A    between atoms: C_22  and  C_23 
ROOT
HETATM    1  C   UNL     1     -43.821  59.992 -51.603  1.00  0.00     0.034 A 
HETATM    2  C   UNL     1     -42.823  59.826 -52.562  1.00  0.00     0.032 A 
HETATM    3  C   UNL     1     -42.634  58.589 -53.194  1.00  0.00     0.031 A 
HETATM    4  C   UNL     1     -43.413  57.469 -52.871  1.00  0.00     0.030 A 
HETATM    5  C   UNL     1     -44.397  57.650 -51.894  1.00  0.00     0.031 A 
HETATM    6  C   UNL     1     -44.609  58.894 -51.276  1.00  0.00     0.032 A 
ENDROOT
BRANCH   1   7
HETATM    7  N   UNL     1     -43.880  61.237 -50.947  1.00  0.00    -0.333 N 
HETATM    8  H   UNL     1     -43.007  61.770 -50.962  1.00  0.00     0.168 HD
BRANCH   7   9
HETATM    9  C   UNL     1     -44.873  61.848 -50.220  1.00  0.00     0.179 C 
HETATM   10  S   UNL     1     -46.344  62.435 -50.757  1.00  0.00    -0.040 SA
BRANCH   9  11
HETATM   11  N   UNL     1     -44.600  61.989 -48.869  1.00  0.00    -0.299 N 
HETATM   12  C   UNL     1     -45.244  61.355 -47.816  1.00  0.00     0.257 C 
HETATM   13  O   UNL     1     -45.915  60.335 -47.933  1.00  0.00    -0.267 OA
HETATM   14  H   UNL     1     -44.034  62.802 -48.664  1.00  0.00     0.171 HD
BRANCH  12  15
HETATM   15  C   UNL     1     -45.106  62.009 -46.493  1.00  0.00     0.032 A 
HETATM   16  C   UNL     1     -45.493  63.349 -46.384  1.00  0.00     0.020 A 
HETATM   17  C   UNL     1     -45.325  64.035 -45.178  1.00  0.00     0.038 A 
HETATM   18  C   UNL     1     -44.784  63.380 -44.071  1.00  0.00     0.068 A 
HETATM   19  C   UNL     1     -44.431  62.030 -44.177  1.00  0.00     0.038 A 
HETATM   20  C   UNL     1     -44.586  61.340 -45.383  1.00  0.00     0.020 A 
BRANCH  18  21
HETATM   21  O   UNL     1     -44.560  63.936 -42.842  1.00  0.00    -0.351 OA
BRANCH  21  22
HETATM   22  C   UNL     1     -43.672  63.238 -41.967  1.00  0.00     0.175 C 
BRANCH  22  23
HETATM   23  C   UNL     1     -43.813  63.841 -40.573  1.00  0.00     0.022 C 
HETATM   24  C   UNL     1     -45.235  63.728 -40.054  1.00  0.00     0.007 C 
ENDBRANCH  22  23
ENDBRANCH  21  22
ENDBRANCH  18  21
ENDBRANCH  12  15
ENDBRANCH   9  11
ENDBRANCH   7   9
ENDBRANCH   1   7
BRANCH   4  25
HETATM   25  N   UNL     1     -43.145  56.242 -53.473  1.00  0.00    -0.378 N 
HETATM   26  C   UNL     1     -43.636  55.033 -52.785  1.00  0.00     0.150 C 
HETATM   27  C   UNL     1     -42.513  54.388 -51.944  1.00  0.00     0.255 C 
HETATM   28  N   UNL     1     -41.280  54.121 -52.817  1.00  0.00    -0.064 N 
HETATM   29  H   UNL     1     -41.584  53.484 -53.563  1.00  0.00     0.280 HD
HETATM   30  C   UNL     1     -40.799  55.408 -53.481  1.00  0.00     0.255 C 
HETATM   31  C   UNL     1     -41.938  56.057 -54.291  1.00  0.00     0.150 C 
BRANCH  28  32
HETATM   32  C   UNL     1     -40.167  53.431 -52.071  1.00  0.00     0.273 C 
BRANCH  32  33
HETATM   33  C   UNL     1     -39.945  52.017 -52.532  1.00  0.00    -0.033 A 
HETATM   34  C   UNL     1     -40.090  51.678 -53.886  1.00  0.00     0.009 A 
HETATM   35  C   UNL     1     -39.908  50.360 -54.309  1.00  0.00     0.001 A 
HETATM   36  C   UNL     1     -39.576  49.372 -53.384  1.00  0.00     0.000 A 
HETATM   37  C   UNL     1     -39.423  49.698 -52.039  1.00  0.00     0.001 A 
HETATM   38  C   UNL     1     -39.605  51.013 -51.612  1.00  0.00     0.009 A 
ENDBRANCH  32  33
ENDBRANCH  28  32
ENDBRANCH   4  25
TORSDOF 10
ENDMDL
MODEL 3
REMARK VINA RESULT:      -8.1      1.776      2.506
REMARK  10 active torsions:
REMARK  status: ('A' for Active; 'I' for Inactive)
REMARK    1  A    between atoms: C_2  and  C_3 
REMARK    2  A    between atoms: C_3  and  O_4 
REMARK    3  A    between atoms: O_4  and  C_5 
REMARK    4  A    between atoms: C_8  and  C_9 
REMARK       I    between atoms: C_9  and  N_10 
REMARK    5  A    between atoms: N_10  and  C_11 
REMARK    6  A    between atoms: C_11  and  N_12 
REMARK    7  A    between atoms: N_12  and  C_13 
REMARK    8  A    between atoms: C_16  and  N_17 
REMARK    9  A    between atoms: N_20  and  C_22 
REMARK   10  A    between atoms: C_22  and  C_23 
ROOT
HETATM    1  C   UNL     1     -43.737  61.947 -51.809  1.00  0.00     0.034 A 
HETATM    2  C   UNL     1     -43.323  61.276 -50.658  1.00  0.00     0.032 A 
HETATM    3  C   UNL     1     -42.359  60.261 -50.728  1.00  0.00     0.031 A 
HETATM    4  C   UNL     1     -41.797  59.859 -51.948  1.00  0.00     0.030 A 
HETATM    5  C   UNL     1     -42.238  60.532 -53.093  1.00  0.00     0.031 A 
HETATM    6  C   UNL     1     -43.184  61.568 -53.027  1.00  0.00     0.032 A 
ENDROOT
BRANCH   1   7
HETATM    7  N   UNL     1     -44.778  62.884 -51.665  1.00  0.00    -0.333 N 
HETATM    8  H   UNL     1     -44.552  63.827 -51.988  1.00  0.00     0.168 HD
BRANCH   7   9
HETATM    9  C   UNL     1     -46.027  62.792 -51.100  1.00  0.00     0.179 C 
HETATM   10  S   UNL     1     -47.496  62.539 -51.858  1.00  0.00    -0.040 SA
BRANCH   9  11
HETATM   11  N   UNL     1     -46.053  62.931 -49.721  1.00  0.00    -0.299 N 
HETATM   12  C   UNL     1     -45.280  63.791 -48.954  1.00  0.00     0.257 C 
HETATM   13  O   UNL     1     -44.707  64.782 -49.396  1.00  0.00    -0.267 OA
HETATM   14  H   UNL     1     -46.520  62.165 -49.256  1.00  0.00     0.171 HD
BRANCH  12  15
HETATM   15  C   UNL     1     -45.144  63.427 -47.523  1.00  0.00     0.032 A 
HETATM   16  C   UNL     1     -45.047  64.467 -46.593  1.00  0.00     0.020 A 
HETATM   17  C   UNL     1     -44.853  64.183 -45.238  1.00  0.00     0.038 A 
HETATM   18  C   UNL     1     -44.770  62.859 -44.806  1.00  0.00     0.068 A 
HETATM   19  C   UNL     1     -44.902  61.824 -45.738  1.00  0.00     0.038 A 
HETATM   20  C   UNL     1     -45.086  62.099 -47.096  1.00  0.00     0.020 A 
BRANCH  18  21
HETATM   21  O   UNL     1     -44.574  62.448 -43.517  1.00  0.00    -0.351 OA
BRANCH  21  22
HETATM   22  C   UNL     1     -43.228  62.436 -43.038  1.00  0.00     0.175 C 
BRANCH  22  23
HETATM   23  C   UNL     1     -43.096  63.519 -41.973  1.00  0.00     0.022 C 
HETATM   24  C   UNL     1     -44.382  63.692 -41.184  1.00  0.00     0.007 C 
ENDBRANCH  22  23
ENDBRANCH  21  22
ENDBRANCH  18  21
ENDBRANCH  12  15
ENDBRANCH   9  11
ENDBRANCH   7   9
ENDBRANCH   1   7
BRANCH   4  25
HETATM   25  N   UNL     1     -40.895  58.799 -51.979  1.00  0.00    -0.378 N 
HETATM   26  C   UNL     1     -40.687  58.130 -53.277  1.00  0.00     0.150 C 
HETATM   27  C   UNL     1     -41.545  56.850 -53.376  1.00  0.00     0.255 C 
HETATM   28  N   UNL     1     -41.272  55.931 -52.180  1.00  0.00    -0.064 N 
HETATM   29  H   UNL     1     -40.272  55.699 -52.212  1.00  0.00     0.280 HD
HETATM   30  C   UNL     1     -41.529  56.663 -50.866  1.00  0.00     0.255 C 
HETATM   31  C   UNL     1     -40.690  57.954 -50.794  1.00  0.00     0.150 C 
BRANCH  28  32
HETATM   32  C   UNL     1     -42.031  54.631 -52.247  1.00  0.00     0.273 C 
BRANCH  32  33
HETATM   33  C   UNL     1     -41.161  53.467 -52.632  1.00  0.00    -0.033 A 
HETATM   34  C   UNL     1     -41.110  53.023 -53.963  1.00  0.00     0.009 A 
HETATM   35  C   UNL     1     -40.320  51.927 -54.313  1.00  0.00     0.001 A 
HETATM   36  C   UNL     1     -39.573  51.267 -53.339  1.00  0.00     0.000 A 
HETATM   37  C   UNL     1     -39.610  51.702 -52.017  1.00  0.00     0.001 A 
HETATM   38  C   UNL     1     -40.399  52.796 -51.662  1.00  0.00     0.009 A 
ENDBRANCH  32  33
ENDBRANCH  28  32
ENDBRANCH   4  25
TORSDOF 10
ENDMDL
MODEL 4
REMARK VINA RESULT:      -8.1      1.634      2.260
REMARK  10 active torsions:
REMARK  status: ('A' for Active; 'I' for Inactive)
REMARK    1  A    between atoms: C_2  and  C_3 
REMARK    2  A    between atoms: C_3  and  O_4 
REMARK    3  A    between atoms: O_4  and  C_5 
REMARK    4  A    between atoms: C_8  and  C_9 
REMARK       I    between atoms: C_9  and  N_10 
REMARK    5  A    between atoms: N_10  and  C_11 
REMARK    6  A    between atoms: C_11  and  N_12 
REMARK    7  A    between atoms: N_12  and  C_13 
REMARK    8  A    between atoms: C_16  and  N_17 
REMARK    9  A    between atoms: N_20  and  C_22 
REMARK   10  A    between atoms: C_22  and  C_23 
ROOT
HETATM    1  C   UNL     1     -44.601  59.810 -51.758  1.00  0.00     0.034 A 
HETATM    2  C   UNL     1     -45.411  58.714 -51.457  1.00  0.00     0.032 A 
HETATM    3  C   UNL     1     -44.846  57.488 -51.077  1.00  0.00     0.031 A 
HETATM    4  C   UNL     1     -43.458  57.303 -51.014  1.00  0.00     0.030 A 
HETATM    5  C   UNL     1     -42.663  58.408 -51.337  1.00  0.00     0.031 A 
HETATM    6  C   UNL     1     -43.222  59.647 -51.692  1.00  0.00     0.032 A 
ENDROOT
BRANCH   1   7
HETATM    7  N   UNL     1     -45.244  60.973 -52.223  1.00  0.00    -0.333 N 
HETATM    8  H   UNL     1     -44.777  61.436 -53.005  1.00  0.00     0.168 HD
BRANCH   7   9
HETATM    9  C   UNL     1     -46.351  61.653 -51.776  1.00  0.00     0.179 C 
HETATM   10  S   UNL     1     -47.767  61.990 -52.600  1.00  0.00    -0.040 SA
BRANCH   9  11
HETATM   11  N   UNL     1     -46.263  62.113 -50.472  1.00  0.00    -0.299 N 
HETATM   12  C   UNL     1     -45.283  62.942 -49.943  1.00  0.00     0.257 C 
HETATM   13  O   UNL     1     -44.547  63.655 -50.618  1.00  0.00    -0.267 OA
HETATM   14  H   UNL     1     -46.849  61.596 -49.831  1.00  0.00     0.171 HD
BRANCH  12  15
HETATM   15  C   UNL     1     -45.138  62.902 -48.468  1.00  0.00     0.032 A 
HETATM   16  C   UNL     1     -45.118  61.649 -47.848  1.00  0.00     0.020 A 
HETATM   17  C   UNL     1     -45.048  61.553 -46.456  1.00  0.00     0.038 A 
HETATM   18  C   UNL     1     -44.983  62.711 -45.679  1.00  0.00     0.068 A 
HETATM   19  C   UNL     1     -44.968  63.960 -46.308  1.00  0.00     0.038 A 
HETATM   20  C   UNL     1     -45.049  64.064 -47.699  1.00  0.00     0.020 A 
BRANCH  18  21
HETATM   21  O   UNL     1     -44.920  62.755 -44.314  1.00  0.00    -0.351 OA
BRANCH  21  22
HETATM   22  C   UNL     1     -44.625  64.021 -43.719  1.00  0.00     0.175 C 
BRANCH  22  23
HETATM   23  C   UNL     1     -43.324  63.882 -42.935  1.00  0.00     0.022 C 
HETATM   24  C   UNL     1     -43.581  63.602 -41.465  1.00  0.00     0.007 C 
ENDBRANCH  22  23
ENDBRANCH  21  22
ENDBRANCH  18  21
ENDBRANCH  12  15
ENDBRANCH   9  11
ENDBRANCH   7   9
ENDBRANCH   1   7
BRANCH   4  25
HETATM   25  N   UNL     1     -42.939  56.050 -50.701  1.00  0.00    -0.378 N 
HETATM   26  C   UNL     1     -41.490  55.966 -50.442  1.00  0.00     0.150 C 
HETATM   27  C   UNL     1     -40.735  55.495 -51.704  1.00  0.00     0.255 C 
HETATM   28  N   UNL     1     -41.327  54.178 -52.220  1.00  0.00    -0.064 N 
HETATM   29  H   UNL     1     -41.223  53.495 -51.461  1.00  0.00     0.280 HD
HETATM   30  C   UNL     1     -42.820  54.329 -52.498  1.00  0.00     0.255 C 
HETATM   31  C   UNL     1     -43.556  54.828 -51.239  1.00  0.00     0.150 C 
BRANCH  28  32
HETATM   32  C   UNL     1     -40.593  53.628 -53.416  1.00  0.00     0.273 C 
BRANCH  32  33
HETATM   33  C   UNL     1     -40.216  52.182 -53.254  1.00  0.00    -0.033 A 
HETATM   34  C   UNL     1     -40.304  51.296 -54.340  1.00  0.00     0.009 A 
HETATM   35  C   UNL     1     -39.977  49.949 -54.183  1.00  0.00     0.001 A 
HETATM   36  C   UNL     1     -39.557  49.474 -52.941  1.00  0.00     0.000 A 
HETATM   37  C   UNL     1     -39.460  50.345 -51.858  1.00  0.00     0.001 A 
HETATM   38  C   UNL     1     -39.787  51.692 -52.011  1.00  0.00     0.009 A 
ENDBRANCH  32  33
ENDBRANCH  28  32
ENDBRANCH   4  25
TORSDOF 10
ENDMDL
MODEL 5
REMARK VINA RESULT:      -7.8      4.593      8.124
REMARK  10 active torsions:
REMARK  status: ('A' for Active; 'I' for Inactive)
REMARK    1  A    between atoms: C_2  and  C_3 
REMARK    2  A    between atoms: C_3  and  O_4 
REMARK    3  A    between atoms: O_4  and  C_5 
REMARK    4  A    between atoms: C_8  and  C_9 
REMARK       I    between atoms: C_9  and  N_10 
REMARK    5  A    between atoms: N_10  and  C_11 
REMARK    6  A    between atoms: C_11  and  N_12 
REMARK    7  A    between atoms: N_12  and  C_13 
REMARK    8  A    between atoms: C_16  and  N_17 
REMARK    9  A    between atoms: N_20  and  C_22 
REMARK   10  A    between atoms: C_22  and  C_23 
ROOT
HETATM    1  C   UNL     1     -43.367  59.753 -51.773  1.00  0.00     0.034 A 
HETATM    2  C   UNL     1     -44.544  59.038 -51.553  1.00  0.00     0.032 A 
HETATM    3  C   UNL     1     -44.513  57.653 -51.342  1.00  0.00     0.031 A 
HETATM    4  C   UNL     1     -43.313  56.928 -51.372  1.00  0.00     0.030 A 
HETATM    5  C   UNL     1     -42.145  57.660 -51.611  1.00  0.00     0.031 A 
HETATM    6  C   UNL     1     -42.166  59.052 -51.797  1.00  0.00     0.032 A 
ENDROOT
BRANCH   1   7
HETATM    7  N   UNL     1     -43.496  61.123 -52.072  1.00  0.00    -0.333 N 
HETATM    8  H   UNL     1     -43.780  61.708 -51.284  1.00  0.00     0.168 HD
BRANCH   7   9
HETATM    9  C   UNL     1     -43.382  61.821 -53.250  1.00  0.00     0.179 C 
HETATM   10  S   UNL     1     -43.206  63.470 -53.469  1.00  0.00    -0.040 SA
BRANCH   9  11
HETATM   11  N   UNL     1     -43.424  61.041 -54.394  1.00  0.00    -0.299 N 
HETATM   12  C   UNL     1     -44.532  60.398 -54.928  1.00  0.00     0.257 C 
HETATM   13  O   UNL     1     -45.693  60.693 -54.662  1.00  0.00    -0.267 OA
HETATM   14  H   UNL     1     -42.507  60.753 -54.708  1.00  0.00     0.171 HD
BRANCH  12  15
HETATM   15  C   UNL     1     -44.240  59.272 -55.846  1.00  0.00     0.032 A 
HETATM   16  C   UNL     1     -43.820  58.063 -55.282  1.00  0.00     0.020 A 
HETATM   17  C   UNL     1     -43.469  56.987 -56.103  1.00  0.00     0.038 A 
HETATM   18  C   UNL     1     -43.550  57.111 -57.490  1.00  0.00     0.068 A 
HETATM   19  C   UNL     1     -44.004  58.312 -58.046  1.00  0.00     0.038 A 
HETATM   20  C   UNL     1     -44.347  59.396 -57.233  1.00  0.00     0.020 A 
BRANCH  18  21
HETATM   21  O   UNL     1     -43.230  56.143 -58.401  1.00  0.00    -0.351 OA
BRANCH  21  22
HETATM   22  C   UNL     1     -43.318  56.498 -59.782  1.00  0.00     0.175 C 
BRANCH  22  23
HETATM   23  C   UNL     1     -44.376  55.610 -60.430  1.00  0.00     0.022 C 
HETATM   24  C   UNL     1     -44.559  54.308 -59.672  1.00  0.00     0.007 C 
ENDBRANCH  22  23
ENDBRANCH  21  22
ENDBRANCH  18  21
ENDBRANCH  12  15
ENDBRANCH   9  11
ENDBRANCH   7   9
ENDBRANCH   1   7
BRANCH   4  25
HETATM   25  N   UNL     1     -43.336  55.544 -51.227  1.00  0.00    -0.378 N 
HETATM   26  C   UNL     1     -42.877  54.995 -49.937  1.00  0.00     0.150 C 
HETATM   27  C   UNL     1     -41.404  54.538 -50.030  1.00  0.00     0.255 C 
HETATM   28  N   UNL     1     -41.222  53.559 -51.195  1.00  0.00    -0.064 N 
HETATM   29  H   UNL     1     -41.836  52.759 -51.003  1.00  0.00     0.280 HD
HETATM   30  C   UNL     1     -41.685  54.187 -52.507  1.00  0.00     0.255 C 
HETATM   31  C   UNL     1     -43.145  54.666 -52.390  1.00  0.00     0.150 C 
BRANCH  28  32
HETATM   32  C   UNL     1     -39.817  53.023 -51.303  1.00  0.00     0.273 C 
BRANCH  32  33
HETATM   33  C   UNL     1     -39.728  51.788 -52.154  1.00  0.00    -0.033 A 
HETATM   34  C   UNL     1     -39.793  51.880 -53.554  1.00  0.00     0.009 A 
HETATM   35  C   UNL     1     -39.735  50.730 -54.342  1.00  0.00     0.001 A 
HETATM   36  C   UNL     1     -39.608  49.479 -53.741  1.00  0.00     0.000 A 
HETATM   37  C   UNL     1     -39.535  49.375 -52.354  1.00  0.00     0.001 A 
HETATM   38  C   UNL     1     -39.594  50.522 -51.562  1.00  0.00     0.009 A 
ENDBRANCH  32  33
ENDBRANCH  28  32
ENDBRANCH   4  25
TORSDOF 10
ENDMDL
MODEL 6
REMARK VINA RESULT:      -7.7      6.286      9.181
REMARK  10 active torsions:
REMARK  status: ('A' for Active; 'I' for Inactive)
REMARK    1  A    between atoms: C_2  and  C_3 
REMARK    2  A    between atoms: C_3  and  O_4 
REMARK    3  A    between atoms: O_4  and  C_5 
REMARK    4  A    between atoms: C_8  and  C_9 
REMARK       I    between atoms: C_9  and  N_10 
REMARK    5  A    between atoms: N_10  and  C_11 
REMARK    6  A    between atoms: C_11  and  N_12 
REMARK    7  A    between atoms: N_12  and  C_13 
REMARK    8  A    between atoms: C_16  and  N_17 
REMARK    9  A    between atoms: N_20  and  C_22 
REMARK   10  A    between atoms: C_22  and  C_23 
ROOT
HETATM    1  C   UNL     1     -45.198  59.172 -55.505  1.00  0.00     0.034 A 
HETATM    2  C   UNL     1     -45.482  57.826 -55.277  1.00  0.00     0.032 A 
HETATM    3  C   UNL     1     -44.674  57.057 -54.428  1.00  0.00     0.031 A 
HETATM    4  C   UNL     1     -43.541  57.594 -53.801  1.00  0.00     0.030 A 
HETATM    5  C   UNL     1     -43.263  58.942 -54.055  1.00  0.00     0.031 A 
HETATM    6  C   UNL     1     -44.083  59.725 -54.884  1.00  0.00     0.032 A 
ENDROOT
BRANCH   1   7
HETATM    7  N   UNL     1     -46.001  59.846 -56.446  1.00  0.00    -0.333 N 
HETATM    8  H   UNL     1     -46.708  60.462 -56.041  1.00  0.00     0.168 HD
BRANCH   7   9
HETATM    9  C   UNL     1     -46.065  59.777 -57.817  1.00  0.00     0.179 C 
HETATM   10  S   UNL     1     -47.280  59.134 -58.770  1.00  0.00    -0.040 SA
BRANCH   9  11
HETATM   11  N   UNL     1     -44.970  60.312 -58.477  1.00  0.00    -0.299 N 
HETATM   12  C   UNL     1     -43.742  59.703 -58.687  1.00  0.00     0.257 C 
HETATM   13  O   UNL     1     -43.552  58.492 -58.619  1.00  0.00    -0.267 OA
HETATM   14  H   UNL     1     -45.035  61.313 -58.598  1.00  0.00     0.171 HD
BRANCH  12  15
HETATM   15  C   UNL     1     -42.613  60.619 -58.979  1.00  0.00     0.032 A 
HETATM   16  C   UNL     1     -42.393  60.977 -60.313  1.00  0.00     0.020 A 
HETATM   17  C   UNL     1     -41.305  61.786 -60.654  1.00  0.00     0.038 A 
HETATM   18  C   UNL     1     -40.442  62.252 -59.661  1.00  0.00     0.068 A 
HETATM   19  C   UNL     1     -40.689  61.918 -58.325  1.00  0.00     0.038 A 
HETATM   20  C   UNL     1     -41.769  61.101 -57.977  1.00  0.00     0.020 A 
BRANCH  18  21
HETATM   21  O   UNL     1     -39.343  63.039 -59.862  1.00  0.00    -0.351 OA
BRANCH  21  22
HETATM   22  C   UNL     1     -39.481  64.124 -60.781  1.00  0.00     0.175 C 
BRANCH  22  23
HETATM   23  C   UNL     1     -38.430  63.955 -61.873  1.00  0.00     0.022 C 
HETATM   24  C   UNL     1     -39.000  63.268 -63.100  1.00  0.00     0.007 C 
ENDBRANCH  22  23
ENDBRANCH  21  22
ENDBRANCH  18  21
ENDBRANCH  12  15
ENDBRANCH   9  11
ENDBRANCH   7   9
ENDBRANCH   1   7
BRANCH   4  25
HETATM   25  N   UNL     1     -42.727  56.777 -53.020  1.00  0.00    -0.378 N 
HETATM   26  C   UNL     1     -41.269  56.925 -53.184  1.00  0.00     0.150 C 
HETATM   27  C   UNL     1     -40.714  55.848 -54.141  1.00  0.00     0.255 C 
HETATM   28  N   UNL     1     -41.123  54.449 -53.665  1.00  0.00    -0.064 N 
HETATM   29  H   UNL     1     -40.728  54.335 -52.724  1.00  0.00     0.280 HD
HETATM   30  C   UNL     1     -42.640  54.342 -53.541  1.00  0.00     0.255 C 
HETATM   31  C   UNL     1     -43.184  55.442 -52.608  1.00  0.00     0.150 C 
BRANCH  28  32
HETATM   32  C   UNL     1     -40.557  53.345 -54.521  1.00  0.00     0.273 C 
BRANCH  32  33
HETATM   33  C   UNL     1     -40.179  52.126 -53.726  1.00  0.00    -0.033 A 
HETATM   34  C   UNL     1     -40.110  50.866 -54.341  1.00  0.00     0.009 A 
HETATM   35  C   UNL     1     -39.783  49.732 -53.597  1.00  0.00     0.001 A 
HETATM   36  C   UNL     1     -39.520  49.846 -52.233  1.00  0.00     0.000 A 
HETATM   37  C   UNL     1     -39.578  51.092 -51.613  1.00  0.00     0.001 A 
HETATM   38  C   UNL     1     -39.906  52.228 -52.353  1.00  0.00     0.009 A 
ENDBRANCH  32  33
ENDBRANCH  28  32
ENDBRANCH   4  25
TORSDOF 10
ENDMDL
MODEL 7
REMARK VINA RESULT:      -7.7      5.432      8.921
REMARK  10 active torsions:
REMARK  status: ('A' for Active; 'I' for Inactive)
REMARK    1  A    between atoms: C_2  and  C_3 
REMARK    2  A    between atoms: C_3  and  O_4 
REMARK    3  A    between atoms: O_4  and  C_5 
REMARK    4  A    between atoms: C_8  and  C_9 
REMARK       I    between atoms: C_9  and  N_10 
REMARK    5  A    between atoms: N_10  and  C_11 
REMARK    6  A    between atoms: C_11  and  N_12 
REMARK    7  A    between atoms: N_12  and  C_13 
REMARK    8  A    between atoms: C_16  and  N_17 
REMARK    9  A    between atoms: N_20  and  C_22 
REMARK   10  A    between atoms: C_22  and  C_23 
ROOT
HETATM    1  C   UNL     1     -42.846  59.939 -56.332  1.00  0.00     0.034 A 
HETATM    2  C   UNL     1     -44.111  59.699 -55.796  1.00  0.00     0.032 A 
HETATM    3  C   UNL     1     -44.289  59.561 -54.412  1.00  0.00     0.031 A 
HETATM    4  C   UNL     1     -43.210  59.628 -53.519  1.00  0.00     0.030 A 
HETATM    5  C   UNL     1     -41.947  59.851 -54.078  1.00  0.00     0.031 A 
HETATM    6  C   UNL     1     -41.766  60.016 -55.461  1.00  0.00     0.032 A 
ENDROOT
BRANCH   1   7
HETATM    7  N   UNL     1     -42.741  59.967 -57.736  1.00  0.00    -0.333 N 
HETATM    8  H   UNL     1     -42.993  60.859 -58.167  1.00  0.00     0.168 HD
BRANCH   7   9
HETATM    9  C   UNL     1     -42.431  58.993 -58.655  1.00  0.00     0.179 C 
HETATM   10  S   UNL     1     -42.229  59.149 -60.308  1.00  0.00    -0.040 SA
BRANCH   9  11
HETATM   11  N   UNL     1     -42.273  57.723 -58.124  1.00  0.00    -0.299 N 
HETATM   12  C   UNL     1     -43.272  56.882 -57.656  1.00  0.00     0.257 C 
HETATM   13  O   UNL     1     -44.459  56.995 -57.947  1.00  0.00    -0.267 OA
HETATM   14  H   UNL     1     -41.317  57.522 -57.861  1.00  0.00     0.171 HD
BRANCH  12  15
HETATM   15  C   UNL     1     -42.831  55.816 -56.725  1.00  0.00     0.032 A 
HETATM   16  C   UNL     1     -41.687  56.055 -55.956  1.00  0.00     0.020 A 
HETATM   17  C   UNL     1     -41.187  55.062 -55.109  1.00  0.00     0.038 A 
HETATM   18  C   UNL     1     -41.838  53.831 -55.017  1.00  0.00     0.068 A 
HETATM   19  C   UNL     1     -43.001  53.611 -55.762  1.00  0.00     0.038 A 
HETATM   20  C   UNL     1     -43.501  54.596 -56.619  1.00  0.00     0.020 A 
BRANCH  18  21
HETATM   21  O   UNL     1     -41.450  52.777 -54.236  1.00  0.00    -0.351 OA
BRANCH  21  22
HETATM   22  C   UNL     1     -40.112  52.306 -54.403  1.00  0.00     0.175 C 
BRANCH  22  23
HETATM   23  C   UNL     1     -39.982  50.981 -53.657  1.00  0.00     0.022 C 
HETATM   24  C   UNL     1     -39.742  49.822 -54.608  1.00  0.00     0.007 C 
ENDBRANCH  22  23
ENDBRANCH  21  22
ENDBRANCH  18  21
ENDBRANCH  12  15
ENDBRANCH   9  11
ENDBRANCH   7   9
ENDBRANCH   1   7
BRANCH   4  25
HETATM   25  N   UNL     1     -43.422  59.416 -52.160  1.00  0.00    -0.378 N 
HETATM   26  C   UNL     1     -42.261  58.986 -51.356  1.00  0.00     0.150 C 
HETATM   27  C   UNL     1     -42.267  57.454 -51.165  1.00  0.00     0.255 C 
HETATM   28  N   UNL     1     -43.605  56.995 -50.575  1.00  0.00    -0.064 N 
HETATM   29  H   UNL     1     -43.705  57.472 -49.671  1.00  0.00     0.280 HD
HETATM   30  C   UNL     1     -44.767  57.441 -51.458  1.00  0.00     0.255 C 
HETATM   31  C   UNL     1     -44.732  58.967 -51.667  1.00  0.00     0.150 C 
BRANCH  28  32
HETATM   32  C   UNL     1     -43.653  55.513 -50.302  1.00  0.00     0.273 C 
BRANCH  32  33
HETATM   33  C   UNL     1     -42.287  54.898 -50.181  1.00  0.00    -0.033 A 
HETATM   34  C   UNL     1     -41.484  55.160 -49.060  1.00  0.00     0.009 A 
HETATM   35  C   UNL     1     -40.206  54.608 -48.960  1.00  0.00     0.001 A 
HETATM   36  C   UNL     1     -39.720  53.787 -49.976  1.00  0.00     0.000 A 
HETATM   37  C   UNL     1     -40.511  53.514 -51.090  1.00  0.00     0.001 A 
HETATM   38  C   UNL     1     -41.788  54.065 -51.194  1.00  0.00     0.009 A 
ENDBRANCH  32  33
ENDBRANCH  28  32
ENDBRANCH   4  25
TORSDOF 10
ENDMDL
MODEL 8
REMARK VINA RESULT:      -7.5     19.554     21.886
REMARK  10 active torsions:
REMARK  status: ('A' for Active; 'I' for Inactive)
REMARK    1  A    between atoms: C_2  and  C_3 
REMARK    2  A    between atoms: C_3  and  O_4 
REMARK    3  A    between atoms: O_4  and  C_5 
REMARK    4  A    between atoms: C_8  and  C_9 
REMARK       I    between atoms: C_9  and  N_10 
REMARK    5  A    between atoms: N_10  and  C_11 
REMARK    6  A    between atoms: C_11  and  N_12 
REMARK    7  A    between atoms: N_12  and  C_13 
REMARK    8  A    between atoms: C_16  and  N_17 
REMARK    9  A    between atoms: N_20  and  C_22 
REMARK   10  A    between atoms: C_22  and  C_23 
ROOT
HETATM    1  C   UNL     1     -35.334  41.567 -54.409  1.00  0.00     0.034 A 
HETATM    2  C   UNL     1     -34.610  40.557 -55.044  1.00  0.00     0.032 A 
HETATM    3  C   UNL     1     -34.845  40.245 -56.390  1.00  0.00     0.031 A 
HETATM    4  C   UNL     1     -35.827  40.906 -57.141  1.00  0.00     0.030 A 
HETATM    5  C   UNL     1     -36.554  41.903 -56.482  1.00  0.00     0.031 A 
HETATM    6  C   UNL     1     -36.306  42.239 -55.141  1.00  0.00     0.032 A 
ENDROOT
BRANCH   1   7
HETATM    7  N   UNL     1     -35.104  41.750 -53.032  1.00  0.00    -0.333 N 
HETATM    8  H   UNL     1     -34.354  42.407 -52.807  1.00  0.00     0.168 HD
BRANCH   7   9
HETATM    9  C   UNL     1     -35.652  41.155 -51.921  1.00  0.00     0.179 C 
HETATM   10  S   UNL     1     -37.247  40.734 -51.647  1.00  0.00    -0.040 SA
BRANCH   9  11
HETATM   11  N   UNL     1     -34.750  40.877 -50.907  1.00  0.00    -0.299 N 
HETATM   12  C   UNL     1     -33.679  39.996 -50.959  1.00  0.00     0.257 C 
HETATM   13  O   UNL     1     -33.173  39.588 -52.000  1.00  0.00    -0.267 OA
HETATM   14  H   UNL     1     -35.068  41.189 -50.000  1.00  0.00     0.171 HD
BRANCH  12  15
HETATM   15  C   UNL     1     -33.172  39.524 -49.649  1.00  0.00     0.032 A 
HETATM   16  C   UNL     1     -31.925  39.994 -49.225  1.00  0.00     0.020 A 
HETATM   17  C   UNL     1     -31.369  39.533 -48.028  1.00  0.00     0.038 A 
HETATM   18  C   UNL     1     -32.064  38.612 -47.244  1.00  0.00     0.068 A 
HETATM   19  C   UNL     1     -33.326  38.173 -47.657  1.00  0.00     0.038 A 
HETATM   20  C   UNL     1     -33.885  38.621 -48.857  1.00  0.00     0.020 A 
BRANCH  18  21
HETATM   21  O   UNL     1     -31.630  38.078 -46.062  1.00  0.00    -0.351 OA
BRANCH  21  22
HETATM   22  C   UNL     1     -30.370  38.537 -45.568  1.00  0.00     0.175 C 
BRANCH  22  23
HETATM   23  C   UNL     1     -30.639  39.564 -44.472  1.00  0.00     0.022 C 
HETATM   24  C   UNL     1     -29.940  40.881 -44.752  1.00  0.00     0.007 C 
ENDBRANCH  22  23
ENDBRANCH  21  22
ENDBRANCH  18  21
ENDBRANCH  12  15
ENDBRANCH   9  11
ENDBRANCH   7   9
ENDBRANCH   1   7
BRANCH   4  25
HETATM   25  N   UNL     1     -36.075  40.516 -58.455  1.00  0.00    -0.378 N 
HETATM   26  C   UNL     1     -37.277  41.070 -59.106  1.00  0.00     0.150 C 
HETATM   27  C   UNL     1     -38.449  40.068 -59.034  1.00  0.00     0.255 C 
HETATM   28  N   UNL     1     -38.028  38.712 -59.611  1.00  0.00    -0.064 N 
HETATM   29  H   UNL     1     -37.758  38.881 -60.587  1.00  0.00     0.280 HD
HETATM   30  C   UNL     1     -36.800  38.172 -58.883  1.00  0.00     0.255 C 
HETATM   31  C   UNL     1     -35.648  39.195 -58.937  1.00  0.00     0.150 C 
BRANCH  28  32
HETATM   32  C   UNL     1     -39.149  37.703 -59.630  1.00  0.00     0.273 C 
BRANCH  32  33
HETATM   33  C   UNL     1     -39.987  37.787 -60.875  1.00  0.00    -0.033 A 
HETATM   34  C   UNL     1     -39.408  37.591 -62.139  1.00  0.00     0.009 A 
HETATM   35  C   UNL     1     -40.182  37.692 -63.295  1.00  0.00     0.001 A 
HETATM   36  C   UNL     1     -41.541  37.988 -63.200  1.00  0.00     0.000 A 
HETATM   37  C   UNL     1     -42.128  38.178 -61.952  1.00  0.00     0.001 A 
HETATM   38  C   UNL     1     -41.357  38.078 -60.794  1.00  0.00     0.009 A 
ENDBRANCH  32  33
ENDBRANCH  28  32
ENDBRANCH   4  25
TORSDOF 10
ENDMDL
MODEL 9
REMARK VINA RESULT:      -7.5      5.582      9.051
REMARK  10 active torsions:
REMARK  status: ('A' for Active; 'I' for Inactive)
REMARK    1  A    between atoms: C_2  and  C_3 
REMARK    2  A    between atoms: C_3  and  O_4 
REMARK    3  A    between atoms: O_4  and  C_5 
REMARK    4  A    between atoms: C_8  and  C_9 
REMARK       I    between atoms: C_9  and  N_10 
REMARK    5  A    between atoms: N_10  and  C_11 
REMARK    6  A    between atoms: C_11  and  N_12 
REMARK    7  A    between atoms: N_12  and  C_13 
REMARK    8  A    between atoms: C_16  and  N_17 
REMARK    9  A    between atoms: N_20  and  C_22 
REMARK   10  A    between atoms: C_22  and  C_23 
ROOT
HETATM    1  C   UNL     1     -43.633  61.187 -54.336  1.00  0.00     0.034 A 
HETATM    2  C   UNL     1     -44.566  60.150 -54.329  1.00  0.00     0.032 A 
HETATM    3  C   UNL     1     -44.320  58.969 -53.614  1.00  0.00     0.031 A 
HETATM    4  C   UNL     1     -43.126  58.769 -52.908  1.00  0.00     0.030 A 
HETATM    5  C   UNL     1     -42.195  59.813 -52.941  1.00  0.00     0.031 A 
HETATM    6  C   UNL     1     -42.446  61.009 -53.633  1.00  0.00     0.032 A 
ENDROOT
BRANCH   1   7
HETATM    7  N   UNL     1     -43.914  62.296 -55.157  1.00  0.00    -0.333 N 
HETATM    8  H   UNL     1     -44.662  62.902 -54.814  1.00  0.00     0.168 HD
BRANCH   7   9
HETATM    9  C   UNL     1     -43.421  62.684 -56.379  1.00  0.00     0.179 C 
HETATM   10  S   UNL     1     -42.893  64.198 -56.854  1.00  0.00    -0.040 SA
BRANCH   9  11
HETATM   11  N   UNL     1     -43.364  61.676 -57.329  1.00  0.00    -0.299 N 
HETATM   12  C   UNL     1     -44.437  61.052 -57.950  1.00  0.00     0.257 C 
HETATM   13  O   UNL     1     -45.569  61.521 -58.003  1.00  0.00    -0.267 OA
HETATM   14  H   UNL     1     -42.459  61.230 -57.376  1.00  0.00     0.171 HD
BRANCH  12  15
HETATM   15  C   UNL     1     -44.150  59.724 -58.544  1.00  0.00     0.032 A 
HETATM   16  C   UNL     1     -44.282  58.600 -57.722  1.00  0.00     0.020 A 
HETATM   17  C   UNL     1     -43.963  57.330 -58.210  1.00  0.00     0.038 A 
HETATM   18  C   UNL     1     -43.524  57.177 -59.526  1.00  0.00     0.068 A 
HETATM   19  C   UNL     1     -43.428  58.302 -60.352  1.00  0.00     0.038 A 
HETATM   20  C   UNL     1     -43.735  59.577 -59.869  1.00  0.00     0.020 A 
BRANCH  18  21
HETATM   21  O   UNL     1     -43.174  55.997 -60.120  1.00  0.00    -0.351 OA
BRANCH  21  22
HETATM   22  C   UNL     1     -44.139  54.943 -60.087  1.00  0.00     0.175 C 
BRANCH  22  23
HETATM   23  C   UNL     1     -45.141  55.186 -61.211  1.00  0.00     0.022 C 
HETATM   24  C   UNL     1     -46.397  55.873 -60.706  1.00  0.00     0.007 C 
ENDBRANCH  22  23
ENDBRANCH  21  22
ENDBRANCH  18  21
ENDBRANCH  12  15
ENDBRANCH   9  11
ENDBRANCH   7   9
ENDBRANCH   1   7
BRANCH   4  25
HETATM   25  N   UNL     1     -42.893  57.554 -52.269  1.00  0.00    -0.378 N 
HETATM   26  C   UNL     1     -41.487  57.164 -52.054  1.00  0.00     0.150 C 
HETATM   27  C   UNL     1     -41.014  56.193 -53.158  1.00  0.00     0.255 C 
HETATM   28  N   UNL     1     -41.960  54.990 -53.251  1.00  0.00    -0.064 N 
HETATM   29  H   UNL     1     -41.940  54.531 -52.333  1.00  0.00     0.280 HD
HETATM   30  C   UNL     1     -43.394  55.448 -53.502  1.00  0.00     0.255 C 
HETATM   31  C   UNL     1     -43.843  56.440 -52.411  1.00  0.00     0.150 C 
BRANCH  28  32
HETATM   32  C   UNL     1     -41.519  53.968 -54.268  1.00  0.00     0.273 C 
BRANCH  32  33
HETATM   33  C   UNL     1     -40.796  52.804 -53.649  1.00  0.00    -0.033 A 
HETATM   34  C   UNL     1     -40.433  52.830 -52.293  1.00  0.00     0.009 A 
HETATM   35  C   UNL     1     -39.740  51.760 -51.726  1.00  0.00     0.001 A 
HETATM   36  C   UNL     1     -39.407  50.653 -52.506  1.00  0.00     0.000 A 
HETATM   37  C   UNL     1     -39.768  50.614 -53.850  1.00  0.00     0.001 A 
HETATM   38  C   UNL     1     -40.460  51.682 -54.421  1.00  0.00     0.009 A 
ENDBRANCH  32  33
ENDBRANCH  28  32
ENDBRANCH   4  25
TORSDOF 10
ENDMDL
MODEL 10
REMARK VINA RESULT:      -7.5      4.723      8.186
REMARK  10 active torsions:
REMARK  status: ('A' for Active; 'I' for Inactive)
REMARK    1  A    between atoms: C_2  and  C_3 
REMARK    2  A    between atoms: C_3  and  O_4 
REMARK    3  A    between atoms: O_4  and  C_5 
REMARK    4  A    between atoms: C_8  and  C_9 
REMARK       I    between atoms: C_9  and  N_10 
REMARK    5  A    between atoms: N_10  and  C_11 
REMARK    6  A    between atoms: C_11  and  N_12 
REMARK    7  A    between atoms: N_12  and  C_13 
REMARK    8  A    between atoms: C_16  and  N_17 
REMARK    9  A    between atoms: N_20  and  C_22 
REMARK   10  A    between atoms: C_22  and  C_23 
ROOT
HETATM    1  C   UNL     1     -43.310  60.441 -52.175  1.00  0.00     0.034 A 
HETATM    2  C   UNL     1     -42.129  59.964 -51.607  1.00  0.00     0.032 A 
HETATM    3  C   UNL     1     -41.961  58.598 -51.342  1.00  0.00     0.031 A 
HETATM    4  C   UNL     1     -42.974  57.665 -51.606  1.00  0.00     0.030 A 
HETATM    5  C   UNL     1     -44.158  58.165 -52.160  1.00  0.00     0.031 A 
HETATM    6  C   UNL     1     -44.322  59.530 -52.452  1.00  0.00     0.032 A 
ENDROOT
BRANCH   1   7
HETATM    7  N   UNL     1     -43.434  61.837 -52.318  1.00  0.00    -0.333 N 
HETATM    8  H   UNL     1     -43.913  62.305 -51.545  1.00  0.00     0.168 HD
BRANCH   7   9
HETATM    9  C   UNL     1     -43.098  62.690 -53.340  1.00  0.00     0.179 C 
HETATM   10  S   UNL     1     -42.968  64.357 -53.304  1.00  0.00    -0.040 SA
BRANCH   9  11
HETATM   11  N   UNL     1     -42.838  62.071 -54.553  1.00  0.00    -0.299 N 
HETATM   12  C   UNL     1     -43.759  61.742 -55.537  1.00  0.00     0.257 C 
HETATM   13  O   UNL     1     -44.875  62.245 -55.632  1.00  0.00    -0.267 OA
HETATM   14  H   UNL     1     -41.928  61.632 -54.584  1.00  0.00     0.171 HD
BRANCH  12  15
HETATM   15  C   UNL     1     -43.331  60.690 -56.490  1.00  0.00     0.032 A 
HETATM   16  C   UNL     1     -43.322  59.366 -56.039  1.00  0.00     0.020 A 
HETATM   17  C   UNL     1     -42.867  58.342 -56.873  1.00  0.00     0.038 A 
HETATM   18  C   UNL     1     -42.433  58.635 -58.167  1.00  0.00     0.068 A 
HETATM   19  C   UNL     1     -42.478  59.956 -58.623  1.00  0.00     0.038 A 
HETATM   20  C   UNL     1     -42.922  60.988 -57.792  1.00  0.00     0.020 A 
BRANCH  18  21
HETATM   21  O   UNL     1     -41.959  57.730 -59.076  1.00  0.00    -0.351 OA
BRANCH  21  22
HETATM   22  C   UNL     1     -42.719  56.534 -59.258  1.00  0.00     0.175 C 
BRANCH  22  23
HETATM   23  C   UNL     1     -43.844  56.835 -60.243  1.00  0.00     0.022 C 
HETATM   24  C   UNL     1     -44.543  55.568 -60.702  1.00  0.00     0.007 C 
ENDBRANCH  22  23
ENDBRANCH  21  22
ENDBRANCH  18  21
ENDBRANCH  12  15
ENDBRANCH   9  11
ENDBRANCH   7   9
ENDBRANCH   1   7
BRANCH   4  25
HETATM   25  N   UNL     1     -42.792  56.328 -51.264  1.00  0.00    -0.378 N 
HETATM   26  C   UNL     1     -41.464  55.939 -50.754  1.00  0.00     0.150 C 
HETATM   27  C   UNL     1     -40.603  55.329 -51.881  1.00  0.00     0.255 C 
HETATM   28  N   UNL     1     -41.348  54.171 -52.555  1.00  0.00    -0.064 N 
HETATM   29  H   UNL     1     -41.528  53.475 -51.822  1.00  0.00     0.280 HD
HETATM   30  C   UNL     1     -42.700  54.635 -53.088  1.00  0.00     0.255 C 
HETATM   31  C   UNL     1     -43.536  55.269 -51.960  1.00  0.00     0.150 C 
BRANCH  28  32
HETATM   32  C   UNL     1     -40.535  53.488 -53.625  1.00  0.00     0.273 C 
BRANCH  32  33
HETATM   33  C   UNL     1     -40.181  52.070 -53.273  1.00  0.00    -0.033 A 
HETATM   34  C   UNL     1     -39.882  51.718 -51.947  1.00  0.00     0.009 A 
HETATM   35  C   UNL     1     -39.530  50.407 -51.625  1.00  0.00     0.001 A 
HETATM   36  C   UNL     1     -39.477  49.435 -52.623  1.00  0.00     0.000 A 
HETATM   37  C   UNL     1     -39.779  49.770 -53.940  1.00  0.00     0.001 A 
HETATM   38  C   UNL     1     -40.130  51.080 -54.266  1.00  0.00     0.009 A 
ENDBRANCH  32  33
ENDBRANCH  28  32
ENDBRANCH   4  25
TORSDOF 10
ENDMDL
