MODEL 1
REMARK VINA RESULT:      -8.9      0.000      0.000
REMARK  5 active torsions:
REMARK  status: ('A' for Active; 'I' for Inactive)
REMARK    1  A    between atoms: C_18  and  C_19 
REMARK       I    between atoms: C_19  and  N_20 
REMARK    2  A    between atoms: N_20  and  C_21 
REMARK    3  A    between atoms: C_21  and  C_22 
REMARK    4  A    between atoms: C_22  and  C_23 
REMARK    5  A    between atoms: C_26  and  O_27 
ROOT
HETATM    1  C   UNL     1     -40.015  58.784 -52.763  1.00  0.00     0.016 C 
HETATM    2  C   UNL     1     -41.510  58.781 -52.952  1.00  0.00    -0.028 C 
HETATM    3  C   UNL     1     -42.010  58.215 -54.583  1.00  0.00     0.058 C 
HETATM    4  C   UNL     1     -43.759  57.497 -54.535  1.00  0.00     0.095 C 
HETATM    5  N   UNL     1     -43.827  56.050 -54.572  1.00  0.00    -0.334 N 
HETATM    6  C   UNL     1     -43.419  55.330 -55.660  1.00  0.00     0.255 C 
HETATM    7  O   UNL     1     -43.151  54.138 -55.585  1.00  0.00    -0.268 OA
HETATM    8  C   UNL     1     -43.341  56.081 -56.926  1.00  0.00     0.053 A 
HETATM    9  C   UNL     1     -43.847  57.390 -56.934  1.00  0.00     0.026 A 
HETATM   10  N   UNL     1     -44.425  57.945 -55.772  1.00  0.00    -0.265 NA
HETATM   11  C   UNL     1     -42.811  55.493 -58.077  1.00  0.00     0.019 A 
HETATM   12  C   UNL     1     -42.786  56.220 -59.263  1.00  0.00     0.001 A 
HETATM   13  C   UNL     1     -43.316  57.510 -59.298  1.00  0.00     0.002 A 
HETATM   14  C   UNL     1     -43.864  58.084 -58.145  1.00  0.00     0.024 A 
HETATM   15  C   UNL     1     -44.627  58.084 -53.131  1.00  0.00     0.030 C 
HETATM   16  C   UNL     1     -44.145  58.590 -51.516  1.00  0.00     0.009 C 
HETATM   17  C   UNL     1     -42.415  59.389 -51.527  1.00  0.00     0.010 C 
HETATM   18  C   UNL     1     -42.365  57.703 -52.610  1.00  0.00     0.086 C 
HETATM   19  C   UNL     1     -43.613  59.043 -53.267  1.00  0.00     0.023 C 
HETATM   20  H   UNL     1     -43.880  55.522 -53.711  1.00  0.00     0.164 HD
HETATM   21  H   UNL     1     -44.525  58.952 -55.845  1.00  0.00     0.130 HD
ENDROOT
BRANCH  18  22
HETATM   22  C   UNL     1     -41.907  56.877 -51.302  1.00  0.00     0.222 C 
HETATM   23  N   UNL     1     -42.370  55.575 -51.391  1.00  0.00    -0.360 N 
HETATM   24  H   UNL     1     -42.841  55.293 -52.242  1.00  0.00     0.162 HD
HETATM   25  O   UNL     1     -41.308  57.277 -50.315  1.00  0.00    -0.273 OA
BRANCH  23  26
HETATM   26  C   UNL     1     -42.090  54.511 -50.447  1.00  0.00     0.127 C 
BRANCH  26  27
HETATM   27  C   UNL     1     -40.589  54.176 -50.384  1.00  0.00     0.058 C 
BRANCH  27  28
HETATM   28  C   UNL     1     -40.209  52.950 -51.188  1.00  0.00    -0.057 A 
HETATM   29  C   UNL     1     -40.146  52.986 -52.586  1.00  0.00     0.010 A 
HETATM   30  C   UNL     1     -39.909  51.814 -53.310  1.00  0.00     0.037 A 
HETATM   31  C   UNL     1     -39.714  50.595 -52.656  1.00  0.00     0.068 A 
HETATM   32  C   UNL     1     -39.766  50.555 -51.265  1.00  0.00     0.037 A 
HETATM   33  C   UNL     1     -40.010  51.725 -50.537  1.00  0.00     0.010 A 
BRANCH  31  34
HETATM   34  O   UNL     1     -39.504  49.524 -53.481  1.00  0.00    -0.356 OA
HETATM   35  C   UNL     1     -39.811  49.715 -54.857  1.00  0.00     0.210 C 
ENDBRANCH  31  34
ENDBRANCH  27  28
ENDBRANCH  26  27
ENDBRANCH  23  26
ENDBRANCH  18  22
TORSDOF 5
ENDMDL
MODEL 2
REMARK VINA RESULT:      -8.6      1.376      1.667
REMARK  5 active torsions:
REMARK  status: ('A' for Active; 'I' for Inactive)
REMARK    1  A    between atoms: C_18  and  C_19 
REMARK       I    between atoms: C_19  and  N_20 
REMARK    2  A    between atoms: N_20  and  C_21 
REMARK    3  A    between atoms: C_21  and  C_22 
REMARK    4  A    between atoms: C_22  and  C_23 
REMARK    5  A    between atoms: C_26  and  O_27 
ROOT
HETATM    1  C   UNL     1     -40.888  59.349 -53.064  1.00  0.00     0.016 C 
HETATM    2  C   UNL     1     -42.259  59.473 -53.674  1.00  0.00    -0.028 C 
HETATM    3  C   UNL     1     -42.283  59.092 -55.431  1.00  0.00     0.058 C 
HETATM    4  C   UNL     1     -43.999  58.504 -55.964  1.00  0.00     0.095 C 
HETATM    5  N   UNL     1     -44.118  57.074 -56.173  1.00  0.00    -0.334 N 
HETATM    6  C   UNL     1     -43.439  56.425 -57.168  1.00  0.00     0.255 C 
HETATM    7  O   UNL     1     -43.259  55.215 -57.146  1.00  0.00    -0.268 OA
HETATM    8  C   UNL     1     -42.960  57.277 -58.271  1.00  0.00     0.053 A 
HETATM    9  C   UNL     1     -43.383  58.615 -58.285  1.00  0.00     0.026 A 
HETATM   10  N   UNL     1     -44.252  59.107 -57.286  1.00  0.00    -0.265 NA
HETATM   11  C   UNL     1     -42.142  56.756 -59.275  1.00  0.00     0.019 A 
HETATM   12  C   UNL     1     -41.737  57.581 -60.320  1.00  0.00     0.001 A 
HETATM   13  C   UNL     1     -42.175  58.905 -60.369  1.00  0.00     0.002 A 
HETATM   14  C   UNL     1     -43.012  59.414 -59.369  1.00  0.00     0.024 A 
HETATM   15  C   UNL     1     -45.214  59.026 -54.816  1.00  0.00     0.030 C 
HETATM   16  C   UNL     1     -45.206  59.351 -53.087  1.00  0.00     0.009 C 
HETATM   17  C   UNL     1     -43.516  60.018 -52.514  1.00  0.00     0.010 C 
HETATM   18  C   UNL     1     -43.225  58.436 -53.710  1.00  0.00     0.086 C 
HETATM   19  C   UNL     1     -44.163  59.916 -54.552  1.00  0.00     0.023 C 
HETATM   20  H   UNL     1     -44.445  56.477 -55.425  1.00  0.00     0.164 HD
HETATM   21  H   UNL     1     -44.281  60.121 -57.278  1.00  0.00     0.130 HD
ENDROOT
BRANCH  18  22
HETATM   22  C   UNL     1     -43.208  57.466 -52.420  1.00  0.00     0.222 C 
HETATM   23  N   UNL     1     -43.298  56.147 -52.832  1.00  0.00    -0.360 N 
HETATM   24  H   UNL     1     -43.286  55.955 -53.826  1.00  0.00     0.162 HD
HETATM   25  O   UNL     1     -43.192  57.766 -51.236  1.00  0.00    -0.273 OA
BRANCH  23  26
HETATM   26  C   UNL     1     -43.231  54.983 -51.968  1.00  0.00     0.127 C 
BRANCH  26  27
HETATM   27  C   UNL     1     -41.836  54.812 -51.341  1.00  0.00     0.058 C 
BRANCH  27  28
HETATM   28  C   UNL     1     -41.013  53.717 -51.988  1.00  0.00    -0.057 A 
HETATM   29  C   UNL     1     -41.016  53.526 -53.374  1.00  0.00     0.010 A 
HETATM   30  C   UNL     1     -40.343  52.437 -53.935  1.00  0.00     0.037 A 
HETATM   31  C   UNL     1     -39.644  51.534 -53.131  1.00  0.00     0.068 A 
HETATM   32  C   UNL     1     -39.629  51.726 -51.751  1.00  0.00     0.037 A 
HETATM   33  C   UNL     1     -40.308  52.810 -51.185  1.00  0.00     0.010 A 
BRANCH  31  34
HETATM   34  O   UNL     1     -39.040  50.507 -53.803  1.00  0.00    -0.356 OA
HETATM   35  C   UNL     1     -39.857  49.781 -54.714  1.00  0.00     0.210 C 
ENDBRANCH  31  34
ENDBRANCH  27  28
ENDBRANCH  26  27
ENDBRANCH  23  26
ENDBRANCH  18  22
TORSDOF 5
ENDMDL
MODEL 3
REMARK VINA RESULT:      -8.4      2.305      3.474
REMARK  5 active torsions:
REMARK  status: ('A' for Active; 'I' for Inactive)
REMARK    1  A    between atoms: C_18  and  C_19 
REMARK       I    between atoms: C_19  and  N_20 
REMARK    2  A    between atoms: N_20  and  C_21 
REMARK    3  A    between atoms: C_21  and  C_22 
REMARK    4  A    between atoms: C_22  and  C_23 
REMARK    5  A    between atoms: C_26  and  O_27 
ROOT
HETATM    1  C   UNL     1     -41.359  59.640 -54.138  1.00  0.00     0.016 C 
HETATM    2  C   UNL     1     -42.623  58.825 -54.234  1.00  0.00    -0.028 C 
HETATM    3  C   UNL     1     -43.436  58.976 -55.830  1.00  0.00     0.058 C 
HETATM    4  C   UNL     1     -44.483  57.444 -56.195  1.00  0.00     0.095 C 
HETATM    5  N   UNL     1     -43.903  56.521 -57.150  1.00  0.00    -0.334 N 
HETATM    6  C   UNL     1     -43.702  56.859 -58.460  1.00  0.00     0.255 C 
HETATM    7  O   UNL     1     -42.925  56.242 -59.176  1.00  0.00    -0.268 OA
HETATM    8  C   UNL     1     -44.497  57.999 -58.951  1.00  0.00     0.053 A 
HETATM    9  C   UNL     1     -45.489  58.511 -58.100  1.00  0.00     0.026 A 
HETATM   10  N   UNL     1     -45.720  57.930 -56.833  1.00  0.00    -0.265 NA
HETATM   11  C   UNL     1     -44.284  58.524 -60.227  1.00  0.00     0.019 A 
HETATM   12  C   UNL     1     -45.077  59.578 -60.671  1.00  0.00     0.001 A 
HETATM   13  C   UNL     1     -46.091  60.077 -59.852  1.00  0.00     0.002 A 
HETATM   14  C   UNL     1     -46.311  59.532 -58.581  1.00  0.00     0.024 A 
HETATM   15  C   UNL     1     -44.859  56.588 -54.714  1.00  0.00     0.030 C 
HETATM   16  C   UNL     1     -44.041  56.397 -53.167  1.00  0.00     0.009 C 
HETATM   17  C   UNL     1     -43.030  57.950 -52.721  1.00  0.00     0.010 C 
HETATM   18  C   UNL     1     -42.679  57.467 -54.635  1.00  0.00     0.086 C 
HETATM   19  C   UNL     1     -44.539  57.868 -54.236  1.00  0.00     0.023 C 
HETATM   20  H   UNL     1     -43.356  55.734 -56.827  1.00  0.00     0.164 HD
HETATM   21  H   UNL     1     -46.281  58.533 -56.239  1.00  0.00     0.130 HD
ENDROOT
BRANCH  18  22
HETATM   22  C   UNL     1     -41.408  56.583 -54.178  1.00  0.00     0.222 C 
HETATM   23  N   UNL     1     -41.299  55.472 -54.996  1.00  0.00    -0.360 N 
HETATM   24  H   UNL     1     -41.937  55.389 -55.778  1.00  0.00     0.162 HD
HETATM   25  O   UNL     1     -40.654  56.758 -53.233  1.00  0.00    -0.273 OA
BRANCH  23  26
HETATM   26  C   UNL     1     -40.235  54.487 -54.949  1.00  0.00     0.127 C 
BRANCH  26  27
HETATM   27  C   UNL     1     -40.693  53.175 -54.288  1.00  0.00     0.058 C 
BRANCH  27  28
HETATM   28  C   UNL     1     -40.881  53.286 -52.789  1.00  0.00    -0.057 A 
HETATM   29  C   UNL     1     -42.098  53.700 -52.237  1.00  0.00     0.010 A 
HETATM   30  C   UNL     1     -42.211  53.908 -50.859  1.00  0.00     0.037 A 
HETATM   31  C   UNL     1     -41.123  53.691 -50.010  1.00  0.00     0.068 A 
HETATM   32  C   UNL     1     -39.912  53.269 -50.554  1.00  0.00     0.037 A 
HETATM   33  C   UNL     1     -39.793  53.067 -51.933  1.00  0.00     0.010 A 
BRANCH  31  34
HETATM   34  O   UNL     1     -41.363  53.944 -48.687  1.00  0.00    -0.356 OA
HETATM   35  C   UNL     1     -40.234  53.907 -47.822  1.00  0.00     0.210 C 
ENDBRANCH  31  34
ENDBRANCH  27  28
ENDBRANCH  26  27
ENDBRANCH  23  26
ENDBRANCH  18  22
TORSDOF 5
ENDMDL
MODEL 4
REMARK VINA RESULT:      -8.3      2.841      5.453
REMARK  5 active torsions:
REMARK  status: ('A' for Active; 'I' for Inactive)
REMARK    1  A    between atoms: C_18  and  C_19 
REMARK       I    between atoms: C_19  and  N_20 
REMARK    2  A    between atoms: N_20  and  C_21 
REMARK    3  A    between atoms: C_21  and  C_22 
REMARK    4  A    between atoms: C_22  and  C_23 
REMARK    5  A    between atoms: C_26  and  O_27 
ROOT
HETATM    1  C   UNL     1     -44.750  58.379 -55.415  1.00  0.00     0.016 C 
HETATM    2  C   UNL     1     -43.718  58.906 -54.453  1.00  0.00    -0.028 C 
HETATM    3  C   UNL     1     -44.360  60.187 -53.368  1.00  0.00     0.058 C 
HETATM    4  C   UNL     1     -43.372  60.256 -51.757  1.00  0.00     0.095 C 
HETATM    5  N   UNL     1     -44.032  59.666 -50.609  1.00  0.00    -0.334 N 
HETATM    6  C   UNL     1     -45.181  60.187 -50.082  1.00  0.00     0.255 C 
HETATM    7  O   UNL     1     -45.918  59.531 -49.358  1.00  0.00    -0.268 OA
HETATM    8  C   UNL     1     -45.458  61.593 -50.428  1.00  0.00     0.053 A 
HETATM    9  C   UNL     1     -44.455  62.301 -51.108  1.00  0.00     0.026 A 
HETATM   10  N   UNL     1     -43.224  61.684 -51.422  1.00  0.00    -0.265 NA
HETATM   11  C   UNL     1     -46.663  62.196 -50.064  1.00  0.00     0.019 A 
HETATM   12  C   UNL     1     -46.877  63.535 -50.377  1.00  0.00     0.001 A 
HETATM   13  C   UNL     1     -45.877  64.265 -51.022  1.00  0.00     0.002 A 
HETATM   14  C   UNL     1     -44.663  63.658 -51.366  1.00  0.00     0.024 A 
HETATM   15  C   UNL     1     -41.798  59.515 -51.967  1.00  0.00     0.030 C 
HETATM   16  C   UNL     1     -41.178  58.227 -52.993  1.00  0.00     0.009 C 
HETATM   17  C   UNL     1     -42.096  58.166 -54.661  1.00  0.00     0.010 C 
HETATM   18  C   UNL     1     -43.437  58.345 -53.182  1.00  0.00     0.086 C 
HETATM   19  C   UNL     1     -42.161  59.808 -53.290  1.00  0.00     0.023 C 
HETATM   20  H   UNL     1     -43.851  58.702 -50.359  1.00  0.00     0.164 HD
HETATM   21  H   UNL     1     -42.700  62.216 -52.109  1.00  0.00     0.130 HD
ENDROOT
BRANCH  18  22
HETATM   22  C   UNL     1     -43.578  56.738 -53.117  1.00  0.00     0.222 C 
HETATM   23  N   UNL     1     -43.323  56.304 -51.827  1.00  0.00    -0.360 N 
HETATM   24  H   UNL     1     -43.166  57.001 -51.110  1.00  0.00     0.162 HD
HETATM   25  O   UNL     1     -43.801  55.951 -54.024  1.00  0.00    -0.273 OA
BRANCH  23  26
HETATM   26  C   UNL     1     -43.432  54.935 -51.358  1.00  0.00     0.127 C 
BRANCH  26  27
HETATM   27  C   UNL     1     -42.154  54.468 -50.640  1.00  0.00     0.058 C 
BRANCH  27  28
HETATM   28  C   UNL     1     -41.276  53.572 -51.490  1.00  0.00    -0.057 A 
HETATM   29  C   UNL     1     -41.388  53.555 -52.884  1.00  0.00     0.010 A 
HETATM   30  C   UNL     1     -40.652  52.635 -53.638  1.00  0.00     0.037 A 
HETATM   31  C   UNL     1     -39.783  51.734 -53.018  1.00  0.00     0.068 A 
HETATM   32  C   UNL     1     -39.661  51.754 -51.631  1.00  0.00     0.037 A 
HETATM   33  C   UNL     1     -40.401  52.668 -50.873  1.00  0.00     0.010 A 
BRANCH  31  34
HETATM   34  O   UNL     1     -39.133  50.880 -53.867  1.00  0.00    -0.356 OA
HETATM   35  C   UNL     1     -39.937  49.909 -54.525  1.00  0.00     0.210 C 
ENDBRANCH  31  34
ENDBRANCH  27  28
ENDBRANCH  26  27
ENDBRANCH  23  26
ENDBRANCH  18  22
TORSDOF 5
ENDMDL
MODEL 5
REMARK VINA RESULT:      -8.3      2.820      5.790
REMARK  5 active torsions:
REMARK  status: ('A' for Active; 'I' for Inactive)
REMARK    1  A    between atoms: C_18  and  C_19 
REMARK       I    between atoms: C_19  and  N_20 
REMARK    2  A    between atoms: N_20  and  C_21 
REMARK    3  A    between atoms: C_21  and  C_22 
REMARK    4  A    between atoms: C_22  and  C_23 
REMARK    5  A    between atoms: C_26  and  O_27 
ROOT
HETATM    1  C   UNL     1     -42.266  60.299 -55.079  1.00  0.00     0.016 C 
HETATM    2  C   UNL     1     -41.925  59.877 -53.673  1.00  0.00    -0.028 C 
HETATM    3  C   UNL     1     -42.929  60.701 -52.431  1.00  0.00     0.058 C 
HETATM    4  C   UNL     1     -43.048  59.651 -50.862  1.00  0.00     0.095 C 
HETATM    5  N   UNL     1     -44.309  58.958 -50.685  1.00  0.00    -0.334 N 
HETATM    6  C   UNL     1     -45.485  59.626 -50.487  1.00  0.00     0.255 C 
HETATM    7  O   UNL     1     -46.572  59.095 -50.675  1.00  0.00    -0.268 OA
HETATM    8  C   UNL     1     -45.355  61.016 -50.014  1.00  0.00     0.053 A 
HETATM    9  C   UNL     1     -44.073  61.460 -49.655  1.00  0.00     0.026 A 
HETATM   10  N   UNL     1     -42.963  60.589 -49.728  1.00  0.00    -0.265 NA
HETATM   11  C   UNL     1     -46.474  61.843 -49.904  1.00  0.00     0.019 A 
HETATM   12  C   UNL     1     -46.319  63.139 -49.421  1.00  0.00     0.001 A 
HETATM   13  C   UNL     1     -45.057  63.586 -49.027  1.00  0.00     0.002 A 
HETATM   14  C   UNL     1     -43.943  62.744 -49.122  1.00  0.00     0.024 A 
HETATM   15  C   UNL     1     -41.734  58.495 -50.794  1.00  0.00     0.030 C 
HETATM   16  C   UNL     1     -40.784  57.648 -52.009  1.00  0.00     0.009 C 
HETATM   17  C   UNL     1     -40.573  58.700 -53.583  1.00  0.00     0.010 C 
HETATM   18  C   UNL     1     -42.492  58.763 -53.004  1.00  0.00     0.086 C 
HETATM   19  C   UNL     1     -41.234  59.451 -51.691  1.00  0.00     0.023 C 
HETATM   20  H   UNL     1     -44.412  58.004 -51.004  1.00  0.00     0.164 HD
HETATM   21  H   UNL     1     -42.084  61.094 -49.675  1.00  0.00     0.130 HD
ENDROOT
BRANCH  18  22
HETATM   22  C   UNL     1     -42.821  57.506 -53.963  1.00  0.00     0.222 C 
HETATM   23  N   UNL     1     -43.101  56.394 -53.187  1.00  0.00    -0.360 N 
HETATM   24  H   UNL     1     -43.140  56.510 -52.182  1.00  0.00     0.162 HD
HETATM   25  O   UNL     1     -42.783  57.443 -55.182  1.00  0.00    -0.273 OA
BRANCH  23  26
HETATM   26  C   UNL     1     -43.522  55.099 -53.687  1.00  0.00     0.127 C 
BRANCH  26  27
HETATM   27  C   UNL     1     -42.417  54.409 -54.504  1.00  0.00     0.058 C 
BRANCH  27  28
HETATM   28  C   UNL     1     -41.571  53.451 -53.691  1.00  0.00    -0.057 A 
HETATM   29  C   UNL     1     -41.328  53.670 -52.330  1.00  0.00     0.010 A 
HETATM   30  C   UNL     1     -40.449  52.838 -51.630  1.00  0.00     0.037 A 
HETATM   31  C   UNL     1     -39.814  51.769 -52.266  1.00  0.00     0.068 A 
HETATM   32  C   UNL     1     -40.060  51.541 -53.618  1.00  0.00     0.037 A 
HETATM   33  C   UNL     1     -40.933  52.376 -54.324  1.00  0.00     0.010 A 
BRANCH  31  34
HETATM   34  O   UNL     1     -38.970  51.042 -51.472  1.00  0.00    -0.356 OA
HETATM   35  C   UNL     1     -39.488  49.827 -50.944  1.00  0.00     0.210 C 
ENDBRANCH  31  34
ENDBRANCH  27  28
ENDBRANCH  26  27
ENDBRANCH  23  26
ENDBRANCH  18  22
TORSDOF 5
ENDMDL
MODEL 6
REMARK VINA RESULT:      -8.2      2.503      3.841
REMARK  5 active torsions:
REMARK  status: ('A' for Active; 'I' for Inactive)
REMARK    1  A    between atoms: C_18  and  C_19 
REMARK       I    between atoms: C_19  and  N_20 
REMARK    2  A    between atoms: N_20  and  C_21 
REMARK    3  A    between atoms: C_21  and  C_22 
REMARK    4  A    between atoms: C_22  and  C_23 
REMARK    5  A    between atoms: C_26  and  O_27 
ROOT
HETATM    1  C   UNL     1     -41.605  59.368 -54.354  1.00  0.00     0.016 C 
HETATM    2  C   UNL     1     -42.920  59.243 -55.078  1.00  0.00    -0.028 C 
HETATM    3  C   UNL     1     -42.817  59.723 -56.807  1.00  0.00     0.058 C 
HETATM    4  C   UNL     1     -44.157  58.858 -57.823  1.00  0.00     0.095 C 
HETATM    5  N   UNL     1     -43.692  57.749 -58.632  1.00  0.00    -0.334 N 
HETATM    6  C   UNL     1     -42.826  57.922 -59.676  1.00  0.00     0.255 C 
HETATM    7  O   UNL     1     -42.171  56.996 -60.136  1.00  0.00    -0.268 OA
HETATM    8  C   UNL     1     -42.750  59.291 -60.218  1.00  0.00     0.053 A 
HETATM    9  C   UNL     1     -43.677  60.229 -59.738  1.00  0.00     0.026 A 
HETATM   10  N   UNL     1     -44.654  59.855 -58.789  1.00  0.00    -0.265 NA
HETATM   11  C   UNL     1     -41.808  59.625 -61.192  1.00  0.00     0.019 A 
HETATM   12  C   UNL     1     -41.787  60.917 -61.707  1.00  0.00     0.001 A 
HETATM   13  C   UNL     1     -42.724  61.854 -61.267  1.00  0.00     0.002 A 
HETATM   14  C   UNL     1     -43.679  61.506 -60.304  1.00  0.00     0.024 A 
HETATM   15  C   UNL     1     -45.461  58.314 -56.787  1.00  0.00     0.030 C 
HETATM   16  C   UNL     1     -45.556  57.796 -55.108  1.00  0.00     0.009 C 
HETATM   17  C   UNL     1     -44.270  58.698 -54.029  1.00  0.00     0.010 C 
HETATM   18  C   UNL     1     -43.384  58.063 -55.712  1.00  0.00     0.086 C 
HETATM   19  C   UNL     1     -44.855  59.303 -55.997  1.00  0.00     0.023 C 
HETATM   20  H   UNL     1     -43.737  56.805 -58.273  1.00  0.00     0.164 HD
HETATM   21  H   UNL     1     -45.090  60.664 -58.359  1.00  0.00     0.130 HD
ENDROOT
BRANCH  18  22
HETATM   22  C   UNL     1     -42.956  56.695 -54.969  1.00  0.00     0.222 C 
HETATM   23  N   UNL     1     -42.741  55.705 -55.912  1.00  0.00    -0.360 N 
HETATM   24  H   UNL     1     -42.798  55.957 -56.891  1.00  0.00     0.162 HD
HETATM   25  O   UNL     1     -42.877  56.466 -53.772  1.00  0.00    -0.273 OA
BRANCH  23  26
HETATM   26  C   UNL     1     -42.264  54.363 -55.636  1.00  0.00     0.127 C 
BRANCH  26  27
HETATM   27  C   UNL     1     -40.762  54.342 -55.304  1.00  0.00     0.058 C 
BRANCH  27  28
HETATM   28  C   UNL     1     -40.426  53.526 -54.073  1.00  0.00    -0.057 A 
HETATM   29  C   UNL     1     -40.040  52.185 -54.172  1.00  0.00     0.010 A 
HETATM   30  C   UNL     1     -39.850  51.420 -53.017  1.00  0.00     0.037 A 
HETATM   31  C   UNL     1     -40.024  51.981 -51.750  1.00  0.00     0.068 A 
HETATM   32  C   UNL     1     -40.399  53.318 -51.646  1.00  0.00     0.037 A 
HETATM   33  C   UNL     1     -40.597  54.085 -52.799  1.00  0.00     0.010 A 
BRANCH  31  34
HETATM   34  O   UNL     1     -39.820  51.122 -50.704  1.00  0.00    -0.356 OA
HETATM   35  C   UNL     1     -39.471  49.785 -51.043  1.00  0.00     0.210 C 
ENDBRANCH  31  34
ENDBRANCH  27  28
ENDBRANCH  26  27
ENDBRANCH  23  26
ENDBRANCH  18  22
TORSDOF 5
ENDMDL
MODEL 7
REMARK VINA RESULT:      -8.1      2.567      5.826
REMARK  5 active torsions:
REMARK  status: ('A' for Active; 'I' for Inactive)
REMARK    1  A    between atoms: C_18  and  C_19 
REMARK       I    between atoms: C_19  and  N_20 
REMARK    2  A    between atoms: N_20  and  C_21 
REMARK    3  A    between atoms: C_21  and  C_22 
REMARK    4  A    between atoms: C_22  and  C_23 
REMARK    5  A    between atoms: C_26  and  O_27 
ROOT
HETATM    1  C   UNL     1     -45.747  57.393 -55.573  1.00  0.00     0.016 C 
HETATM    2  C   UNL     1     -44.683  58.420 -55.859  1.00  0.00    -0.028 C 
HETATM    3  C   UNL     1     -44.246  59.398 -54.416  1.00  0.00     0.058 C 
HETATM    4  C   UNL     1     -42.484  60.067 -54.570  1.00  0.00     0.095 C 
HETATM    5  N   UNL     1     -41.496  59.376 -53.766  1.00  0.00    -0.334 N 
HETATM    6  C   UNL     1     -41.526  59.394 -52.399  1.00  0.00     0.255 C 
HETATM    7  O   UNL     1     -40.930  58.564 -51.726  1.00  0.00    -0.268 OA
HETATM    8  C   UNL     1     -42.306  60.490 -51.796  1.00  0.00     0.053 A 
HETATM    9  C   UNL     1     -42.791  61.488 -52.655  1.00  0.00     0.026 A 
HETATM   10  N   UNL     1     -42.515  61.443 -54.039  1.00  0.00    -0.265 NA
HETATM   11  C   UNL     1     -42.524  60.540 -50.418  1.00  0.00     0.019 A 
HETATM   12  C   UNL     1     -43.236  61.607 -49.879  1.00  0.00     0.001 A 
HETATM   13  C   UNL     1     -43.696  62.627 -50.714  1.00  0.00     0.002 A 
HETATM   14  C   UNL     1     -43.456  62.579 -52.092  1.00  0.00     0.024 A 
HETATM   15  C   UNL     1     -41.971  60.073 -56.244  1.00  0.00     0.030 C 
HETATM   16  C   UNL     1     -42.358  59.084 -57.648  1.00  0.00     0.009 C 
HETATM   17  C   UNL     1     -44.153  58.447 -57.574  1.00  0.00     0.010 C 
HETATM   18  C   UNL     1     -43.288  58.179 -55.785  1.00  0.00     0.086 C 
HETATM   19  C   UNL     1     -43.368  60.032 -56.369  1.00  0.00     0.023 C 
HETATM   20  H   UNL     1     -40.953  58.622 -54.167  1.00  0.00     0.164 HD
HETATM   21  H   UNL     1     -43.113  62.073 -54.564  1.00  0.00     0.130 HD
ENDROOT
BRANCH  18  22
HETATM   22  C   UNL     1     -42.843  56.691 -56.224  1.00  0.00     0.222 C 
HETATM   23  N   UNL     1     -41.891  56.213 -55.340  1.00  0.00    -0.360 N 
HETATM   24  H   UNL     1     -41.659  56.781 -54.535  1.00  0.00     0.162 HD
HETATM   25  O   UNL     1     -43.189  56.046 -57.202  1.00  0.00    -0.273 OA
BRANCH  23  26
HETATM   26  C   UNL     1     -41.313  54.882 -55.357  1.00  0.00     0.127 C 
BRANCH  26  27
HETATM   27  C   UNL     1     -42.133  53.886 -54.520  1.00  0.00     0.058 C 
BRANCH  27  28
HETATM   28  C   UNL     1     -42.008  54.104 -53.026  1.00  0.00    -0.057 A 
HETATM   29  C   UNL     1     -40.792  53.910 -52.361  1.00  0.00     0.010 A 
HETATM   30  C   UNL     1     -40.730  54.002 -50.967  1.00  0.00     0.037 A 
HETATM   31  C   UNL     1     -41.869  54.305 -50.218  1.00  0.00     0.068 A 
HETATM   32  C   UNL     1     -43.079  54.509 -50.875  1.00  0.00     0.037 A 
HETATM   33  C   UNL     1     -43.147  54.411 -52.269  1.00  0.00     0.010 A 
BRANCH  31  34
HETATM   34  O   UNL     1     -41.674  54.352 -48.864  1.00  0.00    -0.356 OA
HETATM   35  C   UNL     1     -40.429  53.857 -48.386  1.00  0.00     0.210 C 
ENDBRANCH  31  34
ENDBRANCH  27  28
ENDBRANCH  26  27
ENDBRANCH  23  26
ENDBRANCH  18  22
TORSDOF 5
ENDMDL
MODEL 8
REMARK VINA RESULT:      -8.1      2.210      5.447
REMARK  5 active torsions:
REMARK  status: ('A' for Active; 'I' for Inactive)
REMARK    1  A    between atoms: C_18  and  C_19 
REMARK       I    between atoms: C_19  and  N_20 
REMARK    2  A    between atoms: N_20  and  C_21 
REMARK    3  A    between atoms: C_21  and  C_22 
REMARK    4  A    between atoms: C_22  and  C_23 
REMARK    5  A    between atoms: C_26  and  O_27 
ROOT
HETATM    1  C   UNL     1     -45.944  57.667 -56.139  1.00  0.00     0.016 C 
HETATM    2  C   UNL     1     -44.788  58.596 -56.405  1.00  0.00    -0.028 C 
HETATM    3  C   UNL     1     -44.384  59.635 -54.994  1.00  0.00     0.058 C 
HETATM    4  C   UNL     1     -42.570  60.167 -55.054  1.00  0.00     0.095 C 
HETATM    5  N   UNL     1     -41.696  59.462 -54.137  1.00  0.00    -0.334 N 
HETATM    6  C   UNL     1     -41.822  59.573 -52.780  1.00  0.00     0.255 C 
HETATM    7  O   UNL     1     -41.339  58.749 -52.015  1.00  0.00    -0.268 OA
HETATM    8  C   UNL     1     -42.559  60.758 -52.305  1.00  0.00     0.053 A 
HETATM    9  C   UNL     1     -42.906  61.729 -53.257  1.00  0.00     0.026 A 
HETATM   10  N   UNL     1     -42.536  61.573 -54.611  1.00  0.00    -0.265 NA
HETATM   11  C   UNL     1     -42.871  60.914 -50.953  1.00  0.00     0.019 A 
HETATM   12  C   UNL     1     -43.538  62.061 -50.535  1.00  0.00     0.001 A 
HETATM   13  C   UNL     1     -43.860  63.053 -51.463  1.00  0.00     0.002 A 
HETATM   14  C   UNL     1     -43.526  62.899 -52.813  1.00  0.00     0.024 A 
HETATM   15  C   UNL     1     -41.940  60.027 -56.682  1.00  0.00     0.030 C 
HETATM   16  C   UNL     1     -42.299  58.977 -58.048  1.00  0.00     0.009 C 
HETATM   17  C   UNL     1     -44.136  58.474 -58.072  1.00  0.00     0.010 C 
HETATM   18  C   UNL     1     -43.424  58.264 -56.210  1.00  0.00     0.086 C 
HETATM   19  C   UNL     1     -43.323  60.076 -56.909  1.00  0.00     0.023 C 
HETATM   20  H   UNL     1     -41.184  58.648 -54.449  1.00  0.00     0.164 HD
HETATM   21  H   UNL     1     -43.046  62.208 -55.217  1.00  0.00     0.130 HD
ENDROOT
BRANCH  18  22
HETATM   22  C   UNL     1     -43.061  56.723 -56.524  1.00  0.00     0.222 C 
HETATM   23  N   UNL     1     -42.153  56.261 -55.586  1.00  0.00    -0.360 N 
HETATM   24  H   UNL     1     -41.900  56.877 -54.823  1.00  0.00     0.162 HD
HETATM   25  O   UNL     1     -43.430  56.023 -57.455  1.00  0.00    -0.273 OA
BRANCH  23  26
HETATM   26  C   UNL     1     -41.653  54.903 -55.489  1.00  0.00     0.127 C 
BRANCH  26  27
HETATM   27  C   UNL     1     -40.409  54.809 -54.589  1.00  0.00     0.058 C 
BRANCH  27  28
HETATM   28  C   UNL     1     -40.269  53.474 -53.886  1.00  0.00    -0.057 A 
HETATM   29  C   UNL     1     -40.147  53.393 -52.495  1.00  0.00     0.010 A 
HETATM   30  C   UNL     1     -39.900  52.161 -51.881  1.00  0.00     0.037 A 
HETATM   31  C   UNL     1     -39.788  50.993 -52.639  1.00  0.00     0.068 A 
HETATM   32  C   UNL     1     -39.918  51.067 -54.023  1.00  0.00     0.037 A 
HETATM   33  C   UNL     1     -40.158  52.299 -54.642  1.00  0.00     0.010 A 
BRANCH  31  34
HETATM   34  O   UNL     1     -39.533  49.859 -51.917  1.00  0.00    -0.356 OA
HETATM   35  C   UNL     1     -39.847  49.907 -50.531  1.00  0.00     0.210 C 
ENDBRANCH  31  34
ENDBRANCH  27  28
ENDBRANCH  26  27
ENDBRANCH  23  26
ENDBRANCH  18  22
TORSDOF 5
ENDMDL
MODEL 9
REMARK VINA RESULT:      -8.0      3.797      8.407
REMARK  5 active torsions:
REMARK  status: ('A' for Active; 'I' for Inactive)
REMARK    1  A    between atoms: C_18  and  C_19 
REMARK       I    between atoms: C_19  and  N_20 
REMARK    2  A    between atoms: N_20  and  C_21 
REMARK    3  A    between atoms: C_21  and  C_22 
REMARK    4  A    between atoms: C_22  and  C_23 
REMARK    5  A    between atoms: C_26  and  O_27 
ROOT
HETATM    1  C   UNL     1     -41.387  59.582 -53.320  1.00  0.00     0.016 C 
HETATM    2  C   UNL     1     -42.206  58.483 -53.945  1.00  0.00    -0.028 C 
HETATM    3  C   UNL     1     -41.727  56.844 -53.385  1.00  0.00     0.058 C 
HETATM    4  C   UNL     1     -43.174  55.636 -53.534  1.00  0.00     0.095 C 
HETATM    5  N   UNL     1     -43.832  55.313 -52.284  1.00  0.00    -0.334 N 
HETATM    6  C   UNL     1     -43.197  54.635 -51.280  1.00  0.00     0.255 C 
HETATM    7  O   UNL     1     -43.604  54.656 -50.126  1.00  0.00    -0.268 OA
HETATM    8  C   UNL     1     -42.006  53.868 -51.687  1.00  0.00     0.053 A 
HETATM    9  C   UNL     1     -41.741  53.765 -53.061  1.00  0.00     0.026 A 
HETATM   10  N   UNL     1     -42.603  54.361 -54.007  1.00  0.00    -0.265 NA
HETATM   11  C   UNL     1     -41.196  53.244 -50.736  1.00  0.00     0.019 A 
HETATM   12  C   UNL     1     -40.100  52.499 -51.158  1.00  0.00     0.001 A 
HETATM   13  C   UNL     1     -39.840  52.357 -52.522  1.00  0.00     0.002 A 
HETATM   14  C   UNL     1     -40.669  52.968 -53.470  1.00  0.00     0.024 A 
HETATM   15  C   UNL     1     -44.359  56.233 -54.678  1.00  0.00     0.030 C 
HETATM   16  C   UNL     1     -44.866  57.838 -55.191  1.00  0.00     0.009 C 
HETATM   17  C   UNL     1     -43.419  59.076 -55.128  1.00  0.00     0.010 C 
HETATM   18  C   UNL     1     -43.439  58.004 -53.434  1.00  0.00     0.086 C 
HETATM   19  C   UNL     1     -43.210  56.947 -55.050  1.00  0.00     0.023 C 
HETATM   20  H   UNL     1     -44.650  55.832 -51.992  1.00  0.00     0.164 HD
HETATM   21  H   UNL     1     -42.174  54.418 -54.926  1.00  0.00     0.130 HD
ENDROOT
BRANCH  18  22
HETATM   22  C   UNL     1     -44.353  59.134 -52.732  1.00  0.00     0.222 C 
HETATM   23  N   UNL     1     -44.469  58.860 -51.379  1.00  0.00    -0.360 N 
HETATM   24  H   UNL     1     -43.940  58.083 -51.003  1.00  0.00     0.162 HD
HETATM   25  O   UNL     1     -44.943  60.071 -53.247  1.00  0.00    -0.273 OA
BRANCH  23  26
HETATM   26  C   UNL     1     -45.144  59.693 -50.402  1.00  0.00     0.127 C 
BRANCH  26  27
HETATM   27  C   UNL     1     -44.242  60.831 -49.894  1.00  0.00     0.058 C 
BRANCH  27  28
HETATM   28  C   UNL     1     -44.781  61.526 -48.661  1.00  0.00    -0.057 A 
HETATM   29  C   UNL     1     -44.636  62.906 -48.481  1.00  0.00     0.010 A 
HETATM   30  C   UNL     1     -45.036  63.505 -47.283  1.00  0.00     0.037 A 
HETATM   31  C   UNL     1     -45.600  62.745 -46.255  1.00  0.00     0.068 A 
HETATM   32  C   UNL     1     -45.754  61.372 -46.432  1.00  0.00     0.037 A 
HETATM   33  C   UNL     1     -45.349  60.768 -47.627  1.00  0.00     0.010 A 
BRANCH  31  34
HETATM   34  O   UNL     1     -45.935  63.451 -45.132  1.00  0.00    -0.356 OA
HETATM   35  C   UNL     1     -46.395  64.782 -45.334  1.00  0.00     0.210 C 
ENDBRANCH  31  34
ENDBRANCH  27  28
ENDBRANCH  26  27
ENDBRANCH  23  26
ENDBRANCH  18  22
TORSDOF 5
ENDMDL
MODEL 10
REMARK VINA RESULT:      -8.0      2.710      7.678
REMARK  5 active torsions:
REMARK  status: ('A' for Active; 'I' for Inactive)
REMARK    1  A    between atoms: C_18  and  C_19 
REMARK       I    between atoms: C_19  and  N_20 
REMARK    2  A    between atoms: N_20  and  C_21 
REMARK    3  A    between atoms: C_21  and  C_22 
REMARK    4  A    between atoms: C_22  and  C_23 
REMARK    5  A    between atoms: C_26  and  O_27 
ROOT
HETATM    1  C   UNL     1     -41.734  58.827 -54.618  1.00  0.00     0.016 C 
HETATM    2  C   UNL     1     -41.854  57.339 -54.822  1.00  0.00    -0.028 C 
HETATM    3  C   UNL     1     -41.443  56.394 -53.350  1.00  0.00     0.058 C 
HETATM    4  C   UNL     1     -42.312  54.714 -53.370  1.00  0.00     0.095 C 
HETATM    5  N   UNL     1     -43.463  54.611 -52.494  1.00  0.00    -0.334 N 
HETATM    6  C   UNL     1     -43.351  54.686 -51.133  1.00  0.00     0.255 C 
HETATM    7  O   UNL     1     -44.311  54.941 -50.418  1.00  0.00    -0.268 OA
HETATM    8  C   UNL     1     -42.007  54.422 -50.590  1.00  0.00     0.053 A 
HETATM    9  C   UNL     1     -41.028  53.959 -51.483  1.00  0.00     0.026 A 
HETATM   10  N   UNL     1     -41.340  53.738 -52.843  1.00  0.00    -0.265 NA
HETATM   11  C   UNL     1     -41.734  54.600 -49.232  1.00  0.00     0.019 A 
HETATM   12  C   UNL     1     -40.463  54.307 -48.748  1.00  0.00     0.001 A 
HETATM   13  C   UNL     1     -39.487  53.813 -49.615  1.00  0.00     0.002 A 
HETATM   14  C   UNL     1     -39.774  53.618 -50.971  1.00  0.00     0.024 A 
HETATM   15  C   UNL     1     -42.783  54.283 -55.001  1.00  0.00     0.030 C 
HETATM   16  C   UNL     1     -43.234  55.206 -56.430  1.00  0.00     0.009 C 
HETATM   17  C   UNL     1     -42.325  56.879 -56.491  1.00  0.00     0.010 C 
HETATM   18  C   UNL     1     -43.046  56.593 -54.643  1.00  0.00     0.086 C 
HETATM   19  C   UNL     1     -41.780  55.238 -55.230  1.00  0.00     0.023 C 
HETATM   20  H   UNL     1     -44.391  54.790 -52.853  1.00  0.00     0.164 HD
HETATM   21  H   UNL     1     -40.505  53.641 -53.410  1.00  0.00     0.130 HD
ENDROOT
BRANCH  18  22
HETATM   22  C   UNL     1     -44.394  57.382 -55.048  1.00  0.00     0.222 C 
HETATM   23  N   UNL     1     -44.075  58.672 -55.437  1.00  0.00    -0.360 N 
HETATM   24  H   UNL     1     -43.097  58.926 -55.493  1.00  0.00     0.162 HD
HETATM   25  O   UNL     1     -45.553  57.001 -54.985  1.00  0.00    -0.273 OA
BRANCH  23  26
HETATM   26  C   UNL     1     -45.009  59.656 -55.950  1.00  0.00     0.127 C 
BRANCH  26  27
HETATM   27  C   UNL     1     -44.615  60.150 -57.352  1.00  0.00     0.058 C 
BRANCH  27  28
HETATM   28  C   UNL     1     -44.570  59.048 -58.391  1.00  0.00    -0.057 A 
HETATM   29  C   UNL     1     -45.618  58.130 -58.524  1.00  0.00     0.010 A 
HETATM   30  C   UNL     1     -45.501  57.053 -59.408  1.00  0.00     0.037 A 
HETATM   31  C   UNL     1     -44.352  56.883 -60.183  1.00  0.00     0.068 A 
HETATM   32  C   UNL     1     -43.310  57.800 -60.062  1.00  0.00     0.037 A 
HETATM   33  C   UNL     1     -43.420  58.875 -59.173  1.00  0.00     0.010 A 
BRANCH  31  34
HETATM   34  O   UNL     1     -44.360  55.783 -60.996  1.00  0.00    -0.356 OA
HETATM   35  C   UNL     1     -44.734  54.551 -60.390  1.00  0.00     0.210 C 
ENDBRANCH  31  34
ENDBRANCH  27  28
ENDBRANCH  26  27
ENDBRANCH  23  26
ENDBRANCH  18  22
TORSDOF 5
ENDMDL
