MODEL 1
REMARK VINA RESULT:      -7.8      0.000      0.000
REMARK  4 active torsions:
REMARK  status: ('A' for Active; 'I' for Inactive)
REMARK    1  A    between atoms: S_2  and  C_3 
REMARK    2  A    between atoms: C_5  and  C_6 
REMARK    3  A    between atoms: C_6  and  N_7 
REMARK       I    between atoms: N_7  and  C_8 
REMARK    4  A    between atoms: C_8  and  C_9 
ROOT
HETATM    1  N   UNL     1     -42.255  54.453 -55.089  1.00  0.00    -0.353 N 
HETATM    2  C   UNL     1     -40.974  54.026 -54.841  1.00  0.00     0.254 C 
HETATM    3  O   UNL     1     -40.076  54.049 -55.677  1.00  0.00    -0.268 OA
HETATM    4  H   UNL     1     -42.902  54.558 -54.320  1.00  0.00     0.163 HD
ENDROOT
BRANCH   2   5
HETATM    5  C   UNL     1     -40.706  53.610 -53.433  1.00  0.00     0.058 A 
HETATM    6  C   UNL     1     -40.301  52.268 -52.967  1.00  0.00    -0.003 A 
HETATM    7  C   UNL     1     -40.160  52.042 -51.583  1.00  0.00     0.043 A 
HETATM    8  C   UNL     1     -40.003  51.209 -53.837  1.00  0.00     0.013 A 
HETATM    9  C   UNL     1     -39.778  50.789 -51.085  1.00  0.00     0.018 A 
HETATM   10  C   UNL     1     -40.384  53.159 -50.627  1.00  0.00     0.256 A 
HETATM   11  C   UNL     1     -39.515  49.745 -51.967  1.00  0.00     0.001 A 
HETATM   12  C   UNL     1     -39.622  49.957 -53.340  1.00  0.00     0.001 A 
HETATM   13  O   UNL     1     -40.280  53.011 -49.415  1.00  0.00    -0.267 OA
HETATM   14  N   UNL     1     -40.708  54.374 -51.184  1.00  0.00    -0.332 N 
HETATM   15  C   UNL     1     -40.866  54.590 -52.528  1.00  0.00     0.109 A 
HETATM   16  H   UNL     1     -40.841  55.136 -50.528  1.00  0.00     0.168 HD
ENDBRANCH   2   5
BRANCH   1  17
HETATM   17  C   UNL     1     -42.599  55.082 -56.346  1.00  0.00     0.161 C 
BRANCH  17  18
HETATM   18  C   UNL     1     -42.516  56.586 -56.283  1.00  0.00    -0.039 A 
HETATM   19  C   UNL     1     -42.325  57.230 -55.048  1.00  0.00     0.027 A 
HETATM   20  C   UNL     1     -42.157  58.620 -54.970  1.00  0.00     0.000 A 
HETATM   21  C   UNL     1     -42.164  59.368 -56.148  1.00  0.00     0.018 A 
HETATM   22  C   UNL     1     -42.347  58.743 -57.383  1.00  0.00     0.002 A 
HETATM   23  C   UNL     1     -42.513  57.359 -57.450  1.00  0.00     0.009 A 
BRANCH  20  24
HETATM   24  S   UNL     1     -41.859  59.330 -53.356  1.00  0.00    -0.134 SA
HETATM   25  C   UNL     1     -40.184  58.736 -52.993  1.00  0.00     0.095 C 
ENDBRANCH  20  24
ENDBRANCH  17  18
ENDBRANCH   1  17
TORSDOF 4
ENDMDL
MODEL 2
REMARK VINA RESULT:      -7.8      1.747      2.210
REMARK  4 active torsions:
REMARK  status: ('A' for Active; 'I' for Inactive)
REMARK    1  A    between atoms: S_2  and  C_3 
REMARK    2  A    between atoms: C_5  and  C_6 
REMARK    3  A    between atoms: C_6  and  N_7 
REMARK       I    between atoms: N_7  and  C_8 
REMARK    4  A    between atoms: C_8  and  C_9 
ROOT
HETATM    1  N   UNL     1     -42.388  54.876 -55.882  1.00  0.00    -0.353 N 
HETATM    2  C   UNL     1     -42.949  54.636 -54.653  1.00  0.00     0.254 C 
HETATM    3  O   UNL     1     -44.159  54.607 -54.452  1.00  0.00    -0.268 OA
HETATM    4  H   UNL     1     -41.396  54.729 -56.014  1.00  0.00     0.163 HD
ENDROOT
BRANCH   2   5
HETATM    5  C   UNL     1     -41.980  54.313 -53.566  1.00  0.00     0.058 A 
HETATM    6  C   UNL     1     -41.148  53.096 -53.452  1.00  0.00    -0.003 A 
HETATM    7  C   UNL     1     -40.335  52.930 -52.313  1.00  0.00     0.043 A 
HETATM    8  C   UNL     1     -41.088  52.110 -54.448  1.00  0.00     0.013 A 
HETATM    9  C   UNL     1     -39.526  51.797 -52.154  1.00  0.00     0.018 A 
HETATM   10  C   UNL     1     -40.303  53.991 -51.270  1.00  0.00     0.256 A 
HETATM   11  C   UNL     1     -39.506  50.818 -53.142  1.00  0.00     0.001 A 
HETATM   12  C   UNL     1     -40.280  50.978 -54.289  1.00  0.00     0.001 A 
HETATM   13  O   UNL     1     -39.619  53.890 -50.259  1.00  0.00    -0.267 OA
HETATM   14  N   UNL     1     -41.082  55.098 -51.512  1.00  0.00    -0.332 N 
HETATM   15  C   UNL     1     -41.888  55.252 -52.609  1.00  0.00     0.109 A 
HETATM   16  H   UNL     1     -41.041  55.826 -50.806  1.00  0.00     0.168 HD
ENDBRANCH   2   5
BRANCH   1  17
HETATM   17  C   UNL     1     -43.212  54.992 -57.066  1.00  0.00     0.161 C 
BRANCH  17  18
HETATM   18  C   UNL     1     -42.863  56.199 -57.898  1.00  0.00    -0.039 A 
HETATM   19  C   UNL     1     -42.688  57.451 -57.284  1.00  0.00     0.027 A 
HETATM   20  C   UNL     1     -42.278  58.573 -58.020  1.00  0.00     0.000 A 
HETATM   21  C   UNL     1     -42.024  58.428 -59.385  1.00  0.00     0.018 A 
HETATM   22  C   UNL     1     -42.188  57.189 -60.009  1.00  0.00     0.002 A 
HETATM   23  C   UNL     1     -42.597  56.081 -59.268  1.00  0.00     0.009 A 
BRANCH  20  24
HETATM   24  S   UNL     1     -42.025  60.102 -57.130  1.00  0.00    -0.134 SA
HETATM   25  C   UNL     1     -42.070  59.541 -55.406  1.00  0.00     0.095 C 
ENDBRANCH  20  24
ENDBRANCH  17  18
ENDBRANCH   1  17
TORSDOF 4
ENDMDL
MODEL 3
REMARK VINA RESULT:      -7.8      2.806      4.295
REMARK  4 active torsions:
REMARK  status: ('A' for Active; 'I' for Inactive)
REMARK    1  A    between atoms: S_2  and  C_3 
REMARK    2  A    between atoms: C_5  and  C_6 
REMARK    3  A    between atoms: C_6  and  N_7 
REMARK       I    between atoms: N_7  and  C_8 
REMARK    4  A    between atoms: C_8  and  C_9 
ROOT
HETATM    1  N   UNL     1     -41.797  56.545 -55.090  1.00  0.00    -0.353 N 
HETATM    2  C   UNL     1     -42.474  55.750 -54.199  1.00  0.00     0.254 C 
HETATM    3  O   UNL     1     -43.655  55.911 -53.906  1.00  0.00    -0.268 OA
HETATM    4  H   UNL     1     -40.878  56.266 -55.408  1.00  0.00     0.163 HD
ENDROOT
BRANCH   2   5
HETATM    5  C   UNL     1     -41.698  54.594 -53.665  1.00  0.00     0.058 A 
HETATM    6  C   UNL     1     -41.087  54.478 -52.325  1.00  0.00    -0.003 A 
HETATM    7  C   UNL     1     -40.327  53.332 -52.018  1.00  0.00     0.043 A 
HETATM    8  C   UNL     1     -41.263  55.436 -51.315  1.00  0.00     0.013 A 
HETATM    9  C   UNL     1     -39.726  53.170 -50.763  1.00  0.00     0.018 A 
HETATM   10  C   UNL     1     -40.184  52.251 -53.030  1.00  0.00     0.256 A 
HETATM   11  C   UNL     1     -39.890  54.149 -49.786  1.00  0.00     0.001 A 
HETATM   12  C   UNL     1     -40.661  55.276 -50.061  1.00  0.00     0.001 A 
HETATM   13  O   UNL     1     -39.528  51.239 -52.815  1.00  0.00    -0.267 OA
HETATM   14  N   UNL     1     -40.840  52.450 -54.223  1.00  0.00    -0.332 N 
HETATM   15  C   UNL     1     -41.562  53.573 -54.529  1.00  0.00     0.109 A 
HETATM   16  H   UNL     1     -40.754  51.701 -54.901  1.00  0.00     0.168 HD
ENDBRANCH   2   5
BRANCH   1  17
HETATM   17  C   UNL     1     -42.485  57.570 -55.846  1.00  0.00     0.161 C 
BRANCH  17  18
HETATM   18  C   UNL     1     -42.530  57.269 -57.322  1.00  0.00    -0.039 A 
HETATM   19  C   UNL     1     -43.266  56.169 -57.795  1.00  0.00     0.027 A 
HETATM   20  C   UNL     1     -43.397  55.917 -59.168  1.00  0.00     0.000 A 
HETATM   21  C   UNL     1     -42.795  56.790 -60.076  1.00  0.00     0.018 A 
HETATM   22  C   UNL     1     -42.064  57.890 -59.622  1.00  0.00     0.002 A 
HETATM   23  C   UNL     1     -41.940  58.132 -58.254  1.00  0.00     0.009 A 
BRANCH  20  24
HETATM   24  S   UNL     1     -44.408  54.528 -59.664  1.00  0.00    -0.134 SA
HETATM   25  C   UNL     1     -45.085  55.105 -61.243  1.00  0.00     0.095 C 
ENDBRANCH  20  24
ENDBRANCH  17  18
ENDBRANCH   1  17
TORSDOF 4
ENDMDL
MODEL 4
REMARK VINA RESULT:      -7.7      2.173      3.064
REMARK  4 active torsions:
REMARK  status: ('A' for Active; 'I' for Inactive)
REMARK    1  A    between atoms: S_2  and  C_3 
REMARK    2  A    between atoms: C_5  and  C_6 
REMARK    3  A    between atoms: C_6  and  N_7 
REMARK       I    between atoms: N_7  and  C_8 
REMARK    4  A    between atoms: C_8  and  C_9 
ROOT
HETATM    1  N   UNL     1     -42.036  54.156 -55.087  1.00  0.00    -0.353 N 
HETATM    2  C   UNL     1     -40.734  54.148 -54.651  1.00  0.00     0.254 C 
HETATM    3  O   UNL     1     -39.874  54.920 -55.064  1.00  0.00    -0.268 OA
HETATM    4  H   UNL     1     -42.728  53.606 -54.597  1.00  0.00     0.163 HD
ENDROOT
BRANCH   2   5
HETATM    5  C   UNL     1     -40.441  53.185 -53.550  1.00  0.00     0.058 A 
HETATM    6  C   UNL     1     -40.579  53.428 -52.099  1.00  0.00    -0.003 A 
HETATM    7  C   UNL     1     -40.187  52.417 -51.198  1.00  0.00     0.043 A 
HETATM    8  C   UNL     1     -41.129  54.603 -51.565  1.00  0.00     0.013 A 
HETATM    9  C   UNL     1     -40.297  52.593 -49.813  1.00  0.00     0.018 A 
HETATM   10  C   UNL     1     -39.677  51.122 -51.722  1.00  0.00     0.256 A 
HETATM   11  C   UNL     1     -40.818  53.780 -49.305  1.00  0.00     0.001 A 
HETATM   12  C   UNL     1     -41.238  54.780 -50.180  1.00  0.00     0.001 A 
HETATM   13  O   UNL     1     -39.317  50.215 -50.980  1.00  0.00    -0.267 OA
HETATM   14  N   UNL     1     -39.641  50.996 -53.091  1.00  0.00    -0.332 N 
HETATM   15  C   UNL     1     -40.003  51.986 -53.967  1.00  0.00     0.109 A 
HETATM   16  H   UNL     1     -39.311  50.103 -53.441  1.00  0.00     0.168 HD
ENDBRANCH   2   5
BRANCH   1  17
HETATM   17  C   UNL     1     -42.510  55.178 -55.995  1.00  0.00     0.161 C 
BRANCH  17  18
HETATM   18  C   UNL     1     -43.364  56.212 -55.306  1.00  0.00    -0.039 A 
HETATM   19  C   UNL     1     -43.477  56.213 -53.905  1.00  0.00     0.027 A 
HETATM   20  C   UNL     1     -44.193  57.214 -53.232  1.00  0.00     0.000 A 
HETATM   21  C   UNL     1     -44.786  58.235 -53.976  1.00  0.00     0.018 A 
HETATM   22  C   UNL     1     -44.678  58.252 -55.369  1.00  0.00     0.002 A 
HETATM   23  C   UNL     1     -43.964  57.251 -56.028  1.00  0.00     0.009 A 
BRANCH  20  24
HETATM   24  S   UNL     1     -44.222  57.155 -51.446  1.00  0.00    -0.134 SA
HETATM   25  C   UNL     1     -45.244  58.597 -51.043  1.00  0.00     0.095 C 
ENDBRANCH  20  24
ENDBRANCH  17  18
ENDBRANCH   1  17
TORSDOF 4
ENDMDL
MODEL 5
REMARK VINA RESULT:      -7.5      2.768      4.020
REMARK  4 active torsions:
REMARK  status: ('A' for Active; 'I' for Inactive)
REMARK    1  A    between atoms: S_2  and  C_3 
REMARK    2  A    between atoms: C_5  and  C_6 
REMARK    3  A    between atoms: C_6  and  N_7 
REMARK       I    between atoms: N_7  and  C_8 
REMARK    4  A    between atoms: C_8  and  C_9 
ROOT
HETATM    1  N   UNL     1     -42.036  58.501 -54.777  1.00  0.00    -0.353 N 
HETATM    2  C   UNL     1     -41.104  58.318 -53.786  1.00  0.00     0.254 C 
HETATM    3  O   UNL     1     -40.256  59.153 -53.488  1.00  0.00    -0.268 OA
HETATM    4  H   UNL     1     -42.803  57.848 -54.867  1.00  0.00     0.163 HD
ENDROOT
BRANCH   2   5
HETATM    5  C   UNL     1     -41.245  57.052 -53.010  1.00  0.00     0.058 A 
HETATM    6  C   UNL     1     -40.968  55.682 -53.490  1.00  0.00    -0.003 A 
HETATM    7  C   UNL     1     -41.227  54.594 -52.632  1.00  0.00     0.043 A 
HETATM    8  C   UNL     1     -40.414  55.406 -54.748  1.00  0.00     0.013 A 
HETATM    9  C   UNL     1     -40.982  53.274 -53.034  1.00  0.00     0.018 A 
HETATM   10  C   UNL     1     -41.736  54.845 -51.257  1.00  0.00     0.256 A 
HETATM   11  C   UNL     1     -40.458  53.023 -54.300  1.00  0.00     0.001 A 
HETATM   12  C   UNL     1     -40.170  54.087 -55.152  1.00  0.00     0.001 A 
HETATM   13  O   UNL     1     -41.982  53.933 -50.476  1.00  0.00    -0.267 OA
HETATM   14  N   UNL     1     -41.907  56.164 -50.908  1.00  0.00    -0.332 N 
HETATM   15  C   UNL     1     -41.676  57.222 -51.749  1.00  0.00     0.109 A 
HETATM   16  H   UNL     1     -42.236  56.329 -49.963  1.00  0.00     0.168 HD
ENDBRANCH   2   5
BRANCH   1  17
HETATM   17  C   UNL     1     -42.152  59.770 -55.464  1.00  0.00     0.161 C 
BRANCH  17  18
HETATM   18  C   UNL     1     -42.062  59.626 -56.962  1.00  0.00    -0.039 A 
HETATM   19  C   UNL     1     -42.361  58.396 -57.572  1.00  0.00     0.027 A 
HETATM   20  C   UNL     1     -42.371  58.257 -58.967  1.00  0.00     0.000 A 
HETATM   21  C   UNL     1     -42.094  59.374 -59.759  1.00  0.00     0.018 A 
HETATM   22  C   UNL     1     -41.801  60.605 -59.168  1.00  0.00     0.002 A 
HETATM   23  C   UNL     1     -41.793  60.732 -57.779  1.00  0.00     0.009 A 
BRANCH  20  24
HETATM   24  S   UNL     1     -42.826  56.664 -59.640  1.00  0.00    -0.134 SA
HETATM   25  C   UNL     1     -43.138  55.701 -58.136  1.00  0.00     0.095 C 
ENDBRANCH  20  24
ENDBRANCH  17  18
ENDBRANCH   1  17
TORSDOF 4
ENDMDL
MODEL 6
REMARK VINA RESULT:      -7.5      2.530      3.624
REMARK  4 active torsions:
REMARK  status: ('A' for Active; 'I' for Inactive)
REMARK    1  A    between atoms: S_2  and  C_3 
REMARK    2  A    between atoms: C_5  and  C_6 
REMARK    3  A    between atoms: C_6  and  N_7 
REMARK       I    between atoms: N_7  and  C_8 
REMARK    4  A    between atoms: C_8  and  C_9 
ROOT
HETATM    1  N   UNL     1     -42.867  56.330 -54.609  1.00  0.00    -0.353 N 
HETATM    2  C   UNL     1     -41.684  56.601 -53.968  1.00  0.00     0.254 C 
HETATM    3  O   UNL     1     -41.028  57.621 -54.153  1.00  0.00    -0.268 OA
HETATM    4  H   UNL     1     -43.436  55.554 -54.297  1.00  0.00     0.163 HD
ENDROOT
BRANCH   2   5
HETATM    5  C   UNL     1     -41.279  55.601 -52.936  1.00  0.00     0.058 A 
HETATM    6  C   UNL     1     -40.748  54.244 -53.177  1.00  0.00    -0.003 A 
HETATM    7  C   UNL     1     -40.484  53.409 -52.072  1.00  0.00     0.043 A 
HETATM    8  C   UNL     1     -40.446  53.752 -54.455  1.00  0.00     0.013 A 
HETATM    9  C   UNL     1     -39.979  52.114 -52.241  1.00  0.00     0.018 A 
HETATM   10  C   UNL     1     -40.709  53.920 -50.693  1.00  0.00     0.256 A 
HETATM   11  C   UNL     1     -39.714  51.636 -53.522  1.00  0.00     0.001 A 
HETATM   12  C   UNL     1     -39.943  52.456 -54.625  1.00  0.00     0.001 A 
HETATM   13  O   UNL     1     -40.501  53.232 -49.700  1.00  0.00    -0.267 OA
HETATM   14  N   UNL     1     -41.158  55.216 -50.595  1.00  0.00    -0.332 N 
HETATM   15  C   UNL     1     -41.435  56.021 -51.669  1.00  0.00     0.109 A 
HETATM   16  H   UNL     1     -41.292  55.565 -49.652  1.00  0.00     0.168 HD
ENDBRANCH   2   5
BRANCH   1  17
HETATM   17  C   UNL     1     -43.486  57.311 -55.474  1.00  0.00     0.161 C 
BRANCH  17  18
HETATM   18  C   UNL     1     -43.097  57.135 -56.920  1.00  0.00    -0.039 A 
HETATM   19  C   UNL     1     -43.700  56.129 -57.695  1.00  0.00     0.027 A 
HETATM   20  C   UNL     1     -43.422  55.999 -59.063  1.00  0.00     0.000 A 
HETATM   21  C   UNL     1     -42.541  56.900 -59.662  1.00  0.00     0.018 A 
HETATM   22  C   UNL     1     -41.937  57.908 -58.907  1.00  0.00     0.002 A 
HETATM   23  C   UNL     1     -42.220  58.029 -57.546  1.00  0.00     0.009 A 
BRANCH  20  24
HETATM   24  S   UNL     1     -44.292  54.726 -59.968  1.00  0.00    -0.134 SA
HETATM   25  C   UNL     1     -45.778  55.609 -60.517  1.00  0.00     0.095 C 
ENDBRANCH  20  24
ENDBRANCH  17  18
ENDBRANCH   1  17
TORSDOF 4
ENDMDL
MODEL 7
REMARK VINA RESULT:      -7.5      2.133      3.373
REMARK  4 active torsions:
REMARK  status: ('A' for Active; 'I' for Inactive)
REMARK    1  A    between atoms: S_2  and  C_3 
REMARK    2  A    between atoms: C_5  and  C_6 
REMARK    3  A    between atoms: C_6  and  N_7 
REMARK       I    between atoms: N_7  and  C_8 
REMARK    4  A    between atoms: C_8  and  C_9 
ROOT
HETATM    1  N   UNL     1     -42.049  53.952 -55.086  1.00  0.00    -0.353 N 
HETATM    2  C   UNL     1     -40.729  53.904 -54.712  1.00  0.00     0.254 C 
HETATM    3  O   UNL     1     -39.853  54.596 -55.221  1.00  0.00    -0.268 OA
HETATM    4  H   UNL     1     -42.743  53.477 -54.525  1.00  0.00     0.163 HD
ENDROOT
BRANCH   2   5
HETATM    5  C   UNL     1     -40.430  53.007 -53.558  1.00  0.00     0.058 A 
HETATM    6  C   UNL     1     -40.569  53.332 -52.123  1.00  0.00    -0.003 A 
HETATM    7  C   UNL     1     -40.171  52.376 -51.167  1.00  0.00     0.043 A 
HETATM    8  C   UNL     1     -41.124  54.533 -51.657  1.00  0.00     0.013 A 
HETATM    9  C   UNL     1     -40.281  52.630 -49.793  1.00  0.00     0.018 A 
HETATM   10  C   UNL     1     -39.654  51.056 -51.616  1.00  0.00     0.256 A 
HETATM   11  C   UNL     1     -40.808  53.842 -49.354  1.00  0.00     0.001 A 
HETATM   12  C   UNL     1     -41.234  54.787 -50.284  1.00  0.00     0.001 A 
HETATM   13  O   UNL     1     -39.289  50.195 -50.824  1.00  0.00    -0.267 OA
HETATM   14  N   UNL     1     -39.618  50.852 -52.975  1.00  0.00    -0.332 N 
HETATM   15  C   UNL     1     -39.986  51.788 -53.907  1.00  0.00     0.109 A 
HETATM   16  H   UNL     1     -39.283  49.943 -53.274  1.00  0.00     0.168 HD
ENDBRANCH   2   5
BRANCH   1  17
HETATM   17  C   UNL     1     -42.516  54.932 -56.043  1.00  0.00     0.161 C 
BRANCH  17  18
HETATM   18  C   UNL     1     -43.239  56.081 -55.388  1.00  0.00    -0.039 A 
HETATM   19  C   UNL     1     -43.682  57.168 -56.162  1.00  0.00     0.027 A 
HETATM   20  C   UNL     1     -44.432  58.208 -55.594  1.00  0.00     0.000 A 
HETATM   21  C   UNL     1     -44.756  58.145 -54.238  1.00  0.00     0.018 A 
HETATM   22  C   UNL     1     -44.328  57.069 -53.457  1.00  0.00     0.002 A 
HETATM   23  C   UNL     1     -43.581  56.040 -54.031  1.00  0.00     0.009 A 
BRANCH  20  24
HETATM   24  S   UNL     1     -44.999  59.510 -56.680  1.00  0.00    -0.134 SA
HETATM   25  C   UNL     1     -44.964  58.689 -58.296  1.00  0.00     0.095 C 
ENDBRANCH  20  24
ENDBRANCH  17  18
ENDBRANCH   1  17
TORSDOF 4
ENDMDL
MODEL 8
REMARK VINA RESULT:      -7.4      2.257      3.379
REMARK  4 active torsions:
REMARK  status: ('A' for Active; 'I' for Inactive)
REMARK    1  A    between atoms: S_2  and  C_3 
REMARK    2  A    between atoms: C_5  and  C_6 
REMARK    3  A    between atoms: C_6  and  N_7 
REMARK       I    between atoms: N_7  and  C_8 
REMARK    4  A    between atoms: C_8  and  C_9 
ROOT
HETATM    1  N   UNL     1     -43.034  56.605 -53.097  1.00  0.00    -0.353 N 
HETATM    2  C   UNL     1     -41.738  56.695 -52.652  1.00  0.00     0.254 C 
HETATM    3  O   UNL     1     -40.915  57.482 -53.109  1.00  0.00    -0.268 OA
HETATM    4  H   UNL     1     -43.702  56.054 -52.576  1.00  0.00     0.163 HD
ENDROOT
BRANCH   2   5
HETATM    5  C   UNL     1     -41.407  55.822 -51.488  1.00  0.00     0.058 A 
HETATM    6  C   UNL     1     -40.908  54.432 -51.536  1.00  0.00    -0.003 A 
HETATM    7  C   UNL     1     -40.714  53.736 -50.325  1.00  0.00     0.043 A 
HETATM    8  C   UNL     1     -40.570  53.776 -52.729  1.00  0.00     0.013 A 
HETATM    9  C   UNL     1     -40.243  52.416 -50.311  1.00  0.00     0.018 A 
HETATM   10  C   UNL     1     -40.979  54.420 -49.032  1.00  0.00     0.256 A 
HETATM   11  C   UNL     1     -39.942  51.776 -51.510  1.00  0.00     0.001 A 
HETATM   12  C   UNL     1     -40.100  52.457 -52.715  1.00  0.00     0.001 A 
HETATM   13  O   UNL     1     -40.833  53.856 -47.954  1.00  0.00    -0.267 OA
HETATM   14  N   UNL     1     -41.392  55.729 -49.115  1.00  0.00    -0.332 N 
HETATM   15  C   UNL     1     -41.600  56.400 -50.291  1.00  0.00     0.109 A 
HETATM   16  H   UNL     1     -41.552  56.196 -48.229  1.00  0.00     0.168 HD
ENDBRANCH   2   5
BRANCH   1  17
HETATM   17  C   UNL     1     -43.552  57.541 -54.072  1.00  0.00     0.161 C 
BRANCH  17  18
HETATM   18  C   UNL     1     -43.407  57.040 -55.487  1.00  0.00    -0.039 A 
HETATM   19  C   UNL     1     -43.373  57.951 -56.557  1.00  0.00     0.027 A 
HETATM   20  C   UNL     1     -43.151  57.520 -57.873  1.00  0.00     0.000 A 
HETATM   21  C   UNL     1     -42.944  56.161 -58.113  1.00  0.00     0.018 A 
HETATM   22  C   UNL     1     -42.970  55.244 -57.060  1.00  0.00     0.002 A 
HETATM   23  C   UNL     1     -43.192  55.683 -55.754  1.00  0.00     0.009 A 
BRANCH  20  24
HETATM   24  S   UNL     1     -43.064  58.768 -59.151  1.00  0.00    -0.134 SA
HETATM   25  C   UNL     1     -41.919  58.010 -60.334  1.00  0.00     0.095 C 
ENDBRANCH  20  24
ENDBRANCH  17  18
ENDBRANCH   1  17
TORSDOF 4
ENDMDL
MODEL 9
REMARK VINA RESULT:      -7.4      2.312      3.084
REMARK  4 active torsions:
REMARK  status: ('A' for Active; 'I' for Inactive)
REMARK    1  A    between atoms: S_2  and  C_3 
REMARK    2  A    between atoms: C_5  and  C_6 
REMARK    3  A    between atoms: C_6  and  N_7 
REMARK       I    between atoms: N_7  and  C_8 
REMARK    4  A    between atoms: C_8  and  C_9 
ROOT
HETATM    1  N   UNL     1     -42.141  55.070 -55.718  1.00  0.00    -0.353 N 
HETATM    2  C   UNL     1     -42.774  54.686 -54.562  1.00  0.00     0.254 C 
HETATM    3  O   UNL     1     -43.991  54.563 -54.462  1.00  0.00    -0.268 OA
HETATM    4  H   UNL     1     -41.135  54.998 -55.782  1.00  0.00     0.163 HD
ENDROOT
BRANCH   2   5
HETATM    5  C   UNL     1     -41.868  54.326 -53.433  1.00  0.00     0.058 A 
HETATM    6  C   UNL     1     -41.047  53.103 -53.309  1.00  0.00    -0.003 A 
HETATM    7  C   UNL     1     -40.300  52.900 -52.131  1.00  0.00     0.043 A 
HETATM    8  C   UNL     1     -40.935  52.146 -54.329  1.00  0.00     0.013 A 
HETATM    9  C   UNL     1     -39.505  51.759 -51.961  1.00  0.00     0.018 A 
HETATM   10  C   UNL     1     -40.323  53.929 -51.058  1.00  0.00     0.256 A 
HETATM   11  C   UNL     1     -39.432  50.809 -52.975  1.00  0.00     0.001 A 
HETATM   12  C   UNL     1     -40.141  51.005 -54.158  1.00  0.00     0.001 A 
HETATM   13  O   UNL     1     -39.696  53.797 -50.014  1.00  0.00    -0.267 OA
HETATM   14  N   UNL     1     -41.084  55.047 -51.310  1.00  0.00    -0.332 N 
HETATM   15  C   UNL     1     -41.827  55.236 -52.446  1.00  0.00     0.109 A 
HETATM   16  H   UNL     1     -41.080  55.754 -50.582  1.00  0.00     0.168 HD
ENDBRANCH   2   5
BRANCH   1  17
HETATM   17  C   UNL     1     -42.881  55.241 -56.950  1.00  0.00     0.161 C 
BRANCH  17  18
HETATM   18  C   UNL     1     -43.061  56.691 -57.320  1.00  0.00    -0.039 A 
HETATM   19  C   UNL     1     -43.987  57.056 -58.312  1.00  0.00     0.027 A 
HETATM   20  C   UNL     1     -44.238  58.402 -58.615  1.00  0.00     0.000 A 
HETATM   21  C   UNL     1     -43.563  59.392 -57.900  1.00  0.00     0.018 A 
HETATM   22  C   UNL     1     -42.643  59.047 -56.906  1.00  0.00     0.002 A 
HETATM   23  C   UNL     1     -42.401  57.704 -56.613  1.00  0.00     0.009 A 
BRANCH  20  24
HETATM   24  S   UNL     1     -45.481  58.757 -59.851  1.00  0.00    -0.134 SA
HETATM   25  C   UNL     1     -46.802  57.604 -59.391  1.00  0.00     0.095 C 
ENDBRANCH  20  24
ENDBRANCH  17  18
ENDBRANCH   1  17
TORSDOF 4
ENDMDL
MODEL 10
REMARK VINA RESULT:      -7.4      2.520      3.721
REMARK  4 active torsions:
REMARK  status: ('A' for Active; 'I' for Inactive)
REMARK    1  A    between atoms: S_2  and  C_3 
REMARK    2  A    between atoms: C_5  and  C_6 
REMARK    3  A    between atoms: C_6  and  N_7 
REMARK       I    between atoms: N_7  and  C_8 
REMARK    4  A    between atoms: C_8  and  C_9 
ROOT
HETATM    1  N   UNL     1     -43.028  56.043 -51.517  1.00  0.00    -0.353 N 
HETATM    2  C   UNL     1     -41.705  55.962 -51.163  1.00  0.00     0.254 C 
HETATM    3  O   UNL     1     -41.044  56.921 -50.779  1.00  0.00    -0.268 OA
HETATM    4  H   UNL     1     -43.556  55.194 -51.670  1.00  0.00     0.163 HD
ENDROOT
BRANCH   2   5
HETATM    5  C   UNL     1     -41.127  54.586 -51.183  1.00  0.00     0.058 A 
HETATM    6  C   UNL     1     -40.727  53.809 -52.375  1.00  0.00    -0.003 A 
HETATM    7  C   UNL     1     -40.262  52.490 -52.204  1.00  0.00     0.043 A 
HETATM    8  C   UNL     1     -40.744  54.334 -53.676  1.00  0.00     0.013 A 
HETATM    9  C   UNL     1     -39.869  51.708 -53.298  1.00  0.00     0.018 A 
HETATM   10  C   UNL     1     -40.149  51.921 -50.834  1.00  0.00     0.256 A 
HETATM   11  C   UNL     1     -39.922  52.241 -54.583  1.00  0.00     0.001 A 
HETATM   12  C   UNL     1     -40.352  53.552 -54.770  1.00  0.00     0.001 A 
HETATM   13  O   UNL     1     -39.756  50.777 -50.633  1.00  0.00    -0.267 OA
HETATM   14  N   UNL     1     -40.503  52.757 -49.801  1.00  0.00    -0.332 N 
HETATM   15  C   UNL     1     -40.975  54.033 -49.968  1.00  0.00     0.109 A 
HETATM   16  H   UNL     1     -40.405  52.370 -48.869  1.00  0.00     0.168 HD
ENDBRANCH   2   5
BRANCH   1  17
HETATM   17  C   UNL     1     -43.772  57.272 -51.339  1.00  0.00     0.161 C 
BRANCH  17  18
HETATM   18  C   UNL     1     -44.074  57.959 -52.646  1.00  0.00    -0.039 A 
HETATM   19  C   UNL     1     -43.620  57.406 -53.855  1.00  0.00     0.027 A 
HETATM   20  C   UNL     1     -43.960  57.976 -55.091  1.00  0.00     0.000 A 
HETATM   21  C   UNL     1     -44.780  59.105 -55.110  1.00  0.00     0.018 A 
HETATM   22  C   UNL     1     -45.244  59.664 -53.917  1.00  0.00     0.002 A 
HETATM   23  C   UNL     1     -44.900  59.089 -52.694  1.00  0.00     0.009 A 
BRANCH  20  24
HETATM   24  S   UNL     1     -43.381  57.156 -56.570  1.00  0.00    -0.134 SA
HETATM   25  C   UNL     1     -44.610  57.685 -57.794  1.00  0.00     0.095 C 
ENDBRANCH  20  24
ENDBRANCH  17  18
ENDBRANCH   1  17
TORSDOF 4
ENDMDL
