MODEL 1
REMARK VINA RESULT:      -8.8      0.000      0.000
REMARK  8 active torsions:
REMARK  status: ('A' for Active; 'I' for Inactive)
REMARK    1  A    between atoms: C_4  and  C_5 
REMARK    2  A    between atoms: C_5  and  N_6 
REMARK    3  A    between atoms: C_5  and  C_31 
REMARK       I    between atoms: N_6  and  C_7 
REMARK    4  A    between atoms: N_6  and  C_21 
REMARK    5  A    between atoms: C_7  and  C_8 
REMARK    6  A    between atoms: C_11  and  C_12 
REMARK    7  A    between atoms: C_21  and  C_22 
REMARK       I    between atoms: C_31  and  N_32 
REMARK    8  A    between atoms: N_32  and  C_33 
ROOT
HETATM    1  N   UNL     1     -42.276  58.415 -51.322  1.00  0.00    -0.323 N 
HETATM    2  C   UNL     1     -41.134  57.802 -50.804  1.00  0.00     0.271 C 
HETATM    3  O   UNL     1     -40.106  58.450 -50.602  1.00  0.00    -0.266 OA
ENDROOT
BRANCH   1   4
HETATM    4  C   UNL     1     -42.157  59.847 -51.670  1.00  0.00     0.237 C 
BRANCH   4   5
HETATM    5  C   UNL     1     -43.273  60.627 -51.027  1.00  0.00     0.085 A 
HETATM    6  O   UNL     1     -44.468  60.756 -51.680  1.00  0.00    -0.317 OA
HETATM    7  C   UNL     1     -45.283  61.514 -50.896  1.00  0.00     0.049 A 
HETATM    8  C   UNL     1     -46.622  61.817 -51.439  1.00  0.00     0.076 C 
HETATM    9  C   UNL     1     -44.641  61.840 -49.722  1.00  0.00     0.035 A 
HETATM   10  C   UNL     1     -43.349  61.269 -49.804  1.00  0.00     0.038 A 
ENDBRANCH   4   5
BRANCH   4  11
HETATM   11  C   UNL     1     -41.891  60.064 -53.185  1.00  0.00     0.247 C 
HETATM   12  N   UNL     1     -42.839  60.734 -53.919  1.00  0.00    -0.354 N 
HETATM   13  H   UNL     1     -43.659  61.049 -53.409  1.00  0.00     0.162 HD
HETATM   14  O   UNL     1     -40.876  59.594 -53.702  1.00  0.00    -0.271 OA
BRANCH  12  15
HETATM   15  C   UNL     1     -42.818  61.043 -55.347  1.00  0.00     0.084 C 
HETATM   16  C   UNL     1     -43.379  59.924 -56.237  1.00  0.00     0.025 C 
HETATM   17  C   UNL     1     -44.856  60.059 -56.602  1.00  0.00     0.002 C 
HETATM   18  C   UNL     1     -45.200  61.462 -57.086  1.00  0.00     0.000 C 
HETATM   19  C   UNL     1     -44.814  62.519 -56.060  1.00  0.00     0.002 C 
HETATM   20  C   UNL     1     -43.335  62.446 -55.691  1.00  0.00     0.025 C 
ENDBRANCH  12  15
ENDBRANCH   4  11
ENDBRANCH   1   4
BRANCH   1  21
HETATM   21  C   UNL     1     -43.511  57.726 -51.707  1.00  0.00     0.166 C 
BRANCH  21  22
HETATM   22  C   UNL     1     -43.441  56.696 -52.815  1.00  0.00    -0.037 A 
HETATM   23  C   UNL     1     -43.069  57.150 -54.098  1.00  0.00     0.048 A 
HETATM   24  C   UNL     1     -43.028  56.244 -55.137  1.00  0.00     0.105 A 
HETATM   25  C   UNL     1     -43.348  54.922 -54.957  1.00  0.00     0.105 A 
HETATM   26  O   UNL     1     -42.685  56.526 -56.423  1.00  0.00    -0.323 OA
HETATM   27  O   UNL     1     -43.245  54.201 -56.104  1.00  0.00    -0.323 OA
HETATM   28  C   UNL     1     -43.722  54.435 -53.726  1.00  0.00     0.040 A 
HETATM   29  C   UNL     1     -42.831  55.225 -57.030  1.00  0.00     0.352 A 
HETATM   30  C   UNL     1     -43.765  55.331 -52.650  1.00  0.00     0.012 A 
ENDBRANCH  21  22
ENDBRANCH   1  21
BRANCH   2  31
HETATM   31  C   UNL     1     -41.105  56.372 -50.574  1.00  0.00     0.101 A 
HETATM   32  N   UNL     1     -40.618  55.531 -51.554  1.00  0.00    -0.351 N 
HETATM   33  H   UNL     1     -40.252  55.865 -52.437  1.00  0.00     0.166 HD
HETATM   34  C   UNL     1     -40.719  54.210 -51.186  1.00  0.00     0.043 A 
HETATM   35  C   UNL     1     -41.172  54.215 -49.879  1.00  0.00     0.033 A 
HETATM   36  C   UNL     1     -41.394  55.563 -49.491  1.00  0.00     0.037 A 
BRANCH  34  37
HETATM   37  C   UNL     1     -40.342  53.108 -52.075  1.00  0.00    -0.009 A 
HETATM   38  C   UNL     1     -39.842  51.909 -51.551  1.00  0.00     0.013 A 
HETATM   39  C   UNL     1     -39.476  50.857 -52.396  1.00  0.00     0.001 A 
HETATM   40  C   UNL     1     -39.608  50.991 -53.776  1.00  0.00     0.000 A 
HETATM   41  C   UNL     1     -40.110  52.174 -54.313  1.00  0.00     0.001 A 
HETATM   42  C   UNL     1     -40.476  53.225 -53.468  1.00  0.00     0.013 A 
ENDBRANCH  34  37
ENDBRANCH   2  31
TORSDOF 8
ENDMDL
MODEL 2
REMARK VINA RESULT:      -8.8      2.208      4.765
REMARK  8 active torsions:
REMARK  status: ('A' for Active; 'I' for Inactive)
REMARK    1  A    between atoms: C_4  and  C_5 
REMARK    2  A    between atoms: C_5  and  N_6 
REMARK    3  A    between atoms: C_5  and  C_31 
REMARK       I    between atoms: N_6  and  C_7 
REMARK    4  A    between atoms: N_6  and  C_21 
REMARK    5  A    between atoms: C_7  and  C_8 
REMARK    6  A    between atoms: C_11  and  C_12 
REMARK    7  A    between atoms: C_21  and  C_22 
REMARK       I    between atoms: C_31  and  N_32 
REMARK    8  A    between atoms: N_32  and  C_33 
ROOT
HETATM    1  N   UNL     1     -42.717  57.423 -54.895  1.00  0.00    -0.323 N 
HETATM    2  C   UNL     1     -42.594  56.316 -54.054  1.00  0.00     0.271 C 
HETATM    3  O   UNL     1     -43.247  56.238 -53.012  1.00  0.00    -0.266 OA
ENDROOT
BRANCH   1   4
HETATM    4  C   UNL     1     -43.611  58.506 -54.435  1.00  0.00     0.237 C 
BRANCH   4   5
HETATM    5  C   UNL     1     -44.512  58.944 -55.559  1.00  0.00     0.085 A 
HETATM    6  O   UNL     1     -45.450  58.076 -56.047  1.00  0.00    -0.317 OA
HETATM    7  C   UNL     1     -46.108  58.711 -57.057  1.00  0.00     0.049 A 
HETATM    8  C   UNL     1     -47.143  57.928 -57.761  1.00  0.00     0.076 C 
HETATM    9  C   UNL     1     -45.633  59.996 -57.197  1.00  0.00     0.035 A 
HETATM   10  C   UNL     1     -44.608  60.148 -56.233  1.00  0.00     0.038 A 
ENDBRANCH   4   5
BRANCH   4  11
HETATM   11  C   UNL     1     -42.847  59.601 -53.641  1.00  0.00     0.247 C 
HETATM   12  N   UNL     1     -43.464  60.159 -52.549  1.00  0.00    -0.354 N 
HETATM   13  H   UNL     1     -44.391  59.807 -52.331  1.00  0.00     0.162 HD
HETATM   14  O   UNL     1     -41.741  59.980 -54.031  1.00  0.00    -0.271 OA
BRANCH  12  15
HETATM   15  C   UNL     1     -42.955  61.205 -51.664  1.00  0.00     0.084 C 
HETATM   16  C   UNL     1     -43.538  62.599 -51.945  1.00  0.00     0.025 C 
HETATM   17  C   UNL     1     -44.750  62.981 -51.099  1.00  0.00     0.002 C 
HETATM   18  C   UNL     1     -44.530  62.692 -49.620  1.00  0.00     0.000 C 
HETATM   19  C   UNL     1     -44.164  61.234 -49.382  1.00  0.00     0.002 C 
HETATM   20  C   UNL     1     -42.934  60.814 -50.181  1.00  0.00     0.025 C 
ENDBRANCH  12  15
ENDBRANCH   4  11
ENDBRANCH   1   4
BRANCH   1  21
HETATM   21  C   UNL     1     -41.914  57.673 -56.095  1.00  0.00     0.166 C 
BRANCH  21  22
HETATM   22  C   UNL     1     -42.522  57.349 -57.444  1.00  0.00    -0.037 A 
HETATM   23  C   UNL     1     -43.141  56.090 -57.588  1.00  0.00     0.048 A 
HETATM   24  C   UNL     1     -43.675  55.748 -58.813  1.00  0.00     0.105 A 
HETATM   25  C   UNL     1     -43.609  56.594 -59.891  1.00  0.00     0.105 A 
HETATM   26  O   UNL     1     -44.305  54.579 -59.106  1.00  0.00    -0.323 OA
HETATM   27  O   UNL     1     -44.192  56.069 -61.002  1.00  0.00    -0.323 OA
HETATM   28  C   UNL     1     -43.009  57.829 -59.801  1.00  0.00     0.040 A 
HETATM   29  C   UNL     1     -44.625  54.790 -60.498  1.00  0.00     0.352 A 
HETATM   30  C   UNL     1     -42.466  58.205 -58.565  1.00  0.00     0.012 A 
ENDBRANCH  21  22
ENDBRANCH   1  21
BRANCH   2  31
HETATM   31  C   UNL     1     -41.630  55.273 -54.343  1.00  0.00     0.101 A 
HETATM   32  N   UNL     1     -41.552  54.166 -53.523  1.00  0.00    -0.351 N 
HETATM   33  H   UNL     1     -42.158  54.028 -52.723  1.00  0.00     0.166 HD
HETATM   34  C   UNL     1     -40.548  53.313 -53.916  1.00  0.00     0.043 A 
HETATM   35  C   UNL     1     -40.051  53.832 -55.098  1.00  0.00     0.033 A 
HETATM   36  C   UNL     1     -40.738  55.044 -55.375  1.00  0.00     0.037 A 
BRANCH  34  37
HETATM   37  C   UNL     1     -40.204  52.099 -53.172  1.00  0.00    -0.009 A 
HETATM   38  C   UNL     1     -40.041  52.137 -51.781  1.00  0.00     0.013 A 
HETATM   39  C   UNL     1     -39.707  50.981 -51.068  1.00  0.00     0.001 A 
HETATM   40  C   UNL     1     -39.535  49.772 -51.739  1.00  0.00     0.000 A 
HETATM   41  C   UNL     1     -39.700  49.716 -53.120  1.00  0.00     0.001 A 
HETATM   42  C   UNL     1     -40.034  50.871 -53.832  1.00  0.00     0.013 A 
ENDBRANCH  34  37
ENDBRANCH   2  31
TORSDOF 8
ENDMDL
MODEL 3
REMARK VINA RESULT:      -8.6      2.172      2.981
REMARK  8 active torsions:
REMARK  status: ('A' for Active; 'I' for Inactive)
REMARK    1  A    between atoms: C_4  and  C_5 
REMARK    2  A    between atoms: C_5  and  N_6 
REMARK    3  A    between atoms: C_5  and  C_31 
REMARK       I    between atoms: N_6  and  C_7 
REMARK    4  A    between atoms: N_6  and  C_21 
REMARK    5  A    between atoms: C_7  and  C_8 
REMARK    6  A    between atoms: C_11  and  C_12 
REMARK    7  A    between atoms: C_21  and  C_22 
REMARK       I    between atoms: C_31  and  N_32 
REMARK    8  A    between atoms: N_32  and  C_33 
ROOT
HETATM    1  N   UNL     1     -43.561  58.721 -53.613  1.00  0.00    -0.323 N 
HETATM    2  C   UNL     1     -42.746  58.239 -52.586  1.00  0.00     0.271 C 
HETATM    3  O   UNL     1     -41.914  58.969 -52.046  1.00  0.00    -0.266 OA
ENDROOT
BRANCH   1   4
HETATM    4  C   UNL     1     -43.320  60.112 -54.049  1.00  0.00     0.237 C 
BRANCH   4   5
HETATM    5  C   UNL     1     -44.630  60.836 -54.209  1.00  0.00     0.085 A 
HETATM    6  O   UNL     1     -45.177  60.973 -55.455  1.00  0.00    -0.317 OA
HETATM    7  C   UNL     1     -46.337  61.673 -55.318  1.00  0.00     0.049 A 
HETATM    8  C   UNL     1     -47.073  61.976 -56.562  1.00  0.00     0.076 C 
HETATM    9  C   UNL     1     -46.567  61.953 -53.989  1.00  0.00     0.035 A 
HETATM   10  C   UNL     1     -45.471  61.413 -53.275  1.00  0.00     0.038 A 
ENDBRANCH   4   5
BRANCH   4  11
HETATM   11  C   UNL     1     -42.294  60.194 -55.213  1.00  0.00     0.247 C 
HETATM   12  N   UNL     1     -42.524  61.102 -56.217  1.00  0.00    -0.354 N 
HETATM   13  H   UNL     1     -43.362  61.668 -56.124  1.00  0.00     0.162 HD
HETATM   14  O   UNL     1     -41.335  59.420 -55.239  1.00  0.00    -0.271 OA
BRANCH  12  15
HETATM   15  C   UNL     1     -41.717  61.349 -57.409  1.00  0.00     0.084 C 
HETATM   16  C   UNL     1     -41.803  60.236 -58.465  1.00  0.00     0.025 C 
HETATM   17  C   UNL     1     -42.838  60.459 -59.565  1.00  0.00     0.002 C 
HETATM   18  C   UNL     1     -42.754  61.860 -60.154  1.00  0.00     0.000 C 
HETATM   19  C   UNL     1     -42.892  62.930 -59.080  1.00  0.00     0.002 C 
HETATM   20  C   UNL     1     -41.853  62.769 -57.974  1.00  0.00     0.025 C 
ENDBRANCH  12  15
ENDBRANCH   4  11
ENDBRANCH   1   4
BRANCH   1  21
HETATM   21  C   UNL     1     -44.502  57.919 -54.399  1.00  0.00     0.166 C 
BRANCH  21  22
HETATM   22  C   UNL     1     -44.002  57.279 -55.678  1.00  0.00    -0.037 A 
HETATM   23  C   UNL     1     -44.500  57.790 -56.895  1.00  0.00     0.048 A 
HETATM   24  C   UNL     1     -44.092  57.208 -58.077  1.00  0.00     0.105 A 
HETATM   25  C   UNL     1     -43.226  56.144 -58.097  1.00  0.00     0.105 A 
HETATM   26  O   UNL     1     -44.478  57.589 -59.324  1.00  0.00    -0.323 OA
HETATM   27  O   UNL     1     -42.952  55.720 -59.359  1.00  0.00    -0.323 OA
HETATM   28  C   UNL     1     -42.718  55.608 -56.937  1.00  0.00     0.040 A 
HETATM   29  C   UNL     1     -43.754  56.636 -60.131  1.00  0.00     0.352 A 
HETATM   30  C   UNL     1     -43.110  56.184 -55.721  1.00  0.00     0.012 A 
ENDBRANCH  21  22
ENDBRANCH   1  21
BRANCH   2  31
HETATM   31  C   UNL     1     -42.803  56.846 -52.192  1.00  0.00     0.101 A 
HETATM   32  N   UNL     1     -41.825  55.973 -52.623  1.00  0.00    -0.351 N 
HETATM   33  H   UNL     1     -41.041  56.260 -53.195  1.00  0.00     0.166 HD
HETATM   34  C   UNL     1     -42.071  54.687 -52.200  1.00  0.00     0.043 A 
HETATM   35  C   UNL     1     -43.174  54.767 -51.370  1.00  0.00     0.033 A 
HETATM   36  C   UNL     1     -43.620  56.115 -51.349  1.00  0.00     0.037 A 
BRANCH  34  37
HETATM   37  C   UNL     1     -41.226  53.553 -52.581  1.00  0.00    -0.009 A 
HETATM   38  C   UNL     1     -40.403  52.928 -51.635  1.00  0.00     0.013 A 
HETATM   39  C   UNL     1     -39.590  51.849 -51.996  1.00  0.00     0.001 A 
HETATM   40  C   UNL     1     -39.595  51.379 -53.308  1.00  0.00     0.000 A 
HETATM   41  C   UNL     1     -40.413  51.984 -54.258  1.00  0.00     0.001 A 
HETATM   42  C   UNL     1     -41.225  53.063 -53.897  1.00  0.00     0.013 A 
ENDBRANCH  34  37
ENDBRANCH   2  31
TORSDOF 8
ENDMDL
MODEL 4
REMARK VINA RESULT:      -8.5      2.721      5.650
REMARK  8 active torsions:
REMARK  status: ('A' for Active; 'I' for Inactive)
REMARK    1  A    between atoms: C_4  and  C_5 
REMARK    2  A    between atoms: C_5  and  N_6 
REMARK    3  A    between atoms: C_5  and  C_31 
REMARK       I    between atoms: N_6  and  C_7 
REMARK    4  A    between atoms: N_6  and  C_21 
REMARK    5  A    between atoms: C_7  and  C_8 
REMARK    6  A    between atoms: C_11  and  C_12 
REMARK    7  A    between atoms: C_21  and  C_22 
REMARK       I    between atoms: C_31  and  N_32 
REMARK    8  A    between atoms: N_32  and  C_33 
ROOT
HETATM    1  N   UNL     1     -43.613  59.496 -56.042  1.00  0.00    -0.323 N 
HETATM    2  C   UNL     1     -42.268  59.566 -55.674  1.00  0.00     0.271 C 
HETATM    3  O   UNL     1     -41.478  60.275 -56.299  1.00  0.00    -0.266 OA
ENDROOT
BRANCH   1   4
HETATM    4  C   UNL     1     -44.008  60.257 -57.245  1.00  0.00     0.237 C 
BRANCH   4   5
HETATM    5  C   UNL     1     -45.403  60.799 -57.077  1.00  0.00     0.085 A 
HETATM    6  O   UNL     1     -46.450  60.168 -57.690  1.00  0.00    -0.317 OA
HETATM    7  C   UNL     1     -47.580  60.866 -57.392  1.00  0.00     0.049 A 
HETATM    8  C   UNL     1     -48.834  60.376 -57.998  1.00  0.00     0.076 C 
HETATM    9  C   UNL     1     -47.280  61.917 -56.555  1.00  0.00     0.035 A 
HETATM   10  C   UNL     1     -45.881  61.875 -56.351  1.00  0.00     0.038 A 
ENDBRANCH   4   5
BRANCH   4  11
HETATM   11  C   UNL     1     -43.673  59.497 -58.558  1.00  0.00     0.247 C 
HETATM   12  N   UNL     1     -44.211  58.246 -58.738  1.00  0.00    -0.354 N 
HETATM   13  H   UNL     1     -44.803  57.902 -57.987  1.00  0.00     0.162 HD
HETATM   14  O   UNL     1     -42.902  60.001 -59.377  1.00  0.00    -0.271 OA
BRANCH  12  15
HETATM   15  C   UNL     1     -44.029  57.343 -59.871  1.00  0.00     0.084 C 
HETATM   16  C   UNL     1     -43.120  56.141 -59.574  1.00  0.00     0.025 C 
HETATM   17  C   UNL     1     -43.842  54.867 -59.143  1.00  0.00     0.002 C 
HETATM   18  C   UNL     1     -45.017  54.539 -60.055  1.00  0.00     0.000 C 
HETATM   19  C   UNL     1     -46.002  55.697 -60.140  1.00  0.00     0.002 C 
HETATM   20  C   UNL     1     -45.330  56.987 -60.602  1.00  0.00     0.025 C 
ENDBRANCH  12  15
ENDBRANCH   4  11
ENDBRANCH   1   4
BRANCH   1  21
HETATM   21  C   UNL     1     -44.613  58.607 -55.445  1.00  0.00     0.166 C 
BRANCH  21  22
HETATM   22  C   UNL     1     -44.903  58.748 -53.964  1.00  0.00    -0.037 A 
HETATM   23  C   UNL     1     -45.281  60.025 -53.498  1.00  0.00     0.048 A 
HETATM   24  C   UNL     1     -45.519  60.196 -52.150  1.00  0.00     0.105 A 
HETATM   25  C   UNL     1     -45.387  59.164 -51.256  1.00  0.00     0.105 A 
HETATM   26  O   UNL     1     -45.894  61.358 -51.552  1.00  0.00    -0.323 OA
HETATM   27  O   UNL     1     -45.665  59.541 -49.980  1.00  0.00    -0.323 OA
HETATM   28  C   UNL     1     -45.014  57.903 -51.663  1.00  0.00     0.040 A 
HETATM   29  C   UNL     1     -45.979  60.935 -50.174  1.00  0.00     0.352 A 
HETATM   30  C   UNL     1     -44.774  57.699 -53.028  1.00  0.00     0.012 A 
ENDBRANCH  21  22
ENDBRANCH   1  21
BRANCH   2  31
HETATM   31  C   UNL     1     -41.753  58.739 -54.601  1.00  0.00     0.101 A 
HETATM   32  N   UNL     1     -41.529  57.395 -54.820  1.00  0.00    -0.351 N 
HETATM   33  H   UNL     1     -41.688  56.947 -55.714  1.00  0.00     0.166 HD
HETATM   34  C   UNL     1     -41.096  56.760 -53.680  1.00  0.00     0.043 A 
HETATM   35  C   UNL     1     -40.921  57.756 -52.736  1.00  0.00     0.033 A 
HETATM   36  C   UNL     1     -41.312  58.992 -53.315  1.00  0.00     0.037 A 
BRANCH  34  37
HETATM   37  C   UNL     1     -40.856  55.317 -53.619  1.00  0.00    -0.009 A 
HETATM   38  C   UNL     1     -40.457  54.612 -54.763  1.00  0.00     0.013 A 
HETATM   39  C   UNL     1     -40.232  53.233 -54.710  1.00  0.00     0.001 A 
HETATM   40  C   UNL     1     -40.400  52.543 -53.512  1.00  0.00     0.000 A 
HETATM   41  C   UNL     1     -40.789  53.229 -52.365  1.00  0.00     0.001 A 
HETATM   42  C   UNL     1     -41.013  54.607 -52.417  1.00  0.00     0.013 A 
ENDBRANCH  34  37
ENDBRANCH   2  31
TORSDOF 8
ENDMDL
MODEL 5
REMARK VINA RESULT:      -8.4      1.922      3.704
REMARK  8 active torsions:
REMARK  status: ('A' for Active; 'I' for Inactive)
REMARK    1  A    between atoms: C_4  and  C_5 
REMARK    2  A    between atoms: C_5  and  N_6 
REMARK    3  A    between atoms: C_5  and  C_31 
REMARK       I    between atoms: N_6  and  C_7 
REMARK    4  A    between atoms: N_6  and  C_21 
REMARK    5  A    between atoms: C_7  and  C_8 
REMARK    6  A    between atoms: C_11  and  C_12 
REMARK    7  A    between atoms: C_21  and  C_22 
REMARK       I    between atoms: C_31  and  N_32 
REMARK    8  A    between atoms: N_32  and  C_33 
ROOT
HETATM    1  N   UNL     1     -42.804  58.342 -53.547  1.00  0.00    -0.323 N 
HETATM    2  C   UNL     1     -42.083  57.612 -54.493  1.00  0.00     0.271 C 
HETATM    3  O   UNL     1     -41.338  58.179 -55.293  1.00  0.00    -0.266 OA
ENDROOT
BRANCH   1   4
HETATM    4  C   UNL     1     -42.673  59.813 -53.606  1.00  0.00     0.237 C 
BRANCH   4   5
HETATM    5  C   UNL     1     -43.029  60.417 -52.275  1.00  0.00     0.085 A 
HETATM    6  O   UNL     1     -44.275  60.949 -52.088  1.00  0.00    -0.317 OA
HETATM    7  C   UNL     1     -44.327  61.437 -50.818  1.00  0.00     0.049 A 
HETATM    8  C   UNL     1     -45.582  62.104 -50.419  1.00  0.00     0.076 C 
HETATM    9  C   UNL     1     -43.139  61.186 -50.166  1.00  0.00     0.035 A 
HETATM   10  C   UNL     1     -42.305  60.528 -51.101  1.00  0.00     0.038 A 
ENDBRANCH   4   5
BRANCH   4  11
HETATM   11  C   UNL     1     -43.331  60.411 -54.880  1.00  0.00     0.247 C 
HETATM   12  N   UNL     1     -42.513  60.965 -55.833  1.00  0.00    -0.354 N 
HETATM   13  H   UNL     1     -41.516  60.941 -55.636  1.00  0.00     0.162 HD
HETATM   14  O   UNL     1     -44.559  60.423 -54.986  1.00  0.00    -0.271 OA
BRANCH  12  15
HETATM   15  C   UNL     1     -42.898  61.595 -57.094  1.00  0.00     0.084 C 
HETATM   16  C   UNL     1     -42.007  62.778 -57.500  1.00  0.00     0.025 C 
HETATM   17  C   UNL     1     -40.857  62.436 -58.444  1.00  0.00     0.002 C 
HETATM   18  C   UNL     1     -41.315  61.580 -59.617  1.00  0.00     0.000 C 
HETATM   19  C   UNL     1     -42.005  60.307 -59.147  1.00  0.00     0.002 C 
HETATM   20  C   UNL     1     -43.186  60.602 -58.227  1.00  0.00     0.025 C 
ENDBRANCH  12  15
ENDBRANCH   4  11
ENDBRANCH   1   4
BRANCH   1  21
HETATM   21  C   UNL     1     -43.800  57.790 -52.624  1.00  0.00     0.166 C 
BRANCH  21  22
HETATM   22  C   UNL     1     -43.363  56.697 -51.670  1.00  0.00    -0.037 A 
HETATM   23  C   UNL     1     -42.173  56.910 -50.943  1.00  0.00     0.048 A 
HETATM   24  C   UNL     1     -41.728  55.921 -50.091  1.00  0.00     0.105 A 
HETATM   25  C   UNL     1     -42.405  54.737 -49.943  1.00  0.00     0.105 A 
HETATM   26  O   UNL     1     -40.608  55.981 -49.322  1.00  0.00    -0.323 OA
HETATM   27  O   UNL     1     -41.801  53.899 -49.060  1.00  0.00    -0.323 OA
HETATM   28  C   UNL     1     -43.566  54.480 -50.636  1.00  0.00     0.040 A 
HETATM   29  C   UNL     1     -40.660  54.691 -48.675  1.00  0.00     0.352 A 
HETATM   30  C   UNL     1     -44.045  55.472 -51.503  1.00  0.00     0.012 A 
ENDBRANCH  21  22
ENDBRANCH   1  21
BRANCH   2  31
HETATM   31  C   UNL     1     -42.262  56.179 -54.612  1.00  0.00     0.101 A 
HETATM   32  N   UNL     1     -41.432  55.326 -53.915  1.00  0.00    -0.351 N 
HETATM   33  H   UNL     1     -40.702  55.651 -53.294  1.00  0.00     0.166 HD
HETATM   34  C   UNL     1     -41.711  54.008 -54.192  1.00  0.00     0.043 A 
HETATM   35  C   UNL     1     -42.835  54.020 -54.997  1.00  0.00     0.033 A 
HETATM   36  C   UNL     1     -43.191  55.373 -55.244  1.00  0.00     0.037 A 
BRANCH  34  37
HETATM   37  C   UNL     1     -40.928  52.900 -53.640  1.00  0.00    -0.009 A 
HETATM   38  C   UNL     1     -40.453  52.949 -52.323  1.00  0.00     0.013 A 
HETATM   39  C   UNL     1     -39.701  51.896 -51.794  1.00  0.00     0.001 A 
HETATM   40  C   UNL     1     -39.418  50.778 -52.575  1.00  0.00     0.000 A 
HETATM   41  C   UNL     1     -39.890  50.710 -53.883  1.00  0.00     0.001 A 
HETATM   42  C   UNL     1     -40.641  51.762 -54.412  1.00  0.00     0.013 A 
ENDBRANCH  34  37
ENDBRANCH   2  31
TORSDOF 8
ENDMDL
MODEL 6
REMARK VINA RESULT:      -8.3      3.004      7.839
REMARK  8 active torsions:
REMARK  status: ('A' for Active; 'I' for Inactive)
REMARK    1  A    between atoms: C_4  and  C_5 
REMARK    2  A    between atoms: C_5  and  N_6 
REMARK    3  A    between atoms: C_5  and  C_31 
REMARK       I    between atoms: N_6  and  C_7 
REMARK    4  A    between atoms: N_6  and  C_21 
REMARK    5  A    between atoms: C_7  and  C_8 
REMARK    6  A    between atoms: C_11  and  C_12 
REMARK    7  A    between atoms: C_21  and  C_22 
REMARK       I    between atoms: C_31  and  N_32 
REMARK    8  A    between atoms: N_32  and  C_33 
ROOT
HETATM    1  N   UNL     1     -43.337  58.400 -54.920  1.00  0.00    -0.323 N 
HETATM    2  C   UNL     1     -44.600  58.934 -55.181  1.00  0.00     0.271 C 
HETATM    3  O   UNL     1     -45.473  58.944 -54.312  1.00  0.00    -0.266 OA
ENDROOT
BRANCH   1   4
HETATM    4  C   UNL     1     -43.137  57.798 -53.585  1.00  0.00     0.237 C 
BRANCH   4   5
HETATM    5  C   UNL     1     -41.876  58.332 -52.961  1.00  0.00     0.085 A 
HETATM    6  O   UNL     1     -41.857  58.629 -51.626  1.00  0.00    -0.317 OA
HETATM    7  C   UNL     1     -40.616  59.105 -51.329  1.00  0.00     0.049 A 
HETATM    8  C   UNL     1     -40.392  59.533 -49.934  1.00  0.00     0.076 C 
HETATM    9  C   UNL     1     -39.818  59.077 -52.452  1.00  0.00     0.035 A 
HETATM   10  C   UNL     1     -40.626  58.579 -53.501  1.00  0.00     0.038 A 
ENDBRANCH   4   5
BRANCH   4  11
HETATM   11  C   UNL     1     -43.352  56.259 -53.595  1.00  0.00     0.247 C 
HETATM   12  N   UNL     1     -42.330  55.459 -53.146  1.00  0.00    -0.354 N 
HETATM   13  H   UNL     1     -41.493  55.939 -52.830  1.00  0.00     0.162 HD
HETATM   14  O   UNL     1     -44.398  55.790 -54.048  1.00  0.00    -0.271 OA
BRANCH  12  15
HETATM   15  C   UNL     1     -42.294  54.000 -53.076  1.00  0.00     0.084 C 
HETATM   16  C   UNL     1     -41.735  53.327 -54.338  1.00  0.00     0.025 C 
HETATM   17  C   UNL     1     -40.244  53.002 -54.297  1.00  0.00     0.002 C 
HETATM   18  C   UNL     1     -39.844  52.309 -53.002  1.00  0.00     0.000 C 
HETATM   19  C   UNL     1     -40.234  53.132 -51.782  1.00  0.00     0.002 C 
HETATM   20  C   UNL     1     -41.726  53.452 -51.760  1.00  0.00     0.025 C 
ENDBRANCH  12  15
ENDBRANCH   4  11
ENDBRANCH   1   4
BRANCH   1  21
HETATM   21  C   UNL     1     -42.263  58.234 -55.903  1.00  0.00     0.166 C 
BRANCH  21  22
HETATM   22  C   UNL     1     -42.611  57.626 -57.246  1.00  0.00    -0.037 A 
HETATM   23  C   UNL     1     -43.238  56.362 -57.242  1.00  0.00     0.048 A 
HETATM   24  C   UNL     1     -43.537  55.764 -58.448  1.00  0.00     0.105 A 
HETATM   25  C   UNL     1     -43.232  56.361 -59.645  1.00  0.00     0.105 A 
HETATM   26  O   UNL     1     -44.143  54.557 -58.607  1.00  0.00    -0.323 OA
HETATM   27  O   UNL     1     -43.609  55.608 -60.713  1.00  0.00    -0.323 OA
HETATM   28  C   UNL     1     -42.615  57.589 -59.700  1.00  0.00     0.040 A 
HETATM   29  C   UNL     1     -44.180  54.464 -60.047  1.00  0.00     0.352 A 
HETATM   30  C   UNL     1     -42.307  58.223 -58.489  1.00  0.00     0.012 A 
ENDBRANCH  21  22
ENDBRANCH   1  21
BRANCH   2  31
HETATM   31  C   UNL     1     -44.939  59.409 -56.507  1.00  0.00     0.101 A 
HETATM   32  N   UNL     1     -45.735  58.638 -57.328  1.00  0.00    -0.351 N 
HETATM   33  H   UNL     1     -46.123  57.746 -57.043  1.00  0.00     0.166 HD
HETATM   34  C   UNL     1     -45.905  59.219 -58.563  1.00  0.00     0.043 A 
HETATM   35  C   UNL     1     -45.299  60.459 -58.483  1.00  0.00     0.033 A 
HETATM   36  C   UNL     1     -44.713  60.587 -57.196  1.00  0.00     0.037 A 
BRANCH  34  37
HETATM   37  C   UNL     1     -46.647  58.572 -59.647  1.00  0.00    -0.009 A 
HETATM   38  C   UNL     1     -46.664  57.176 -59.766  1.00  0.00     0.013 A 
HETATM   39  C   UNL     1     -47.366  56.554 -60.803  1.00  0.00     0.001 A 
HETATM   40  C   UNL     1     -48.063  57.323 -61.733  1.00  0.00     0.000 A 
HETATM   41  C   UNL     1     -48.062  58.711 -61.625  1.00  0.00     0.001 A 
HETATM   42  C   UNL     1     -47.361  59.331 -60.588  1.00  0.00     0.013 A 
ENDBRANCH  34  37
ENDBRANCH   2  31
TORSDOF 8
ENDMDL
MODEL 7
REMARK VINA RESULT:      -8.3      2.388      4.790
REMARK  8 active torsions:
REMARK  status: ('A' for Active; 'I' for Inactive)
REMARK    1  A    between atoms: C_4  and  C_5 
REMARK    2  A    between atoms: C_5  and  N_6 
REMARK    3  A    between atoms: C_5  and  C_31 
REMARK       I    between atoms: N_6  and  C_7 
REMARK    4  A    between atoms: N_6  and  C_21 
REMARK    5  A    between atoms: C_7  and  C_8 
REMARK    6  A    between atoms: C_11  and  C_12 
REMARK    7  A    between atoms: C_21  and  C_22 
REMARK       I    between atoms: C_31  and  N_32 
REMARK    8  A    between atoms: N_32  and  C_33 
ROOT
HETATM    1  N   UNL     1     -43.478  56.923 -54.312  1.00  0.00    -0.323 N 
HETATM    2  C   UNL     1     -43.440  55.528 -54.281  1.00  0.00     0.271 C 
HETATM    3  O   UNL     1     -44.442  54.875 -53.987  1.00  0.00    -0.266 OA
ENDROOT
BRANCH   1   4
HETATM    4  C   UNL     1     -44.750  57.558 -53.910  1.00  0.00     0.237 C 
BRANCH   4   5
HETATM    5  C   UNL     1     -45.198  58.530 -54.968  1.00  0.00     0.085 A 
HETATM    6  O   UNL     1     -45.135  59.874 -54.719  1.00  0.00    -0.317 OA
HETATM    7  C   UNL     1     -45.610  60.518 -55.821  1.00  0.00     0.049 A 
HETATM    8  C   UNL     1     -45.674  61.991 -55.745  1.00  0.00     0.076 C 
HETATM    9  C   UNL     1     -45.938  59.604 -56.798  1.00  0.00     0.035 A 
HETATM   10  C   UNL     1     -45.672  58.326 -56.251  1.00  0.00     0.038 A 
ENDBRANCH   4   5
BRANCH   4  11
HETATM   11  C   UNL     1     -44.725  58.044 -52.435  1.00  0.00     0.247 C 
HETATM   12  N   UNL     1     -44.713  59.396 -52.198  1.00  0.00    -0.354 N 
HETATM   13  H   UNL     1     -44.725  59.994 -53.020  1.00  0.00     0.162 HD
HETATM   14  O   UNL     1     -44.665  57.220 -51.520  1.00  0.00    -0.271 OA
BRANCH  12  15
HETATM   15  C   UNL     1     -44.675  60.085 -50.910  1.00  0.00     0.084 C 
HETATM   16  C   UNL     1     -43.273  60.556 -50.494  1.00  0.00     0.025 C 
HETATM   17  C   UNL     1     -42.934  61.998 -50.862  1.00  0.00     0.002 C 
HETATM   18  C   UNL     1     -44.047  62.964 -50.478  1.00  0.00     0.000 C 
HETATM   19  C   UNL     1     -45.377  62.563 -51.101  1.00  0.00     0.002 C 
HETATM   20  C   UNL     1     -45.776  61.137 -50.730  1.00  0.00     0.025 C 
ENDBRANCH  12  15
ENDBRANCH   4  11
ENDBRANCH   1   4
BRANCH   1  21
HETATM   21  C   UNL     1     -42.326  57.801 -54.538  1.00  0.00     0.166 C 
BRANCH  21  22
HETATM   22  C   UNL     1     -42.210  58.497 -55.878  1.00  0.00    -0.037 A 
HETATM   23  C   UNL     1     -42.291  57.694 -57.034  1.00  0.00     0.048 A 
HETATM   24  C   UNL     1     -42.154  58.291 -58.270  1.00  0.00     0.105 A 
HETATM   25  C   UNL     1     -41.934  59.639 -58.400  1.00  0.00     0.105 A 
HETATM   26  O   UNL     1     -42.214  57.654 -59.470  1.00  0.00    -0.323 OA
HETATM   27  O   UNL     1     -41.828  60.025 -59.699  1.00  0.00    -0.323 OA
HETATM   28  C   UNL     1     -41.841  60.462 -57.302  1.00  0.00     0.040 A 
HETATM   29  C   UNL     1     -42.000  58.762 -60.371  1.00  0.00     0.352 A 
HETATM   30  C   UNL     1     -41.984  59.883 -56.034  1.00  0.00     0.012 A 
ENDBRANCH  21  22
ENDBRANCH   1  21
BRANCH   2  31
HETATM   31  C   UNL     1     -42.197  54.819 -54.512  1.00  0.00     0.101 A 
HETATM   32  N   UNL     1     -41.980  53.601 -53.900  1.00  0.00    -0.351 N 
HETATM   33  H   UNL     1     -42.664  53.154 -53.302  1.00  0.00     0.166 HD
HETATM   34  C   UNL     1     -40.731  53.104 -54.187  1.00  0.00     0.043 A 
HETATM   35  C   UNL     1     -40.181  53.975 -55.111  1.00  0.00     0.033 A 
HETATM   36  C   UNL     1     -41.102  55.033 -55.328  1.00  0.00     0.037 A 
BRANCH  34  37
HETATM   37  C   UNL     1     -40.220  51.861 -53.605  1.00  0.00    -0.009 A 
HETATM   38  C   UNL     1     -39.939  51.778 -52.235  1.00  0.00     0.013 A 
HETATM   39  C   UNL     1     -39.445  50.595 -51.677  1.00  0.00     0.001 A 
HETATM   40  C   UNL     1     -39.231  49.478 -52.482  1.00  0.00     0.000 A 
HETATM   41  C   UNL     1     -39.512  49.542 -53.844  1.00  0.00     0.001 A 
HETATM   42  C   UNL     1     -40.005  50.724 -54.402  1.00  0.00     0.013 A 
ENDBRANCH  34  37
ENDBRANCH   2  31
TORSDOF 8
ENDMDL
MODEL 8
REMARK VINA RESULT:      -8.3      2.451      5.188
REMARK  8 active torsions:
REMARK  status: ('A' for Active; 'I' for Inactive)
REMARK    1  A    between atoms: C_4  and  C_5 
REMARK    2  A    between atoms: C_5  and  N_6 
REMARK    3  A    between atoms: C_5  and  C_31 
REMARK       I    between atoms: N_6  and  C_7 
REMARK    4  A    between atoms: N_6  and  C_21 
REMARK    5  A    between atoms: C_7  and  C_8 
REMARK    6  A    between atoms: C_11  and  C_12 
REMARK    7  A    between atoms: C_21  and  C_22 
REMARK       I    between atoms: C_31  and  N_32 
REMARK    8  A    between atoms: N_32  and  C_33 
ROOT
HETATM    1  N   UNL     1     -43.073  58.396 -55.666  1.00  0.00    -0.323 N 
HETATM    2  C   UNL     1     -43.435  57.518 -54.643  1.00  0.00     0.271 C 
HETATM    3  O   UNL     1     -43.908  57.940 -53.587  1.00  0.00    -0.266 OA
ENDROOT
BRANCH   1   4
HETATM    4  C   UNL     1     -43.226  59.838 -55.384  1.00  0.00     0.237 C 
BRANCH   4   5
HETATM    5  C   UNL     1     -42.944  60.640 -56.626  1.00  0.00     0.085 A 
HETATM    6  O   UNL     1     -41.650  60.941 -56.953  1.00  0.00    -0.317 OA
HETATM    7  C   UNL     1     -41.679  61.679 -58.098  1.00  0.00     0.049 A 
HETATM    8  C   UNL     1     -40.377  62.154 -58.607  1.00  0.00     0.076 C 
HETATM    9  C   UNL     1     -42.976  61.820 -58.538  1.00  0.00     0.035 A 
HETATM   10  C   UNL     1     -43.790  61.150 -57.594  1.00  0.00     0.038 A 
ENDBRANCH   4   5
BRANCH   4  11
HETATM   11  C   UNL     1     -42.519  60.259 -54.066  1.00  0.00     0.247 C 
HETATM   12  N   UNL     1     -43.263  60.901 -53.108  1.00  0.00    -0.354 N 
HETATM   13  H   UNL     1     -44.242  61.055 -53.331  1.00  0.00     0.162 HD
HETATM   14  O   UNL     1     -41.310  60.057 -53.929  1.00  0.00    -0.271 OA
BRANCH  12  15
HETATM   15  C   UNL     1     -42.819  61.400 -51.808  1.00  0.00     0.084 C 
HETATM   16  C   UNL     1     -43.164  62.875 -51.553  1.00  0.00     0.025 C 
HETATM   17  C   UNL     1     -44.465  63.118 -50.793  1.00  0.00     0.002 C 
HETATM   18  C   UNL     1     -44.579  62.237 -49.556  1.00  0.00     0.000 C 
HETATM   19  C   UNL     1     -44.444  60.761 -49.905  1.00  0.00     0.002 C 
HETATM   20  C   UNL     1     -43.138  60.463 -50.636  1.00  0.00     0.025 C 
ENDBRANCH  12  15
ENDBRANCH   4  11
ENDBRANCH   1   4
BRANCH   1  21
HETATM   21  C   UNL     1     -42.401  58.019 -56.913  1.00  0.00     0.166 C 
BRANCH  21  22
HETATM   22  C   UNL     1     -43.216  57.322 -57.982  1.00  0.00    -0.037 A 
HETATM   23  C   UNL     1     -44.580  57.669 -58.086  1.00  0.00     0.048 A 
HETATM   24  C   UNL     1     -45.359  57.029 -59.026  1.00  0.00     0.105 A 
HETATM   25  C   UNL     1     -44.846  56.061 -59.852  1.00  0.00     0.105 A 
HETATM   26  O   UNL     1     -46.681  57.257 -59.249  1.00  0.00    -0.323 OA
HETATM   27  O   UNL     1     -45.778  55.556 -60.704  1.00  0.00    -0.323 OA
HETATM   28  C   UNL     1     -43.525  55.685 -59.784  1.00  0.00     0.040 A 
HETATM   29  C   UNL     1     -46.939  56.314 -60.311  1.00  0.00     0.352 A 
HETATM   30  C   UNL     1     -42.708  56.324 -58.843  1.00  0.00     0.012 A 
ENDBRANCH  21  22
ENDBRANCH   1  21
BRANCH   2  31
HETATM   31  C   UNL     1     -43.181  56.097 -54.766  1.00  0.00     0.101 A 
HETATM   32  N   UNL     1     -42.275  55.488 -53.922  1.00  0.00    -0.351 N 
HETATM   33  H   UNL     1     -41.781  55.984 -53.191  1.00  0.00     0.166 HD
HETATM   34  C   UNL     1     -42.120  54.154 -54.220  1.00  0.00     0.043 A 
HETATM   35  C   UNL     1     -43.050  53.877 -55.207  1.00  0.00     0.033 A 
HETATM   36  C   UNL     1     -43.724  55.083 -55.534  1.00  0.00     0.037 A 
BRANCH  34  37
HETATM   37  C   UNL     1     -41.163  53.292 -53.524  1.00  0.00    -0.009 A 
HETATM   38  C   UNL     1     -40.845  53.521 -52.178  1.00  0.00     0.013 A 
HETATM   39  C   UNL     1     -39.928  52.704 -51.511  1.00  0.00     0.001 A 
HETATM   40  C   UNL     1     -39.319  51.645 -52.181  1.00  0.00     0.000 A 
HETATM   41  C   UNL     1     -39.629  51.399 -53.516  1.00  0.00     0.001 A 
HETATM   42  C   UNL     1     -40.546  52.216 -54.182  1.00  0.00     0.013 A 
ENDBRANCH  34  37
ENDBRANCH   2  31
TORSDOF 8
ENDMDL
MODEL 9
REMARK VINA RESULT:      -8.0      2.373      8.228
REMARK  8 active torsions:
REMARK  status: ('A' for Active; 'I' for Inactive)
REMARK    1  A    between atoms: C_4  and  C_5 
REMARK    2  A    between atoms: C_5  and  N_6 
REMARK    3  A    between atoms: C_5  and  C_31 
REMARK       I    between atoms: N_6  and  C_7 
REMARK    4  A    between atoms: N_6  and  C_21 
REMARK    5  A    between atoms: C_7  and  C_8 
REMARK    6  A    between atoms: C_11  and  C_12 
REMARK    7  A    between atoms: C_21  and  C_22 
REMARK       I    between atoms: C_31  and  N_32 
REMARK    8  A    between atoms: N_32  and  C_33 
ROOT
HETATM    1  N   UNL     1     -42.975  58.295 -55.048  1.00  0.00    -0.323 N 
HETATM    2  C   UNL     1     -42.148  59.173 -54.345  1.00  0.00     0.271 C 
HETATM    3  O   UNL     1     -40.958  58.911 -54.164  1.00  0.00    -0.266 OA
ENDROOT
BRANCH   1   4
HETATM    4  C   UNL     1     -42.364  57.025 -55.493  1.00  0.00     0.237 C 
BRANCH   4   5
HETATM    5  C   UNL     1     -42.524  56.870 -56.982  1.00  0.00     0.085 A 
HETATM    6  O   UNL     1     -42.102  57.870 -57.813  1.00  0.00    -0.317 OA
HETATM    7  C   UNL     1     -42.378  57.486 -59.090  1.00  0.00     0.049 A 
HETATM    8  C   UNL     1     -42.041  58.451 -60.155  1.00  0.00     0.076 C 
HETATM    9  C   UNL     1     -42.936  56.227 -59.095  1.00  0.00     0.035 A 
HETATM   10  C   UNL     1     -43.029  55.829 -57.740  1.00  0.00     0.038 A 
ENDBRANCH   4   5
BRANCH   4  11
HETATM   11  C   UNL     1     -42.765  55.830 -54.586  1.00  0.00     0.247 C 
HETATM   12  N   UNL     1     -41.821  54.864 -54.332  1.00  0.00    -0.354 N 
HETATM   13  H   UNL     1     -40.911  55.005 -54.761  1.00  0.00     0.162 HD
HETATM   14  O   UNL     1     -43.918  55.744 -54.160  1.00  0.00    -0.271 OA
BRANCH  12  15
HETATM   15  C   UNL     1     -41.967  53.653 -53.529  1.00  0.00     0.084 C 
HETATM   16  C   UNL     1     -41.302  52.411 -54.143  1.00  0.00     0.025 C 
HETATM   17  C   UNL     1     -39.884  52.124 -53.657  1.00  0.00     0.002 C 
HETATM   18  C   UNL     1     -39.773  52.195 -52.139  1.00  0.00     0.000 C 
HETATM   19  C   UNL     1     -40.249  53.538 -51.604  1.00  0.00     0.002 C 
HETATM   20  C   UNL     1     -41.678  53.853 -52.036  1.00  0.00     0.025 C 
ENDBRANCH  12  15
ENDBRANCH   4  11
ENDBRANCH   1   4
BRANCH   1  21
HETATM   21  C   UNL     1     -44.421  58.448 -55.227  1.00  0.00     0.166 C 
BRANCH  21  22
HETATM   22  C   UNL     1     -44.926  58.963 -56.559  1.00  0.00    -0.037 A 
HETATM   23  C   UNL     1     -45.808  58.133 -57.283  1.00  0.00     0.048 A 
HETATM   24  C   UNL     1     -46.259  58.557 -58.515  1.00  0.00     0.105 A 
HETATM   25  C   UNL     1     -45.866  59.755 -59.056  1.00  0.00     0.105 A 
HETATM   26  O   UNL     1     -47.112  57.875 -59.325  1.00  0.00    -0.323 OA
HETATM   27  O   UNL     1     -46.423  59.984 -60.274  1.00  0.00    -0.323 OA
HETATM   28  C   UNL     1     -45.004  60.595 -58.391  1.00  0.00     0.040 A 
HETATM   29  C   UNL     1     -47.206  58.785 -60.442  1.00  0.00     0.352 A 
HETATM   30  C   UNL     1     -44.535  60.193 -57.133  1.00  0.00     0.012 A 
ENDBRANCH  21  22
ENDBRANCH   1  21
BRANCH   2  31
HETATM   31  C   UNL     1     -42.691  60.371 -53.739  1.00  0.00     0.101 A 
HETATM   32  N   UNL     1     -42.973  60.388 -52.388  1.00  0.00    -0.351 N 
HETATM   33  H   UNL     1     -42.798  59.599 -51.778  1.00  0.00     0.166 HD
HETATM   34  C   UNL     1     -43.532  61.583 -52.000  1.00  0.00     0.043 A 
HETATM   35  C   UNL     1     -43.491  62.399 -53.117  1.00  0.00     0.033 A 
HETATM   36  C   UNL     1     -42.950  61.651 -54.195  1.00  0.00     0.037 A 
BRANCH  34  37
HETATM   37  C   UNL     1     -43.992  61.835 -50.633  1.00  0.00    -0.009 A 
HETATM   38  C   UNL     1     -43.782  63.082 -50.029  1.00  0.00     0.013 A 
HETATM   39  C   UNL     1     -44.215  63.325 -48.722  1.00  0.00     0.001 A 
HETATM   40  C   UNL     1     -44.868  62.325 -48.004  1.00  0.00     0.000 A 
HETATM   41  C   UNL     1     -45.091  61.083 -48.593  1.00  0.00     0.001 A 
HETATM   42  C   UNL     1     -44.658  60.840 -49.899  1.00  0.00     0.013 A 
ENDBRANCH  34  37
ENDBRANCH   2  31
TORSDOF 8
ENDMDL
MODEL 10
REMARK VINA RESULT:      -8.0      2.322      8.199
REMARK  8 active torsions:
REMARK  status: ('A' for Active; 'I' for Inactive)
REMARK    1  A    between atoms: C_4  and  C_5 
REMARK    2  A    between atoms: C_5  and  N_6 
REMARK    3  A    between atoms: C_5  and  C_31 
REMARK       I    between atoms: N_6  and  C_7 
REMARK    4  A    between atoms: N_6  and  C_21 
REMARK    5  A    between atoms: C_7  and  C_8 
REMARK    6  A    between atoms: C_11  and  C_12 
REMARK    7  A    between atoms: C_21  and  C_22 
REMARK       I    between atoms: C_31  and  N_32 
REMARK    8  A    between atoms: N_32  and  C_33 
ROOT
HETATM    1  N   UNL     1     -43.009  58.749 -54.581  1.00  0.00    -0.323 N 
HETATM    2  C   UNL     1     -42.174  59.707 -54.004  1.00  0.00     0.271 C 
HETATM    3  O   UNL     1     -40.954  59.542 -53.966  1.00  0.00    -0.266 OA
ENDROOT
BRANCH   1   4
HETATM    4  C   UNL     1     -42.358  57.516 -55.073  1.00  0.00     0.237 C 
BRANCH   4   5
HETATM    5  C   UNL     1     -42.485  57.429 -56.570  1.00  0.00     0.085 A 
HETATM    6  O   UNL     1     -43.120  56.355 -57.131  1.00  0.00    -0.317 OA
HETATM    7  C   UNL     1     -43.079  56.515 -58.483  1.00  0.00     0.049 A 
HETATM    8  C   UNL     1     -43.674  55.433 -59.292  1.00  0.00     0.076 C 
HETATM    9  C   UNL     1     -42.462  57.705 -58.800  1.00  0.00     0.035 A 
HETATM   10  C   UNL     1     -42.082  58.294 -57.571  1.00  0.00     0.038 A 
ENDBRANCH   4   5
BRANCH   4  11
HETATM   11  C   UNL     1     -42.748  56.270 -54.232  1.00  0.00     0.247 C 
HETATM   12  N   UNL     1     -41.914  55.179 -54.265  1.00  0.00    -0.354 N 
HETATM   13  H   UNL     1     -41.084  55.269 -54.844  1.00  0.00     0.162 HD
HETATM   14  O   UNL     1     -43.808  56.263 -53.603  1.00  0.00    -0.271 OA
BRANCH  12  15
HETATM   15  C   UNL     1     -42.077  53.901 -53.577  1.00  0.00     0.084 C 
HETATM   16  C   UNL     1     -41.488  52.702 -54.336  1.00  0.00     0.025 C 
HETATM   17  C   UNL     1     -40.064  52.317 -53.943  1.00  0.00     0.002 C 
HETATM   18  C   UNL     1     -39.889  52.234 -52.433  1.00  0.00     0.000 C 
HETATM   19  C   UNL     1     -40.287  53.535 -51.750  1.00  0.00     0.002 C 
HETATM   20  C   UNL     1     -41.719  53.943 -52.085  1.00  0.00     0.025 C 
ENDBRANCH  12  15
ENDBRANCH   4  11
ENDBRANCH   1   4
BRANCH   1  21
HETATM   21  C   UNL     1     -44.474  58.786 -54.583  1.00  0.00     0.166 C 
BRANCH  21  22
HETATM   22  C   UNL     1     -45.180  59.088 -55.888  1.00  0.00    -0.037 A 
HETATM   23  C   UNL     1     -44.977  60.364 -56.454  1.00  0.00     0.048 A 
HETATM   24  C   UNL     1     -45.632  60.684 -57.625  1.00  0.00     0.105 A 
HETATM   25  C   UNL     1     -46.480  59.800 -58.243  1.00  0.00     0.105 A 
HETATM   26  O   UNL     1     -45.535  61.865 -58.291  1.00  0.00    -0.323 OA
HETATM   27  O   UNL     1     -47.023  60.309 -59.380  1.00  0.00    -0.323 OA
HETATM   28  C   UNL     1     -46.715  58.547 -57.726  1.00  0.00     0.040 A 
HETATM   29  C   UNL     1     -46.425  61.621 -59.401  1.00  0.00     0.352 A 
HETATM   30  C   UNL     1     -46.056  58.193 -56.541  1.00  0.00     0.012 A 
ENDBRANCH  21  22
ENDBRANCH   1  21
BRANCH   2  31
HETATM   31  C   UNL     1     -42.732  60.879 -53.359  1.00  0.00     0.101 A 
HETATM   32  N   UNL     1     -42.992  60.856 -52.004  1.00  0.00    -0.351 N 
HETATM   33  H   UNL     1     -42.792  60.056 -51.417  1.00  0.00     0.166 HD
HETATM   34  C   UNL     1     -43.570  62.029 -51.578  1.00  0.00     0.043 A 
HETATM   35  C   UNL     1     -43.564  62.873 -52.674  1.00  0.00     0.033 A 
HETATM   36  C   UNL     1     -43.025  62.164 -53.779  1.00  0.00     0.037 A 
BRANCH  34  37
HETATM   37  C   UNL     1     -44.013  62.238 -50.198  1.00  0.00    -0.009 A 
HETATM   38  C   UNL     1     -44.095  63.530 -49.663  1.00  0.00     0.013 A 
HETATM   39  C   UNL     1     -44.513  63.733 -48.344  1.00  0.00     0.001 A 
HETATM   40  C   UNL     1     -44.858  62.646 -47.545  1.00  0.00     0.000 A 
HETATM   41  C   UNL     1     -44.789  61.355 -48.064  1.00  0.00     0.001 A 
HETATM   42  C   UNL     1     -44.372  61.152 -49.382  1.00  0.00     0.013 A 
ENDBRANCH  34  37
ENDBRANCH   2  31
TORSDOF 8
ENDMDL
