MODEL 1
REMARK VINA RESULT:      -8.7      0.000      0.000
REMARK  9 active torsions:
REMARK  status: ('A' for Active; 'I' for Inactive)
REMARK    1  A    between atoms: C_2  and  O_3 
REMARK    2  A    between atoms: O_3  and  C_4 
REMARK    3  A    between atoms: C_7  and  C_8 
REMARK       I    between atoms: C_8  and  N_9 
REMARK    4  A    between atoms: N_9  and  C_10 
REMARK    5  A    between atoms: C_10  and  N_11 
REMARK    6  A    between atoms: N_11  and  C_12 
REMARK    7  A    between atoms: C_15  and  N_16 
REMARK    8  A    between atoms: N_19  and  C_21 
REMARK    9  A    between atoms: C_21  and  C_22 
ROOT
HETATM    1  C   UNL     1     -44.772  60.352 -51.273  1.00  0.00     0.034 A 
HETATM    2  C   UNL     1     -43.522  60.150 -51.844  1.00  0.00     0.032 A 
HETATM    3  C   UNL     1     -43.052  58.858 -52.092  1.00  0.00     0.031 A 
HETATM    4  C   UNL     1     -43.801  57.719 -51.774  1.00  0.00     0.030 A 
HETATM    5  C   UNL     1     -45.015  57.938 -51.106  1.00  0.00     0.031 A 
HETATM    6  C   UNL     1     -45.490  59.237 -50.847  1.00  0.00     0.032 A 
ENDROOT
BRANCH   1   7
HETATM    7  N   UNL     1     -45.328  61.634 -51.087  1.00  0.00    -0.333 N 
HETATM    8  H   UNL     1     -46.142  61.864 -51.660  1.00  0.00     0.168 HD
BRANCH   7   9
HETATM    9  C   UNL     1     -44.789  62.718 -50.430  1.00  0.00     0.179 C 
HETATM   10  S   UNL     1     -44.148  64.131 -51.064  1.00  0.00    -0.040 SA
BRANCH   9  11
HETATM   11  N   UNL     1     -44.811  62.654 -49.053  1.00  0.00    -0.299 N 
HETATM   12  C   UNL     1     -45.773  62.147 -48.189  1.00  0.00     0.257 C 
HETATM   13  O   UNL     1     -46.892  61.794 -48.540  1.00  0.00    -0.267 OA
HETATM   14  H   UNL     1     -43.991  63.080 -48.643  1.00  0.00     0.171 HD
BRANCH  12  15
HETATM   15  C   UNL     1     -45.369  62.168 -46.754  1.00  0.00     0.032 A 
HETATM   16  C   UNL     1     -45.428  63.371 -46.047  1.00  0.00     0.020 A 
HETATM   17  C   UNL     1     -44.930  63.432 -44.740  1.00  0.00     0.038 A 
HETATM   18  C   UNL     1     -44.370  62.301 -44.138  1.00  0.00     0.068 A 
HETATM   19  C   UNL     1     -44.383  61.083 -44.817  1.00  0.00     0.038 A 
HETATM   20  C   UNL     1     -44.883  61.015 -46.121  1.00  0.00     0.020 A 
BRANCH  18  21
HETATM   21  O   UNL     1     -43.855  62.496 -42.886  1.00  0.00    -0.352 OA
BRANCH  21  22
HETATM   22  C   UNL     1     -44.452  63.547 -42.122  1.00  0.00     0.171 C 
HETATM   23  C   UNL     1     -43.588  63.802 -40.902  1.00  0.00     0.034 C 
ENDBRANCH  21  22
ENDBRANCH  18  21
ENDBRANCH  12  15
ENDBRANCH   9  11
ENDBRANCH   7   9
ENDBRANCH   1   7
BRANCH   4  24
HETATM   24  N   UNL     1     -43.329  56.462 -52.095  1.00  0.00    -0.378 N 
HETATM   25  C   UNL     1     -42.818  55.513 -51.104  1.00  0.00     0.150 C 
HETATM   26  C   UNL     1     -41.487  54.910 -51.622  1.00  0.00     0.255 C 
HETATM   27  N   UNL     1     -41.621  54.361 -53.048  1.00  0.00    -0.064 N 
HETATM   28  H   UNL     1     -42.265  53.559 -53.012  1.00  0.00     0.280 HD
HETATM   29  C   UNL     1     -42.246  55.382 -54.000  1.00  0.00     0.255 C 
HETATM   30  C   UNL     1     -43.574  55.902 -53.432  1.00  0.00     0.150 C 
BRANCH  27  31
HETATM   31  C   UNL     1     -40.311  53.851 -53.597  1.00  0.00     0.276 C 
BRANCH  31  32
HETATM   32  C   UNL     1     -40.116  52.377 -53.418  1.00  0.00     0.006 A 
HETATM   33  C   UNL     1     -39.594  51.893 -52.215  1.00  0.00     0.124 A 
HETATM   34  F   UNL     1     -39.232  52.772 -51.269  1.00  0.00    -0.206 F 
HETATM   35  C   UNL     1     -39.421  50.534 -51.990  1.00  0.00     0.043 A 
HETATM   36  C   UNL     1     -39.769  49.629 -52.989  1.00  0.00     0.003 A 
HETATM   37  C   UNL     1     -40.288  50.092 -54.200  1.00  0.00     0.001 A 
HETATM   38  C   UNL     1     -40.464  51.459 -54.417  1.00  0.00     0.012 A 
ENDBRANCH  31  32
ENDBRANCH  27  31
ENDBRANCH   4  24
TORSDOF 9
ENDMDL
MODEL 2
REMARK VINA RESULT:      -8.3      1.405      1.925
REMARK  9 active torsions:
REMARK  status: ('A' for Active; 'I' for Inactive)
REMARK    1  A    between atoms: C_2  and  O_3 
REMARK    2  A    between atoms: O_3  and  C_4 
REMARK    3  A    between atoms: C_7  and  C_8 
REMARK       I    between atoms: C_8  and  N_9 
REMARK    4  A    between atoms: N_9  and  C_10 
REMARK    5  A    between atoms: C_10  and  N_11 
REMARK    6  A    between atoms: N_11  and  C_12 
REMARK    7  A    between atoms: C_15  and  N_16 
REMARK    8  A    between atoms: N_19  and  C_21 
REMARK    9  A    between atoms: C_21  and  C_22 
ROOT
HETATM    1  C   UNL     1     -44.018  59.508 -51.889  1.00  0.00     0.034 A 
HETATM    2  C   UNL     1     -44.814  58.402 -51.618  1.00  0.00     0.032 A 
HETATM    3  C   UNL     1     -44.238  57.178 -51.268  1.00  0.00     0.031 A 
HETATM    4  C   UNL     1     -42.851  57.005 -51.183  1.00  0.00     0.030 A 
HETATM    5  C   UNL     1     -42.062  58.102 -51.558  1.00  0.00     0.031 A 
HETATM    6  C   UNL     1     -42.636  59.335 -51.919  1.00  0.00     0.032 A 
ENDROOT
BRANCH   1   7
HETATM    7  N   UNL     1     -44.552  60.785 -52.158  1.00  0.00    -0.333 N 
HETATM    8  H   UNL     1     -45.136  60.867 -52.993  1.00  0.00     0.168 HD
BRANCH   7   9
HETATM    9  C   UNL     1     -44.201  61.997 -51.607  1.00  0.00     0.179 C 
HETATM   10  S   UNL     1     -43.500  63.332 -52.338  1.00  0.00    -0.040 SA
BRANCH   9  11
HETATM   11  N   UNL     1     -44.501  62.155 -50.270  1.00  0.00    -0.299 N 
HETATM   12  C   UNL     1     -45.562  61.666 -49.520  1.00  0.00     0.257 C 
HETATM   13  O   UNL     1     -46.542  61.108 -50.000  1.00  0.00    -0.267 OA
HETATM   14  H   UNL     1     -43.833  62.751 -49.802  1.00  0.00     0.171 HD
BRANCH  12  15
HETATM   15  C   UNL     1     -45.468  61.975 -48.064  1.00  0.00     0.032 A 
HETATM   16  C   UNL     1     -45.448  63.309 -47.651  1.00  0.00     0.020 A 
HETATM   17  C   UNL     1     -45.230  63.613 -46.303  1.00  0.00     0.038 A 
HETATM   18  C   UNL     1     -45.028  62.594 -45.366  1.00  0.00     0.068 A 
HETATM   19  C   UNL     1     -45.125  61.263 -45.768  1.00  0.00     0.038 A 
HETATM   20  C   UNL     1     -45.348  60.952 -47.112  1.00  0.00     0.020 A 
BRANCH  18  21
HETATM   21  O   UNL     1     -44.757  63.013 -44.092  1.00  0.00    -0.352 OA
BRANCH  21  22
HETATM   22  C   UNL     1     -43.733  62.292 -43.403  1.00  0.00     0.171 C 
HETATM   23  C   UNL     1     -43.103  63.217 -42.379  1.00  0.00     0.034 C 
ENDBRANCH  21  22
ENDBRANCH  18  21
ENDBRANCH  12  15
ENDBRANCH   9  11
ENDBRANCH   7   9
ENDBRANCH   1   7
BRANCH   4  24
HETATM   24  N   UNL     1     -42.324  55.798 -50.769  1.00  0.00    -0.378 N 
HETATM   25  C   UNL     1     -41.550  55.634 -49.537  1.00  0.00     0.150 C 
HETATM   26  C   UNL     1     -40.283  54.796 -49.844  1.00  0.00     0.255 C 
HETATM   27  N   UNL     1     -40.619  53.496 -50.586  1.00  0.00    -0.064 N 
HETATM   28  H   UNL     1     -41.164  52.904 -49.943  1.00  0.00     0.280 HD
HETATM   29  C   UNL     1     -41.505  53.745 -51.808  1.00  0.00     0.255 C 
HETATM   30  C   UNL     1     -42.752  54.548 -51.412  1.00  0.00     0.150 C 
BRANCH  27  31
HETATM   31  C   UNL     1     -39.388  52.713 -50.969  1.00  0.00     0.276 C 
BRANCH  31  32
HETATM   32  C   UNL     1     -39.607  51.766 -52.109  1.00  0.00     0.006 A 
HETATM   33  C   UNL     1     -39.550  50.388 -51.879  1.00  0.00     0.124 A 
HETATM   34  F   UNL     1     -39.249  49.951 -50.648  1.00  0.00    -0.206 F 
HETATM   35  C   UNL     1     -39.773  49.470 -52.896  1.00  0.00     0.043 A 
HETATM   36  C   UNL     1     -40.054  49.931 -54.180  1.00  0.00     0.003 A 
HETATM   37  C   UNL     1     -40.110  51.304 -54.432  1.00  0.00     0.001 A 
HETATM   38  C   UNL     1     -39.891  52.220 -53.403  1.00  0.00     0.012 A 
ENDBRANCH  31  32
ENDBRANCH  27  31
ENDBRANCH   4  24
TORSDOF 9
ENDMDL
MODEL 3
REMARK VINA RESULT:      -8.2      6.102      9.150
REMARK  9 active torsions:
REMARK  status: ('A' for Active; 'I' for Inactive)
REMARK    1  A    between atoms: C_2  and  O_3 
REMARK    2  A    between atoms: O_3  and  C_4 
REMARK    3  A    between atoms: C_7  and  C_8 
REMARK       I    between atoms: C_8  and  N_9 
REMARK    4  A    between atoms: N_9  and  C_10 
REMARK    5  A    between atoms: C_10  and  N_11 
REMARK    6  A    between atoms: N_11  and  C_12 
REMARK    7  A    between atoms: C_15  and  N_16 
REMARK    8  A    between atoms: N_19  and  C_21 
REMARK    9  A    between atoms: C_21  and  C_22 
ROOT
HETATM    1  C   UNL     1     -43.048  60.354 -54.079  1.00  0.00     0.034 A 
HETATM    2  C   UNL     1     -41.789  59.900 -53.708  1.00  0.00     0.032 A 
HETATM    3  C   UNL     1     -41.616  58.608 -53.205  1.00  0.00     0.031 A 
HETATM    4  C   UNL     1     -42.689  57.722 -53.043  1.00  0.00     0.030 A 
HETATM    5  C   UNL     1     -43.964  58.230 -53.326  1.00  0.00     0.031 A 
HETATM    6  C   UNL     1     -44.146  59.533 -53.825  1.00  0.00     0.032 A 
ENDROOT
BRANCH   1   7
HETATM    7  N   UNL     1     -43.261  61.613 -54.675  1.00  0.00    -0.333 N 
HETATM    8  H   UNL     1     -43.636  62.346 -54.068  1.00  0.00     0.168 HD
BRANCH   7   9
HETATM    9  C   UNL     1     -43.277  61.940 -56.012  1.00  0.00     0.179 C 
HETATM   10  S   UNL     1     -43.380  63.449 -56.734  1.00  0.00    -0.040 SA
BRANCH   9  11
HETATM   11  N   UNL     1     -43.155  60.882 -56.888  1.00  0.00    -0.299 N 
HETATM   12  C   UNL     1     -42.031  60.343 -57.500  1.00  0.00     0.257 C 
HETATM   13  O   UNL     1     -40.921  60.860 -57.470  1.00  0.00    -0.267 OA
HETATM   14  H   UNL     1     -44.053  60.478 -57.118  1.00  0.00     0.171 HD
BRANCH  12  15
HETATM   15  C   UNL     1     -42.308  59.119 -58.305  1.00  0.00     0.032 A 
HETATM   16  C   UNL     1     -42.398  59.223 -59.694  1.00  0.00     0.020 A 
HETATM   17  C   UNL     1     -42.785  58.110 -60.449  1.00  0.00     0.038 A 
HETATM   18  C   UNL     1     -43.087  56.895 -59.824  1.00  0.00     0.068 A 
HETATM   19  C   UNL     1     -42.922  56.773 -58.445  1.00  0.00     0.038 A 
HETATM   20  C   UNL     1     -42.531  57.880 -57.686  1.00  0.00     0.020 A 
BRANCH  18  21
HETATM   21  O   UNL     1     -43.518  55.898 -60.655  1.00  0.00    -0.352 OA
BRANCH  21  22
HETATM   22  C   UNL     1     -44.575  55.078 -60.150  1.00  0.00     0.171 C 
HETATM   23  C   UNL     1     -45.898  55.722 -60.519  1.00  0.00     0.034 C 
ENDBRANCH  21  22
ENDBRANCH  18  21
ENDBRANCH  12  15
ENDBRANCH   9  11
ENDBRANCH   7   9
ENDBRANCH   1   7
BRANCH   4  24
HETATM   24  N   UNL     1     -42.467  56.432 -52.605  1.00  0.00    -0.378 N 
HETATM   25  C   UNL     1     -42.692  55.997 -51.225  1.00  0.00     0.150 C 
HETATM   26  C   UNL     1     -41.474  55.164 -50.752  1.00  0.00     0.255 C 
HETATM   27  N   UNL     1     -41.122  54.047 -51.743  1.00  0.00    -0.064 N 
HETATM   28  H   UNL     1     -41.902  53.376 -51.744  1.00  0.00     0.280 HD
HETATM   29  C   UNL     1     -40.993  54.569 -53.175  1.00  0.00     0.255 C 
HETATM   30  C   UNL     1     -42.253  55.351 -53.576  1.00  0.00     0.150 C 
BRANCH  27  31
HETATM   31  C   UNL     1     -39.884  53.284 -51.339  1.00  0.00     0.276 C 
BRANCH  31  32
HETATM   32  C   UNL     1     -39.760  51.945 -51.999  1.00  0.00     0.006 A 
HETATM   33  C   UNL     1     -39.830  50.786 -51.220  1.00  0.00     0.124 A 
HETATM   34  F   UNL     1     -39.955  50.908 -49.890  1.00  0.00    -0.206 F 
HETATM   35  C   UNL     1     -39.748  49.521 -51.787  1.00  0.00     0.043 A 
HETATM   36  C   UNL     1     -39.587  49.402 -53.165  1.00  0.00     0.003 A 
HETATM   37  C   UNL     1     -39.510  50.547 -53.960  1.00  0.00     0.001 A 
HETATM   38  C   UNL     1     -39.598  51.815 -53.384  1.00  0.00     0.012 A 
ENDBRANCH  31  32
ENDBRANCH  27  31
ENDBRANCH   4  24
TORSDOF 9
ENDMDL
MODEL 4
REMARK VINA RESULT:      -8.2      1.826      2.881
REMARK  9 active torsions:
REMARK  status: ('A' for Active; 'I' for Inactive)
REMARK    1  A    between atoms: C_2  and  O_3 
REMARK    2  A    between atoms: O_3  and  C_4 
REMARK    3  A    between atoms: C_7  and  C_8 
REMARK       I    between atoms: C_8  and  N_9 
REMARK    4  A    between atoms: N_9  and  C_10 
REMARK    5  A    between atoms: C_10  and  N_11 
REMARK    6  A    between atoms: N_11  and  C_12 
REMARK    7  A    between atoms: C_15  and  N_16 
REMARK    8  A    between atoms: N_19  and  C_21 
REMARK    9  A    between atoms: C_21  and  C_22 
ROOT
HETATM    1  C   UNL     1     -44.658  62.209 -49.820  1.00  0.00     0.034 A 
HETATM    2  C   UNL     1     -43.320  62.123 -50.182  1.00  0.00     0.032 A 
HETATM    3  C   UNL     1     -42.811  60.958 -50.760  1.00  0.00     0.031 A 
HETATM    4  C   UNL     1     -43.610  59.831 -50.991  1.00  0.00     0.030 A 
HETATM    5  C   UNL     1     -44.931  59.898 -50.527  1.00  0.00     0.031 A 
HETATM    6  C   UNL     1     -45.448  61.067 -49.937  1.00  0.00     0.032 A 
ENDROOT
BRANCH   1   7
HETATM    7  N   UNL     1     -45.239  63.391 -49.317  1.00  0.00    -0.333 N 
HETATM    8  H   UNL     1     -44.771  64.267 -49.560  1.00  0.00     0.168 HD
BRANCH   7   9
HETATM    9  C   UNL     1     -46.199  63.529 -48.340  1.00  0.00     0.179 C 
HETATM   10  S   UNL     1     -47.866  63.614 -48.494  1.00  0.00    -0.040 SA
BRANCH   9  11
HETATM   11  N   UNL     1     -45.731  63.567 -47.043  1.00  0.00    -0.299 N 
HETATM   12  C   UNL     1     -45.576  62.550 -46.111  1.00  0.00     0.257 C 
HETATM   13  O   UNL     1     -46.005  61.412 -46.260  1.00  0.00    -0.267 OA
HETATM   14  H   UNL     1     -45.500  64.507 -46.752  1.00  0.00     0.171 HD
BRANCH  12  15
HETATM   15  C   UNL     1     -44.929  62.986 -44.840  1.00  0.00     0.032 A 
HETATM   16  C   UNL     1     -44.130  62.083 -44.137  1.00  0.00     0.020 A 
HETATM   17  C   UNL     1     -43.625  62.437 -42.881  1.00  0.00     0.038 A 
HETATM   18  C   UNL     1     -43.916  63.685 -42.322  1.00  0.00     0.068 A 
HETATM   19  C   UNL     1     -44.650  64.614 -43.059  1.00  0.00     0.038 A 
HETATM   20  C   UNL     1     -45.153  64.268 -44.316  1.00  0.00     0.020 A 
BRANCH  18  21
HETATM   21  O   UNL     1     -43.425  63.895 -41.063  1.00  0.00    -0.352 OA
BRANCH  21  22
HETATM   22  C   UNL     1     -44.316  64.528 -40.142  1.00  0.00     0.171 C 
HETATM   23  C   UNL     1     -44.629  63.547 -39.027  1.00  0.00     0.034 C 
ENDBRANCH  21  22
ENDBRANCH  18  21
ENDBRANCH  12  15
ENDBRANCH   9  11
ENDBRANCH   7   9
ENDBRANCH   1   7
BRANCH   4  24
HETATM   24  N   UNL     1     -43.085  58.723 -51.625  1.00  0.00    -0.378 N 
HETATM   25  C   UNL     1     -43.366  58.380 -53.020  1.00  0.00     0.150 C 
HETATM   26  C   UNL     1     -43.705  56.871 -53.112  1.00  0.00     0.255 C 
HETATM   27  N   UNL     1     -42.645  56.001 -52.424  1.00  0.00    -0.064 N 
HETATM   28  H   UNL     1     -41.771  56.097 -52.958  1.00  0.00     0.280 HD
HETATM   29  C   UNL     1     -42.344  56.480 -51.003  1.00  0.00     0.255 C 
HETATM   30  C   UNL     1     -41.984  57.972 -51.005  1.00  0.00     0.150 C 
BRANCH  27  31
HETATM   31  C   UNL     1     -43.007  54.536 -52.428  1.00  0.00     0.276 C 
BRANCH  31  32
HETATM   32  C   UNL     1     -41.848  53.630 -52.710  1.00  0.00     0.006 A 
HETATM   33  C   UNL     1     -41.610  53.205 -54.020  1.00  0.00     0.124 A 
HETATM   34  F   UNL     1     -42.462  53.581 -54.986  1.00  0.00    -0.206 F 
HETATM   35  C   UNL     1     -40.533  52.388 -54.337  1.00  0.00     0.043 A 
HETATM   36  C   UNL     1     -39.671  51.976 -53.324  1.00  0.00     0.003 A 
HETATM   37  C   UNL     1     -39.894  52.384 -52.008  1.00  0.00     0.001 A 
HETATM   38  C   UNL     1     -40.975  53.210 -51.698  1.00  0.00     0.012 A 
ENDBRANCH  31  32
ENDBRANCH  27  31
ENDBRANCH   4  24
TORSDOF 9
ENDMDL
MODEL 5
REMARK VINA RESULT:      -7.9      4.754      7.097
REMARK  9 active torsions:
REMARK  status: ('A' for Active; 'I' for Inactive)
REMARK    1  A    between atoms: C_2  and  O_3 
REMARK    2  A    between atoms: O_3  and  C_4 
REMARK    3  A    between atoms: C_7  and  C_8 
REMARK       I    between atoms: C_8  and  N_9 
REMARK    4  A    between atoms: N_9  and  C_10 
REMARK    5  A    between atoms: C_10  and  N_11 
REMARK    6  A    between atoms: N_11  and  C_12 
REMARK    7  A    between atoms: C_15  and  N_16 
REMARK    8  A    between atoms: N_19  and  C_21 
REMARK    9  A    between atoms: C_21  and  C_22 
ROOT
HETATM    1  C   UNL     1     -45.432  60.123 -52.933  1.00  0.00     0.034 A 
HETATM    2  C   UNL     1     -45.245  59.394 -54.101  1.00  0.00     0.032 A 
HETATM    3  C   UNL     1     -44.593  58.159 -54.072  1.00  0.00     0.031 A 
HETATM    4  C   UNL     1     -44.096  57.605 -52.886  1.00  0.00     0.030 A 
HETATM    5  C   UNL     1     -44.203  58.399 -51.735  1.00  0.00     0.031 A 
HETATM    6  C   UNL     1     -44.852  59.648 -51.758  1.00  0.00     0.032 A 
ENDROOT
BRANCH   1   7
HETATM    7  N   UNL     1     -46.161  61.329 -52.894  1.00  0.00    -0.333 N 
HETATM    8  H   UNL     1     -46.443  61.661 -51.970  1.00  0.00     0.168 HD
BRANCH   7   9
HETATM    9  C   UNL     1     -46.770  61.999 -53.932  1.00  0.00     0.179 C 
HETATM   10  S   UNL     1     -46.097  62.605 -55.342  1.00  0.00    -0.040 SA
BRANCH   9  11
HETATM   11  N   UNL     1     -48.134  62.167 -53.817  1.00  0.00    -0.299 N 
HETATM   12  C   UNL     1     -48.886  62.790 -52.830  1.00  0.00     0.257 C 
HETATM   13  O   UNL     1     -48.428  63.179 -51.762  1.00  0.00    -0.267 OA
HETATM   14  H   UNL     1     -48.633  61.727 -54.578  1.00  0.00     0.171 HD
BRANCH  12  15
HETATM   15  C   UNL     1     -50.345  62.853 -53.131  1.00  0.00     0.032 A 
HETATM   16  C   UNL     1     -51.085  61.670 -53.164  1.00  0.00     0.020 A 
HETATM   17  C   UNL     1     -52.424  61.702 -53.571  1.00  0.00     0.038 A 
HETATM   18  C   UNL     1     -53.026  62.907 -53.949  1.00  0.00     0.068 A 
HETATM   19  C   UNL     1     -52.307  64.097 -53.841  1.00  0.00     0.038 A 
HETATM   20  C   UNL     1     -50.971  64.072 -53.430  1.00  0.00     0.020 A 
BRANCH  18  21
HETATM   21  O   UNL     1     -54.316  62.806 -54.392  1.00  0.00    -0.352 OA
BRANCH  21  22
HETATM   22  C   UNL     1     -54.527  61.932 -55.504  1.00  0.00     0.171 C 
HETATM   23  C   UNL     1     -54.567  62.769 -56.769  1.00  0.00     0.034 C 
ENDBRANCH  21  22
ENDBRANCH  18  21
ENDBRANCH  12  15
ENDBRANCH   9  11
ENDBRANCH   7   9
ENDBRANCH   1   7
BRANCH   4  24
HETATM   24  N   UNL     1     -43.517  56.352 -52.891  1.00  0.00    -0.378 N 
HETATM   25  C   UNL     1     -42.930  55.728 -51.704  1.00  0.00     0.150 C 
HETATM   26  C   UNL     1     -41.551  55.128 -52.078  1.00  0.00     0.255 C 
HETATM   27  N   UNL     1     -41.633  54.229 -53.318  1.00  0.00    -0.064 N 
HETATM   28  H   UNL     1     -42.207  53.411 -53.071  1.00  0.00     0.280 HD
HETATM   29  C   UNL     1     -42.340  54.923 -54.484  1.00  0.00     0.255 C 
HETATM   30  C   UNL     1     -43.710  55.456 -54.040  1.00  0.00     0.150 C 
BRANCH  27  31
HETATM   31  C   UNL     1     -40.283  53.709 -53.746  1.00  0.00     0.276 C 
BRANCH  31  32
HETATM   32  C   UNL     1     -40.068  52.260 -53.431  1.00  0.00     0.006 A 
HETATM   33  C   UNL     1     -39.667  51.889 -52.144  1.00  0.00     0.124 A 
HETATM   34  F   UNL     1     -39.434  52.851 -51.238  1.00  0.00    -0.206 F 
HETATM   35  C   UNL     1     -39.481  50.559 -51.794  1.00  0.00     0.043 A 
HETATM   36  C   UNL     1     -39.694  49.568 -52.748  1.00  0.00     0.003 A 
HETATM   37  C   UNL     1     -40.090  49.917 -54.041  1.00  0.00     0.001 A 
HETATM   38  C   UNL     1     -40.280  51.256 -54.384  1.00  0.00     0.012 A 
ENDBRANCH  31  32
ENDBRANCH  27  31
ENDBRANCH   4  24
TORSDOF 9
ENDMDL
MODEL 6
REMARK VINA RESULT:      -7.6      1.916      2.723
REMARK  9 active torsions:
REMARK  status: ('A' for Active; 'I' for Inactive)
REMARK    1  A    between atoms: C_2  and  O_3 
REMARK    2  A    between atoms: O_3  and  C_4 
REMARK    3  A    between atoms: C_7  and  C_8 
REMARK       I    between atoms: C_8  and  N_9 
REMARK    4  A    between atoms: N_9  and  C_10 
REMARK    5  A    between atoms: C_10  and  N_11 
REMARK    6  A    between atoms: N_11  and  C_12 
REMARK    7  A    between atoms: C_15  and  N_16 
REMARK    8  A    between atoms: N_19  and  C_21 
REMARK    9  A    between atoms: C_21  and  C_22 
ROOT
HETATM    1  C   UNL     1     -45.423  59.850 -53.371  1.00  0.00     0.034 A 
HETATM    2  C   UNL     1     -45.382  59.189 -52.150  1.00  0.00     0.032 A 
HETATM    3  C   UNL     1     -44.811  57.919 -52.046  1.00  0.00     0.031 A 
HETATM    4  C   UNL     1     -44.268  57.253 -53.153  1.00  0.00     0.030 A 
HETATM    5  C   UNL     1     -44.409  57.890 -54.393  1.00  0.00     0.031 A 
HETATM    6  C   UNL     1     -44.990  59.167 -54.506  1.00  0.00     0.032 A 
ENDROOT
BRANCH   1   7
HETATM    7  N   UNL     1     -45.906  61.167 -53.510  1.00  0.00    -0.333 N 
HETATM    8  H   UNL     1     -46.628  61.315 -54.219  1.00  0.00     0.168 HD
BRANCH   7   9
HETATM    9  C   UNL     1     -45.374  62.335 -53.011  1.00  0.00     0.179 C 
HETATM   10  S   UNL     1     -44.907  63.722 -53.827  1.00  0.00    -0.040 SA
BRANCH   9  11
HETATM   11  N   UNL     1     -45.238  62.392 -51.640  1.00  0.00    -0.299 N 
HETATM   12  C   UNL     1     -44.105  62.303 -50.842  1.00  0.00     0.257 C 
HETATM   13  O   UNL     1     -42.997  61.986 -51.258  1.00  0.00    -0.267 OA
HETATM   14  H   UNL     1     -46.131  62.486 -51.176  1.00  0.00     0.171 HD
BRANCH  12  15
HETATM   15  C   UNL     1     -44.368  62.521 -49.390  1.00  0.00     0.032 A 
HETATM   16  C   UNL     1     -44.675  61.426 -48.581  1.00  0.00     0.020 A 
HETATM   17  C   UNL     1     -45.050  61.632 -47.249  1.00  0.00     0.038 A 
HETATM   18  C   UNL     1     -45.125  62.925 -46.722  1.00  0.00     0.068 A 
HETATM   19  C   UNL     1     -44.744  64.011 -47.509  1.00  0.00     0.038 A 
HETATM   20  C   UNL     1     -44.363  63.811 -48.839  1.00  0.00     0.020 A 
BRANCH  18  21
HETATM   21  O   UNL     1     -45.568  63.008 -45.430  1.00  0.00    -0.352 OA
BRANCH  21  22
HETATM   22  C   UNL     1     -45.657  64.327 -44.885  1.00  0.00     0.171 C 
HETATM   23  C   UNL     1     -46.970  64.447 -44.135  1.00  0.00     0.034 C 
ENDBRANCH  21  22
ENDBRANCH  18  21
ENDBRANCH  12  15
ENDBRANCH   9  11
ENDBRANCH   7   9
ENDBRANCH   1   7
BRANCH   4  24
HETATM   24  N   UNL     1     -43.654  56.027 -52.996  1.00  0.00    -0.378 N 
HETATM   25  C   UNL     1     -43.256  55.482 -51.696  1.00  0.00     0.150 C 
HETATM   26  C   UNL     1     -41.814  54.925 -51.801  1.00  0.00     0.255 C 
HETATM   27  N   UNL     1     -41.652  53.969 -52.990  1.00  0.00    -0.064 N 
HETATM   28  H   UNL     1     -42.231  53.139 -52.802  1.00  0.00     0.280 HD
HETATM   29  C   UNL     1     -42.174  54.579 -54.292  1.00  0.00     0.255 C 
HETATM   30  C   UNL     1     -43.617  55.073 -54.113  1.00  0.00     0.150 C 
BRANCH  27  31
HETATM   31  C   UNL     1     -40.232  53.488 -53.157  1.00  0.00     0.276 C 
BRANCH  31  32
HETATM   32  C   UNL     1     -40.015  52.079 -52.697  1.00  0.00     0.006 A 
HETATM   33  C   UNL     1     -39.930  51.053 -53.642  1.00  0.00     0.124 A 
HETATM   34  F   UNL     1     -40.099  51.353 -54.939  1.00  0.00    -0.206 F 
HETATM   35  C   UNL     1     -39.702  49.735 -53.269  1.00  0.00     0.043 A 
HETATM   36  C   UNL     1     -39.560  49.425 -51.919  1.00  0.00     0.003 A 
HETATM   37  C   UNL     1     -39.647  50.435 -50.958  1.00  0.00     0.001 A 
HETATM   38  C   UNL     1     -39.871  51.758 -51.342  1.00  0.00     0.012 A 
ENDBRANCH  31  32
ENDBRANCH  27  31
ENDBRANCH   4  24
TORSDOF 9
ENDMDL
MODEL 7
REMARK VINA RESULT:      -7.5      6.913      8.162
REMARK  9 active torsions:
REMARK  status: ('A' for Active; 'I' for Inactive)
REMARK    1  A    between atoms: C_2  and  O_3 
REMARK    2  A    between atoms: O_3  and  C_4 
REMARK    3  A    between atoms: C_7  and  C_8 
REMARK       I    between atoms: C_8  and  N_9 
REMARK    4  A    between atoms: N_9  and  C_10 
REMARK    5  A    between atoms: C_10  and  N_11 
REMARK    6  A    between atoms: N_11  and  C_12 
REMARK    7  A    between atoms: C_15  and  N_16 
REMARK    8  A    between atoms: N_19  and  C_21 
REMARK    9  A    between atoms: C_21  and  C_22 
ROOT
HETATM    1  C   UNL     1     -45.063  58.207 -57.596  1.00  0.00     0.034 A 
HETATM    2  C   UNL     1     -44.075  57.369 -58.098  1.00  0.00     0.032 A 
HETATM    3  C   UNL     1     -43.270  56.620 -57.237  1.00  0.00     0.031 A 
HETATM    4  C   UNL     1     -43.409  56.682 -55.845  1.00  0.00     0.030 A 
HETATM    5  C   UNL     1     -44.340  57.607 -55.352  1.00  0.00     0.031 A 
HETATM    6  C   UNL     1     -45.149  58.370 -56.214  1.00  0.00     0.032 A 
ENDROOT
BRANCH   1   7
HETATM    7  N   UNL     1     -45.959  58.913 -58.423  1.00  0.00    -0.333 N 
HETATM    8  H   UNL     1     -46.334  58.403 -59.226  1.00  0.00     0.168 HD
BRANCH   7   9
HETATM    9  C   UNL     1     -46.213  60.265 -58.459  1.00  0.00     0.179 C 
HETATM   10  S   UNL     1     -45.305  61.498 -59.140  1.00  0.00    -0.040 SA
BRANCH   9  11
HETATM   11  N   UNL     1     -47.402  60.666 -57.885  1.00  0.00    -0.299 N 
HETATM   12  C   UNL     1     -48.698  60.636 -58.383  1.00  0.00     0.257 C 
HETATM   13  O   UNL     1     -48.980  60.371 -59.545  1.00  0.00    -0.267 OA
HETATM   14  H   UNL     1     -47.262  61.066 -56.967  1.00  0.00     0.171 HD
BRANCH  12  15
HETATM   15  C   UNL     1     -49.734  61.065 -57.400  1.00  0.00     0.032 A 
HETATM   16  C   UNL     1     -49.569  62.274 -56.721  1.00  0.00     0.020 A 
HETATM   17  C   UNL     1     -50.465  62.626 -55.705  1.00  0.00     0.038 A 
HETATM   18  C   UNL     1     -51.520  61.776 -55.360  1.00  0.00     0.068 A 
HETATM   19  C   UNL     1     -51.728  60.607 -56.091  1.00  0.00     0.038 A 
HETATM   20  C   UNL     1     -50.840  60.252 -57.110  1.00  0.00     0.020 A 
BRANCH  18  21
HETATM   21  O   UNL     1     -52.289  62.191 -54.308  1.00  0.00    -0.352 OA
BRANCH  21  22
HETATM   22  C   UNL     1     -51.956  61.637 -53.033  1.00  0.00     0.171 C 
HETATM   23  C   UNL     1     -51.888  62.767 -52.023  1.00  0.00     0.034 C 
ENDBRANCH  21  22
ENDBRANCH  18  21
ENDBRANCH  12  15
ENDBRANCH   9  11
ENDBRANCH   7   9
ENDBRANCH   1   7
BRANCH   4  24
HETATM   24  N   UNL     1     -42.638  55.876 -55.031  1.00  0.00    -0.378 N 
HETATM   25  C   UNL     1     -41.303  56.247 -54.557  1.00  0.00     0.150 C 
HETATM   26  C   UNL     1     -40.346  55.044 -54.748  1.00  0.00     0.255 C 
HETATM   27  N   UNL     1     -40.919  53.753 -54.150  1.00  0.00    -0.064 N 
HETATM   28  H   UNL     1     -40.967  53.878 -53.129  1.00  0.00     0.280 HD
HETATM   29  C   UNL     1     -42.348  53.485 -54.625  1.00  0.00     0.255 C 
HETATM   30  C   UNL     1     -43.237  54.710 -54.367  1.00  0.00     0.150 C 
BRANCH  27  31
HETATM   31  C   UNL     1     -40.037  52.555 -54.406  1.00  0.00     0.276 C 
BRANCH  31  32
HETATM   32  C   UNL     1     -39.917  51.633 -53.232  1.00  0.00     0.006 A 
HETATM   33  C   UNL     1     -39.713  50.267 -53.449  1.00  0.00     0.124 A 
HETATM   34  F   UNL     1     -39.682  49.811 -54.710  1.00  0.00    -0.206 F 
HETATM   35  C   UNL     1     -39.567  49.376 -52.395  1.00  0.00     0.043 A 
HETATM   36  C   UNL     1     -39.631  49.852 -51.087  1.00  0.00     0.003 A 
HETATM   37  C   UNL     1     -39.840  51.212 -50.849  1.00  0.00     0.001 A 
HETATM   38  C   UNL     1     -39.980  52.102 -51.914  1.00  0.00     0.012 A 
ENDBRANCH  31  32
ENDBRANCH  27  31
ENDBRANCH   4  24
TORSDOF 9
ENDMDL
MODEL 8
REMARK VINA RESULT:      -7.5     19.415     21.829
REMARK  9 active torsions:
REMARK  status: ('A' for Active; 'I' for Inactive)
REMARK    1  A    between atoms: C_2  and  O_3 
REMARK    2  A    between atoms: O_3  and  C_4 
REMARK    3  A    between atoms: C_7  and  C_8 
REMARK       I    between atoms: C_8  and  N_9 
REMARK    4  A    between atoms: N_9  and  C_10 
REMARK    5  A    between atoms: C_10  and  N_11 
REMARK    6  A    between atoms: N_11  and  C_12 
REMARK    7  A    between atoms: C_15  and  N_16 
REMARK    8  A    between atoms: N_19  and  C_21 
REMARK    9  A    between atoms: C_21  and  C_22 
ROOT
HETATM    1  C   UNL     1     -36.812  41.639 -55.593  1.00  0.00     0.034 A 
HETATM    2  C   UNL     1     -37.920  40.989 -56.122  1.00  0.00     0.032 A 
HETATM    3  C   UNL     1     -37.866  40.406 -57.390  1.00  0.00     0.031 A 
HETATM    4  C   UNL     1     -36.713  40.455 -58.184  1.00  0.00     0.030 A 
HETATM    5  C   UNL     1     -35.640  41.202 -57.679  1.00  0.00     0.031 A 
HETATM    6  C   UNL     1     -35.691  41.798 -56.405  1.00  0.00     0.032 A 
ENDROOT
BRANCH   1   7
HETATM    7  N   UNL     1     -36.787  42.164 -54.285  1.00  0.00    -0.333 N 
HETATM    8  H   UNL     1     -36.302  43.055 -54.162  1.00  0.00     0.168 HD
BRANCH   7   9
HETATM    9  C   UNL     1     -37.099  41.536 -53.101  1.00  0.00     0.179 C 
HETATM   10  S   UNL     1     -38.604  41.160 -52.463  1.00  0.00    -0.040 SA
BRANCH   9  11
HETATM   11  N   UNL     1     -36.025  41.120 -52.343  1.00  0.00    -0.299 N 
HETATM   12  C   UNL     1     -34.970  40.274 -52.662  1.00  0.00     0.257 C 
HETATM   13  O   UNL     1     -34.914  39.604 -53.686  1.00  0.00    -0.267 OA
HETATM   14  H   UNL     1     -36.062  41.488 -51.402  1.00  0.00     0.171 HD
BRANCH  12  15
HETATM   15  C   UNL     1     -33.941  40.159 -51.589  1.00  0.00     0.032 A 
HETATM   16  C   UNL     1     -32.595  40.329 -51.915  1.00  0.00     0.020 A 
HETATM   17  C   UNL     1     -31.612  40.096 -50.946  1.00  0.00     0.038 A 
HETATM   18  C   UNL     1     -31.966  39.690 -49.656  1.00  0.00     0.068 A 
HETATM   19  C   UNL     1     -33.314  39.596 -49.311  1.00  0.00     0.038 A 
HETATM   20  C   UNL     1     -34.300  39.832 -50.272  1.00  0.00     0.020 A 
BRANCH  18  21
HETATM   21  O   UNL     1     -30.920  39.427 -48.815  1.00  0.00    -0.352 OA
BRANCH  21  22
HETATM   22  C   UNL     1     -30.999  40.018 -47.516  1.00  0.00     0.171 C 
HETATM   23  C   UNL     1     -30.958  38.909 -46.482  1.00  0.00     0.034 C 
ENDBRANCH  21  22
ENDBRANCH  18  21
ENDBRANCH  12  15
ENDBRANCH   9  11
ENDBRANCH   7   9
ENDBRANCH   1   7
BRANCH   4  24
HETATM   24  N   UNL     1     -36.679  39.809 -59.404  1.00  0.00    -0.378 N 
HETATM   25  C   UNL     1     -37.236  40.376 -60.634  1.00  0.00     0.150 C 
HETATM   26  C   UNL     1     -38.075  39.291 -61.356  1.00  0.00     0.255 C 
HETATM   27  N   UNL     1     -37.294  37.982 -61.531  1.00  0.00    -0.064 N 
HETATM   28  H   UNL     1     -36.515  38.170 -62.177  1.00  0.00     0.280 HD
HETATM   29  C   UNL     1     -36.670  37.506 -60.219  1.00  0.00     0.255 C 
HETATM   30  C   UNL     1     -35.828  38.625 -59.588  1.00  0.00     0.150 C 
BRANCH  27  31
HETATM   31  C   UNL     1     -38.128  36.890 -62.153  1.00  0.00     0.276 C 
BRANCH  31  32
HETATM   32  C   UNL     1     -39.596  37.190 -62.175  1.00  0.00     0.006 A 
HETATM   33  C   UNL     1     -40.335  37.093 -60.993  1.00  0.00     0.124 A 
HETATM   34  F   UNL     1     -39.717  36.679 -59.876  1.00  0.00    -0.206 F 
HETATM   35  C   UNL     1     -41.691  37.387 -60.955  1.00  0.00     0.043 A 
HETATM   36  C   UNL     1     -42.334  37.785 -62.124  1.00  0.00     0.003 A 
HETATM   37  C   UNL     1     -41.615  37.885 -63.317  1.00  0.00     0.001 A 
HETATM   38  C   UNL     1     -40.251  37.592 -63.346  1.00  0.00     0.012 A 
ENDBRANCH  31  32
ENDBRANCH  27  31
ENDBRANCH   4  24
TORSDOF 9
ENDMDL
MODEL 9
REMARK VINA RESULT:      -7.4      6.439      9.330
REMARK  9 active torsions:
REMARK  status: ('A' for Active; 'I' for Inactive)
REMARK    1  A    between atoms: C_2  and  O_3 
REMARK    2  A    between atoms: O_3  and  C_4 
REMARK    3  A    between atoms: C_7  and  C_8 
REMARK       I    between atoms: C_8  and  N_9 
REMARK    4  A    between atoms: N_9  and  C_10 
REMARK    5  A    between atoms: C_10  and  N_11 
REMARK    6  A    between atoms: N_11  and  C_12 
REMARK    7  A    between atoms: C_15  and  N_16 
REMARK    8  A    between atoms: N_19  and  C_21 
REMARK    9  A    between atoms: C_21  and  C_22 
ROOT
HETATM    1  C   UNL     1     -44.367  60.626 -54.638  1.00  0.00     0.034 A 
HETATM    2  C   UNL     1     -42.989  60.639 -54.466  1.00  0.00     0.032 A 
HETATM    3  C   UNL     1     -42.317  59.500 -54.017  1.00  0.00     0.031 A 
HETATM    4  C   UNL     1     -42.988  58.309 -53.713  1.00  0.00     0.030 A 
HETATM    5  C   UNL     1     -44.388  58.345 -53.795  1.00  0.00     0.031 A 
HETATM    6  C   UNL     1     -45.071  59.492 -54.239  1.00  0.00     0.032 A 
ENDROOT
BRANCH   1   7
HETATM    7  N   UNL     1     -45.080  61.718 -55.174  1.00  0.00    -0.333 N 
HETATM    8  H   UNL     1     -45.490  62.369 -54.500  1.00  0.00     0.168 HD
BRANCH   7   9
HETATM    9  C   UNL     1     -45.522  61.907 -56.464  1.00  0.00     0.179 C 
HETATM   10  S   UNL     1     -46.480  63.132 -57.089  1.00  0.00    -0.040 SA
BRANCH   9  11
HETATM   11  N   UNL     1     -45.088  60.978 -57.387  1.00  0.00    -0.299 N 
HETATM   12  C   UNL     1     -43.896  60.899 -58.094  1.00  0.00     0.257 C 
HETATM   13  O   UNL     1     -43.053  61.789 -58.119  1.00  0.00    -0.267 OA
HETATM   14  H   UNL     1     -45.790  60.275 -57.572  1.00  0.00     0.171 HD
BRANCH  12  15
HETATM   15  C   UNL     1     -43.765  59.669 -58.926  1.00  0.00     0.032 A 
HETATM   16  C   UNL     1     -44.826  59.288 -59.750  1.00  0.00     0.020 A 
HETATM   17  C   UNL     1     -44.768  58.069 -60.435  1.00  0.00     0.038 A 
HETATM   18  C   UNL     1     -43.660  57.227 -60.298  1.00  0.00     0.068 A 
HETATM   19  C   UNL     1     -42.570  57.645 -59.536  1.00  0.00     0.038 A 
HETATM   20  C   UNL     1     -42.619  58.863 -58.853  1.00  0.00     0.020 A 
BRANCH  18  21
HETATM   21  O   UNL     1     -43.744  56.033 -60.960  1.00  0.00    -0.352 OA
BRANCH  21  22
HETATM   22  C   UNL     1     -44.888  55.231 -60.659  1.00  0.00     0.171 C 
HETATM   23  C   UNL     1     -44.521  54.274 -59.541  1.00  0.00     0.034 C 
ENDBRANCH  21  22
ENDBRANCH  18  21
ENDBRANCH  12  15
ENDBRANCH   9  11
ENDBRANCH   7   9
ENDBRANCH   1   7
BRANCH   4  24
HETATM   24  N   UNL     1     -42.280  57.186 -53.335  1.00  0.00    -0.378 N 
HETATM   25  C   UNL     1     -40.818  57.128 -53.295  1.00  0.00     0.150 C 
HETATM   26  C   UNL     1     -40.345  55.817 -53.971  1.00  0.00     0.255 C 
HETATM   27  N   UNL     1     -41.065  54.586 -53.406  1.00  0.00    -0.064 N 
HETATM   28  H   UNL     1     -40.777  54.482 -52.423  1.00  0.00     0.280 HD
HETATM   29  C   UNL     1     -42.584  54.763 -53.400  1.00  0.00     0.255 C 
HETATM   30  C   UNL     1     -42.970  56.065 -52.682  1.00  0.00     0.150 C 
BRANCH  27  31
HETATM   31  C   UNL     1     -40.679  53.312 -54.116  1.00  0.00     0.276 C 
BRANCH  31  32
HETATM   32  C   UNL     1     -40.294  52.199 -53.190  1.00  0.00     0.006 A 
HETATM   33  C   UNL     1     -39.988  50.942 -53.718  1.00  0.00     0.124 A 
HETATM   34  F   UNL     1     -40.099  50.752 -55.041  1.00  0.00    -0.206 F 
HETATM   35  C   UNL     1     -39.599  49.885 -52.905  1.00  0.00     0.043 A 
HETATM   36  C   UNL     1     -39.517  50.080 -51.529  1.00  0.00     0.003 A 
HETATM   37  C   UNL     1     -39.823  51.328 -50.981  1.00  0.00     0.001 A 
HETATM   38  C   UNL     1     -40.208  52.386 -51.805  1.00  0.00     0.012 A 
ENDBRANCH  31  32
ENDBRANCH  27  31
ENDBRANCH   4  24
TORSDOF 9
ENDMDL
MODEL 10
REMARK VINA RESULT:      -7.2      4.244      6.704
REMARK  9 active torsions:
REMARK  status: ('A' for Active; 'I' for Inactive)
REMARK    1  A    between atoms: C_2  and  O_3 
REMARK    2  A    between atoms: O_3  and  C_4 
REMARK    3  A    between atoms: C_7  and  C_8 
REMARK       I    between atoms: C_8  and  N_9 
REMARK    4  A    between atoms: N_9  and  C_10 
REMARK    5  A    between atoms: C_10  and  N_11 
REMARK    6  A    between atoms: N_11  and  C_12 
REMARK    7  A    between atoms: C_15  and  N_16 
REMARK    8  A    between atoms: N_19  and  C_21 
REMARK    9  A    between atoms: C_21  and  C_22 
ROOT
HETATM    1  C   UNL     1     -44.775  62.010 -50.694  1.00  0.00     0.034 A 
HETATM    2  C   UNL     1     -43.507  62.020 -51.261  1.00  0.00     0.032 A 
HETATM    3  C   UNL     1     -42.875  60.826 -51.615  1.00  0.00     0.031 A 
HETATM    4  C   UNL     1     -43.474  59.576 -51.411  1.00  0.00     0.030 A 
HETATM    5  C   UNL     1     -44.708  59.579 -50.745  1.00  0.00     0.031 A 
HETATM    6  C   UNL     1     -45.347  60.778 -50.379  1.00  0.00     0.032 A 
ENDROOT
BRANCH   1   7
HETATM    7  N   UNL     1     -45.491  63.189 -50.403  1.00  0.00    -0.333 N 
HETATM    8  H   UNL     1     -44.963  64.063 -50.438  1.00  0.00     0.168 HD
BRANCH   7   9
HETATM    9  C   UNL     1     -46.737  63.319 -49.831  1.00  0.00     0.179 C 
HETATM   10  S   UNL     1     -47.145  63.664 -48.242  1.00  0.00    -0.040 SA
BRANCH   9  11
HETATM   11  N   UNL     1     -47.807  63.184 -50.691  1.00  0.00    -0.299 N 
HETATM   12  C   UNL     1     -47.958  63.584 -52.012  1.00  0.00     0.257 C 
HETATM   13  O   UNL     1     -47.163  64.303 -52.606  1.00  0.00    -0.267 OA
HETATM   14  H   UNL     1     -48.598  62.743 -50.242  1.00  0.00     0.171 HD
BRANCH  12  15
HETATM   15  C   UNL     1     -49.243  63.152 -52.632  1.00  0.00     0.032 A 
HETATM   16  C   UNL     1     -50.423  63.252 -51.893  1.00  0.00     0.020 A 
HETATM   17  C   UNL     1     -51.613  62.731 -52.414  1.00  0.00     0.038 A 
HETATM   18  C   UNL     1     -51.630  62.108 -53.666  1.00  0.00     0.068 A 
HETATM   19  C   UNL     1     -50.467  62.078 -54.434  1.00  0.00     0.038 A 
HETATM   20  C   UNL     1     -49.277  62.601 -53.922  1.00  0.00     0.020 A 
BRANCH  18  21
HETATM   21  O   UNL     1     -52.834  61.577 -54.042  1.00  0.00    -0.352 OA
BRANCH  21  22
HETATM   22  C   UNL     1     -53.319  61.979 -55.325  1.00  0.00     0.171 C 
HETATM   23  C   UNL     1     -54.458  62.959 -55.121  1.00  0.00     0.034 C 
ENDBRANCH  21  22
ENDBRANCH  18  21
ENDBRANCH  12  15
ENDBRANCH   9  11
ENDBRANCH   7   9
ENDBRANCH   1   7
BRANCH   4  24
HETATM   24  N   UNL     1     -42.844  58.424 -51.835  1.00  0.00    -0.378 N 
HETATM   25  C   UNL     1     -42.886  57.941 -53.216  1.00  0.00     0.150 C 
HETATM   26  C   UNL     1     -43.197  56.423 -53.211  1.00  0.00     0.255 C 
HETATM   27  N   UNL     1     -42.262  55.648 -52.274  1.00  0.00    -0.064 N 
HETATM   28  H   UNL     1     -41.311  55.711 -52.663  1.00  0.00     0.280 HD
HETATM   29  C   UNL     1     -42.204  56.269 -50.878  1.00  0.00     0.255 C 
HETATM   30  C   UNL     1     -41.857  57.763 -50.969  1.00  0.00     0.150 C 
BRANCH  27  31
HETATM   31  C   UNL     1     -42.609  54.182 -52.192  1.00  0.00     0.276 C 
BRANCH  31  32
HETATM   32  C   UNL     1     -41.486  53.273 -52.590  1.00  0.00     0.006 A 
HETATM   33  C   UNL     1     -41.355  52.886 -53.926  1.00  0.00     0.124 A 
HETATM   34  F   UNL     1     -42.275  53.300 -54.811  1.00  0.00    -0.206 F 
HETATM   35  C   UNL     1     -40.317  52.069 -54.350  1.00  0.00     0.043 A 
HETATM   36  C   UNL     1     -39.384  51.617 -53.421  1.00  0.00     0.003 A 
HETATM   37  C   UNL     1     -39.499  51.988 -52.079  1.00  0.00     0.001 A 
HETATM   38  C   UNL     1     -40.543  52.815 -51.662  1.00  0.00     0.012 A 
ENDBRANCH  31  32
ENDBRANCH  27  31
ENDBRANCH   4  24
TORSDOF 9
ENDMDL
