MODEL 1
REMARK VINA RESULT:      -8.4      0.000      0.000
REMARK  8 active torsions:
REMARK  status: ('A' for Active; 'I' for Inactive)
REMARK    1  A    between atoms: N_2  and  C_3 
REMARK    2  A    between atoms: C_4  and  C_5 
REMARK       I    between atoms: C_5  and  N_6 
REMARK    3  A    between atoms: N_6  and  C_7 
REMARK    4  A    between atoms: C_7  and  C_8 
REMARK    5  A    between atoms: N_13  and  C_15 
REMARK    6  A    between atoms: C_15  and  C_16 
REMARK    7  A    between atoms: C_16  and  C_17 
REMARK    8  A    between atoms: C_17  and  C_18 
ROOT
HETATM    1  C   UNL     1     -42.313  55.979 -50.290  1.00  0.00     0.140 C 
HETATM    2  O   UNL     1     -41.689  56.772 -51.324  1.00  0.00    -0.373 OA
HETATM    3  C   UNL     1     -42.734  57.432 -52.071  1.00  0.00     0.064 C 
HETATM    4  C   UNL     1     -42.458  57.169 -53.556  1.00  0.00     0.066 C 
HETATM    5  C   UNL     1     -41.184  57.861 -54.032  1.00  0.00     0.237 C 
HETATM    6  N   UNL     1     -41.224  59.347 -53.723  1.00  0.00    -0.071 N 
HETATM    7  H   UNL     1     -40.278  59.685 -53.943  1.00  0.00     0.279 HD
HETATM    8  C   UNL     1     -41.387  59.556 -52.232  1.00  0.00     0.237 C 
HETATM    9  C   UNL     1     -42.682  58.929 -51.747  1.00  0.00     0.066 C 
HETATM   10  C   UNL     1     -44.061  56.810 -51.611  1.00  0.00     0.041 C 
HETATM   11  C   UNL     1     -43.632  55.547 -50.904  1.00  0.00     0.036 C 
ENDROOT
BRANCH   1  12
HETATM   12  C   UNL     1     -41.421  54.808 -49.873  1.00  0.00     0.155 C 
BRANCH  12  13
HETATM   13  N   UNL     1     -41.266  53.824 -50.924  1.00  0.00    -0.354 N 
HETATM   14  C   UNL     1     -40.026  53.265 -51.194  1.00  0.00     0.253 C 
HETATM   15  O   UNL     1     -39.009  53.620 -50.613  1.00  0.00    -0.268 OA
HETATM   16  H   UNL     1     -42.089  53.424 -51.357  1.00  0.00     0.162 HD
BRANCH  14  17
HETATM   17  C   UNL     1     -40.038  52.198 -52.236  1.00  0.00     0.053 A 
HETATM   18  C   UNL     1     -40.523  52.437 -53.544  1.00  0.00     0.025 A 
HETATM   19  C   UNL     1     -40.491  51.357 -54.449  1.00  0.00     0.025 A 
HETATM   20  C   UNL     1     -40.012  50.098 -54.076  1.00  0.00     0.002 A 
HETATM   21  C   UNL     1     -39.553  49.879 -52.783  1.00  0.00     0.001 A 
HETATM   22  C   UNL     1     -39.568  50.924 -51.862  1.00  0.00     0.019 A 
BRANCH  18  23
HETATM   23  N   UNL     1     -40.975  53.709 -53.946  1.00  0.00    -0.291 NA
HETATM   24  C   UNL     1     -40.067  54.363 -54.884  1.00  0.00     0.116 C 
HETATM   25  C   UNL     1     -42.394  53.811 -54.292  1.00  0.00     0.116 C 
ENDBRANCH  18  23
ENDBRANCH  14  17
ENDBRANCH  12  13
ENDBRANCH   1  12
BRANCH   6  26
HETATM   26  C   UNL     1     -42.173  60.106 -54.629  1.00  0.00     0.235 C 
BRANCH  26  27
HETATM   27  C   UNL     1     -42.074  59.720 -56.100  1.00  0.00     0.032 C 
BRANCH  27  28
HETATM   28  C   UNL     1     -43.329  59.047 -56.659  1.00  0.00     0.040 C 
BRANCH  28  29
HETATM   29  C   UNL     1     -42.969  58.079 -57.756  1.00  0.00    -0.058 A 
HETATM   30  C   UNL     1     -42.141  58.480 -58.815  1.00  0.00     0.007 A 
HETATM   31  C   UNL     1     -41.841  57.595 -59.852  1.00  0.00     0.001 A 
HETATM   32  C   UNL     1     -42.368  56.304 -59.843  1.00  0.00     0.000 A 
HETATM   33  C   UNL     1     -43.191  55.896 -58.795  1.00  0.00     0.001 A 
HETATM   34  C   UNL     1     -43.490  56.779 -57.756  1.00  0.00     0.007 A 
ENDBRANCH  28  29
ENDBRANCH  27  28
ENDBRANCH  26  27
ENDBRANCH   6  26
TORSDOF 8
ENDMDL
MODEL 2
REMARK VINA RESULT:      -8.3      2.726      7.721
REMARK  8 active torsions:
REMARK  status: ('A' for Active; 'I' for Inactive)
REMARK    1  A    between atoms: N_2  and  C_3 
REMARK    2  A    between atoms: C_4  and  C_5 
REMARK       I    between atoms: C_5  and  N_6 
REMARK    3  A    between atoms: N_6  and  C_7 
REMARK    4  A    between atoms: C_7  and  C_8 
REMARK    5  A    between atoms: N_13  and  C_15 
REMARK    6  A    between atoms: C_15  and  C_16 
REMARK    7  A    between atoms: C_16  and  C_17 
REMARK    8  A    between atoms: C_17  and  C_18 
ROOT
HETATM    1  C   UNL     1     -44.602  58.739 -54.614  1.00  0.00     0.140 C 
HETATM    2  O   UNL     1     -44.396  57.523 -53.860  1.00  0.00    -0.373 OA
HETATM    3  C   UNL     1     -42.993  57.437 -53.530  1.00  0.00     0.064 C 
HETATM    4  C   UNL     1     -42.524  56.033 -53.931  1.00  0.00     0.066 C 
HETATM    5  C   UNL     1     -43.164  54.948 -53.071  1.00  0.00     0.237 C 
HETATM    6  N   UNL     1     -42.932  55.217 -51.595  1.00  0.00    -0.071 N 
HETATM    7  H   UNL     1     -43.517  54.526 -51.107  1.00  0.00     0.279 HD
HETATM    8  C   UNL     1     -43.510  56.565 -51.222  1.00  0.00     0.237 C 
HETATM    9  C   UNL     1     -42.841  57.669 -52.023  1.00  0.00     0.066 C 
HETATM   10  C   UNL     1     -42.284  58.535 -54.335  1.00  0.00     0.041 C 
HETATM   11  C   UNL     1     -43.304  58.921 -55.380  1.00  0.00     0.036 C 
ENDROOT
BRANCH   1  12
HETATM   12  C   UNL     1     -45.833  58.632 -55.517  1.00  0.00     0.155 C 
BRANCH  12  13
HETATM   13  N   UNL     1     -45.633  57.723 -56.626  1.00  0.00    -0.354 N 
HETATM   14  C   UNL     1     -45.902  58.121 -57.927  1.00  0.00     0.253 C 
HETATM   15  O   UNL     1     -46.378  59.219 -58.188  1.00  0.00    -0.268 OA
HETATM   16  H   UNL     1     -45.146  56.849 -56.472  1.00  0.00     0.162 HD
BRANCH  14  17
HETATM   17  C   UNL     1     -45.558  57.114 -58.971  1.00  0.00     0.053 A 
HETATM   18  C   UNL     1     -44.253  56.581 -59.093  1.00  0.00     0.025 A 
HETATM   19  C   UNL     1     -44.037  55.638 -60.117  1.00  0.00     0.025 A 
HETATM   20  C   UNL     1     -45.060  55.246 -60.985  1.00  0.00     0.002 A 
HETATM   21  C   UNL     1     -46.332  55.790 -60.858  1.00  0.00     0.001 A 
HETATM   22  C   UNL     1     -46.582  56.724 -59.856  1.00  0.00     0.019 A 
BRANCH  18  23
HETATM   23  N   UNL     1     -43.220  56.939 -58.204  1.00  0.00    -0.291 NA
HETATM   24  C   UNL     1     -42.724  55.807 -57.427  1.00  0.00     0.116 C 
HETATM   25  C   UNL     1     -42.180  57.818 -58.741  1.00  0.00     0.116 C 
ENDBRANCH  18  23
ENDBRANCH  14  17
ENDBRANCH  12  13
ENDBRANCH   1  12
BRANCH   6  26
HETATM   26  C   UNL     1     -41.503  54.943 -51.169  1.00  0.00     0.235 C 
BRANCH  26  27
HETATM   27  C   UNL     1     -41.251  53.510 -50.714  1.00  0.00     0.032 C 
BRANCH  27  28
HETATM   28  C   UNL     1     -39.847  52.989 -51.024  1.00  0.00     0.040 C 
BRANCH  28  29
HETATM   29  C   UNL     1     -39.895  51.946 -52.111  1.00  0.00    -0.058 A 
HETATM   30  C   UNL     1     -39.576  50.611 -51.829  1.00  0.00     0.007 A 
HETATM   31  C   UNL     1     -39.581  49.653 -52.844  1.00  0.00     0.001 A 
HETATM   32  C   UNL     1     -39.901  50.021 -54.150  1.00  0.00     0.000 A 
HETATM   33  C   UNL     1     -40.221  51.346 -54.440  1.00  0.00     0.001 A 
HETATM   34  C   UNL     1     -40.218  52.304 -53.426  1.00  0.00     0.007 A 
ENDBRANCH  28  29
ENDBRANCH  27  28
ENDBRANCH  26  27
ENDBRANCH   6  26
TORSDOF 8
ENDMDL
MODEL 3
REMARK VINA RESULT:      -8.1      1.579      2.129
REMARK  8 active torsions:
REMARK  status: ('A' for Active; 'I' for Inactive)
REMARK    1  A    between atoms: N_2  and  C_3 
REMARK    2  A    between atoms: C_4  and  C_5 
REMARK       I    between atoms: C_5  and  N_6 
REMARK    3  A    between atoms: N_6  and  C_7 
REMARK    4  A    between atoms: C_7  and  C_8 
REMARK    5  A    between atoms: N_13  and  C_15 
REMARK    6  A    between atoms: C_15  and  C_16 
REMARK    7  A    between atoms: C_16  and  C_17 
REMARK    8  A    between atoms: C_17  and  C_18 
ROOT
HETATM    1  C   UNL     1     -43.469  56.712 -51.203  1.00  0.00     0.140 C 
HETATM    2  O   UNL     1     -43.284  56.712 -52.636  1.00  0.00    -0.373 OA
HETATM    3  C   UNL     1     -43.849  57.935 -53.158  1.00  0.00     0.064 C 
HETATM    4  C   UNL     1     -44.767  57.544 -54.322  1.00  0.00     0.066 C 
HETATM    5  C   UNL     1     -43.983  56.978 -55.502  1.00  0.00     0.237 C 
HETATM    6  N   UNL     1     -42.894  57.939 -55.944  1.00  0.00    -0.071 N 
HETATM    7  H   UNL     1     -42.341  57.410 -56.631  1.00  0.00     0.279 HD
HETATM    8  C   UNL     1     -41.949  58.208 -54.792  1.00  0.00     0.237 C 
HETATM    9  C   UNL     1     -42.699  58.832 -53.627  1.00  0.00     0.066 C 
HETATM   10  C   UNL     1     -44.626  58.586 -52.004  1.00  0.00     0.041 C 
HETATM   11  C   UNL     1     -44.770  57.468 -51.000  1.00  0.00     0.036 C 
ENDROOT
BRANCH   1  12
HETATM   12  C   UNL     1     -43.498  55.287 -50.646  1.00  0.00     0.155 C 
BRANCH  12  13
HETATM   13  N   UNL     1     -42.701  54.366 -51.430  1.00  0.00    -0.354 N 
HETATM   14  C   UNL     1     -41.351  54.196 -51.166  1.00  0.00     0.253 C 
HETATM   15  O   UNL     1     -40.763  54.855 -50.317  1.00  0.00    -0.268 OA
HETATM   16  H   UNL     1     -43.161  53.727 -52.066  1.00  0.00     0.162 HD
BRANCH  14  17
HETATM   17  C   UNL     1     -40.683  53.147 -51.988  1.00  0.00     0.053 A 
HETATM   18  C   UNL     1     -40.713  53.175 -53.403  1.00  0.00     0.025 A 
HETATM   19  C   UNL     1     -40.053  52.131 -54.081  1.00  0.00     0.025 A 
HETATM   20  C   UNL     1     -39.401  51.103 -53.393  1.00  0.00     0.002 A 
HETATM   21  C   UNL     1     -39.394  51.084 -52.004  1.00  0.00     0.001 A 
HETATM   22  C   UNL     1     -40.036  52.101 -51.301  1.00  0.00     0.019 A 
BRANCH  18  23
HETATM   23  N   UNL     1     -41.334  54.223 -54.110  1.00  0.00    -0.291 NA
HETATM   24  C   UNL     1     -40.376  55.131 -54.735  1.00  0.00     0.116 C 
HETATM   25  C   UNL     1     -42.468  53.848 -54.957  1.00  0.00     0.116 C 
ENDBRANCH  18  23
ENDBRANCH  14  17
ENDBRANCH  12  13
ENDBRANCH   1  12
BRANCH   6  26
HETATM   26  C   UNL     1     -43.443  59.148 -56.676  1.00  0.00     0.235 C 
BRANCH  26  27
HETATM   27  C   UNL     1     -43.408  59.026 -58.195  1.00  0.00     0.032 C 
BRANCH  27  28
HETATM   28  C   UNL     1     -42.535  57.883 -58.714  1.00  0.00     0.040 C 
BRANCH  28  29
HETATM   29  C   UNL     1     -43.388  56.792 -59.308  1.00  0.00    -0.058 A 
HETATM   30  C   UNL     1     -44.310  57.083 -60.323  1.00  0.00     0.007 A 
HETATM   31  C   UNL     1     -45.129  56.079 -60.844  1.00  0.00     0.001 A 
HETATM   32  C   UNL     1     -45.036  54.778 -60.353  1.00  0.00     0.000 A 
HETATM   33  C   UNL     1     -44.123  54.478 -59.345  1.00  0.00     0.001 A 
HETATM   34  C   UNL     1     -43.302  55.480 -58.824  1.00  0.00     0.007 A 
ENDBRANCH  28  29
ENDBRANCH  27  28
ENDBRANCH  26  27
ENDBRANCH   6  26
TORSDOF 8
ENDMDL
MODEL 4
REMARK VINA RESULT:      -8.0      2.611      7.629
REMARK  8 active torsions:
REMARK  status: ('A' for Active; 'I' for Inactive)
REMARK    1  A    between atoms: N_2  and  C_3 
REMARK    2  A    between atoms: C_4  and  C_5 
REMARK       I    between atoms: C_5  and  N_6 
REMARK    3  A    between atoms: N_6  and  C_7 
REMARK    4  A    between atoms: C_7  and  C_8 
REMARK    5  A    between atoms: N_13  and  C_15 
REMARK    6  A    between atoms: C_15  and  C_16 
REMARK    7  A    between atoms: C_16  and  C_17 
REMARK    8  A    between atoms: C_17  and  C_18 
ROOT
HETATM    1  C   UNL     1     -43.508  59.966 -54.331  1.00  0.00     0.140 C 
HETATM    2  O   UNL     1     -43.040  58.604 -54.204  1.00  0.00    -0.373 OA
HETATM    3  C   UNL     1     -42.346  58.488 -52.942  1.00  0.00     0.064 C 
HETATM    4  C   UNL     1     -40.995  57.823 -53.234  1.00  0.00     0.066 C 
HETATM    5  C   UNL     1     -41.157  56.377 -53.691  1.00  0.00     0.237 C 
HETATM    6  N   UNL     1     -41.971  55.578 -52.689  1.00  0.00    -0.071 N 
HETATM    7  H   UNL     1     -42.145  54.676 -53.153  1.00  0.00     0.279 HD
HETATM    8  C   UNL     1     -43.336  56.209 -52.518  1.00  0.00     0.237 C 
HETATM    9  C   UNL     1     -43.201  57.632 -52.003  1.00  0.00     0.066 C 
HETATM   10  C   UNL     1     -42.182  59.915 -52.399  1.00  0.00     0.041 C 
HETATM   11  C   UNL     1     -42.458  60.785 -53.602  1.00  0.00     0.036 C 
ENDROOT
BRANCH   1  12
HETATM   12  C   UNL     1     -43.679  60.360 -55.799  1.00  0.00     0.155 C 
BRANCH  12  13
HETATM   13  N   UNL     1     -43.976  59.227 -56.650  1.00  0.00    -0.354 N 
HETATM   14  C   UNL     1     -43.422  59.127 -57.917  1.00  0.00     0.253 C 
HETATM   15  O   UNL     1     -42.721  60.010 -58.395  1.00  0.00    -0.268 OA
HETATM   16  H   UNL     1     -44.461  58.427 -56.262  1.00  0.00     0.162 HD
BRANCH  14  17
HETATM   17  C   UNL     1     -43.741  57.861 -58.638  1.00  0.00     0.053 A 
HETATM   18  C   UNL     1     -45.063  57.533 -59.020  1.00  0.00     0.025 A 
HETATM   19  C   UNL     1     -45.252  56.309 -59.694  1.00  0.00     0.025 A 
HETATM   20  C   UNL     1     -44.186  55.448 -59.969  1.00  0.00     0.002 A 
HETATM   21  C   UNL     1     -42.897  55.781 -59.573  1.00  0.00     0.001 A 
HETATM   22  C   UNL     1     -42.672  56.983 -58.906  1.00  0.00     0.019 A 
BRANCH  18  23
HETATM   23  N   UNL     1     -46.142  58.406 -58.783  1.00  0.00    -0.291 NA
HETATM   24  C   UNL     1     -46.727  58.931 -60.014  1.00  0.00     0.116 C 
HETATM   25  C   UNL     1     -47.113  57.975 -57.776  1.00  0.00     0.116 C 
ENDBRANCH  18  23
ENDBRANCH  14  17
ENDBRANCH  12  13
ENDBRANCH   1  12
BRANCH   6  26
HETATM   26  C   UNL     1     -41.197  55.266 -51.423  1.00  0.00     0.235 C 
BRANCH  26  27
HETATM   27  C   UNL     1     -41.197  53.790 -51.040  1.00  0.00     0.032 C 
BRANCH  27  28
HETATM   28  C   UNL     1     -39.823  53.123 -51.109  1.00  0.00     0.040 C 
BRANCH  28  29
HETATM   29  C   UNL     1     -39.824  52.010 -52.125  1.00  0.00    -0.058 A 
HETATM   30  C   UNL     1     -40.183  52.263 -53.457  1.00  0.00     0.007 A 
HETATM   31  C   UNL     1     -40.223  51.224 -54.388  1.00  0.00     0.001 A 
HETATM   32  C   UNL     1     -39.909  49.924 -53.998  1.00  0.00     0.000 A 
HETATM   33  C   UNL     1     -39.551  49.661 -52.677  1.00  0.00     0.001 A 
HETATM   34  C   UNL     1     -39.508  50.699 -51.745  1.00  0.00     0.007 A 
ENDBRANCH  28  29
ENDBRANCH  27  28
ENDBRANCH  26  27
ENDBRANCH   6  26
TORSDOF 8
ENDMDL
MODEL 5
REMARK VINA RESULT:      -7.8      2.547      4.418
REMARK  8 active torsions:
REMARK  status: ('A' for Active; 'I' for Inactive)
REMARK    1  A    between atoms: N_2  and  C_3 
REMARK    2  A    between atoms: C_4  and  C_5 
REMARK       I    between atoms: C_5  and  N_6 
REMARK    3  A    between atoms: N_6  and  C_7 
REMARK    4  A    between atoms: C_7  and  C_8 
REMARK    5  A    between atoms: N_13  and  C_15 
REMARK    6  A    between atoms: C_15  and  C_16 
REMARK    7  A    between atoms: C_16  and  C_17 
REMARK    8  A    between atoms: C_17  and  C_18 
ROOT
HETATM    1  C   UNL     1     -41.269  55.838 -49.998  1.00  0.00     0.140 C 
HETATM    2  O   UNL     1     -40.966  56.802 -51.030  1.00  0.00    -0.373 OA
HETATM    3  C   UNL     1     -42.215  57.272 -51.582  1.00  0.00     0.064 C 
HETATM    4  C   UNL     1     -42.103  57.159 -53.107  1.00  0.00     0.066 C 
HETATM    5  C   UNL     1     -41.071  58.126 -53.678  1.00  0.00     0.237 C 
HETATM    6  N   UNL     1     -41.360  59.551 -53.241  1.00  0.00    -0.071 N 
HETATM    7  H   UNL     1     -40.540  60.091 -53.548  1.00  0.00     0.279 HD
HETATM    8  C   UNL     1     -41.350  59.636 -51.729  1.00  0.00     0.237 C 
HETATM    9  C   UNL     1     -42.415  58.726 -51.141  1.00  0.00     0.066 C 
HETATM   10  C   UNL     1     -43.315  56.364 -51.014  1.00  0.00     0.041 C 
HETATM   11  C   UNL     1     -42.550  55.178 -50.476  1.00  0.00     0.036 C 
ENDROOT
BRANCH   1  12
HETATM   12  C   UNL     1     -40.115  54.855 -49.797  1.00  0.00     0.155 C 
BRANCH  12  13
HETATM   13  N   UNL     1     -39.949  53.953 -50.918  1.00  0.00    -0.354 N 
HETATM   14  C   UNL     1     -40.199  52.596 -50.780  1.00  0.00     0.253 C 
HETATM   15  O   UNL     1     -40.502  52.094 -49.705  1.00  0.00    -0.268 OA
HETATM   16  H   UNL     1     -39.805  54.334 -51.845  1.00  0.00     0.162 HD
BRANCH  14  17
HETATM   17  C   UNL     1     -40.080  51.810 -52.041  1.00  0.00     0.053 A 
HETATM   18  C   UNL     1     -40.506  52.327 -53.287  1.00  0.00     0.025 A 
HETATM   19  C   UNL     1     -40.351  51.497 -54.415  1.00  0.00     0.025 A 
HETATM   20  C   UNL     1     -39.808  50.213 -54.314  1.00  0.00     0.002 A 
HETATM   21  C   UNL     1     -39.408  49.716 -53.080  1.00  0.00     0.001 A 
HETATM   22  C   UNL     1     -39.546  50.510 -51.944  1.00  0.00     0.019 A 
BRANCH  18  23
HETATM   23  N   UNL     1     -41.022  53.632 -53.411  1.00  0.00    -0.291 NA
HETATM   24  C   UNL     1     -40.265  54.454 -54.351  1.00  0.00     0.116 C 
HETATM   25  C   UNL     1     -42.476  53.744 -53.530  1.00  0.00     0.116 C 
ENDBRANCH  18  23
ENDBRANCH  14  17
ENDBRANCH  12  13
ENDBRANCH   1  12
BRANCH   6  26
HETATM   26  C   UNL     1     -42.557  60.149 -53.953  1.00  0.00     0.235 C 
BRANCH  26  27
HETATM   27  C   UNL     1     -42.817  61.613 -53.616  1.00  0.00     0.032 C 
BRANCH  27  28
HETATM   28  C   UNL     1     -44.267  61.926 -53.247  1.00  0.00     0.040 C 
BRANCH  28  29
HETATM   29  C   UNL     1     -44.510  61.666 -51.782  1.00  0.00    -0.058 A 
HETATM   30  C   UNL     1     -43.750  62.328 -50.807  1.00  0.00     0.007 A 
HETATM   31  C   UNL     1     -43.948  62.056 -49.452  1.00  0.00     0.001 A 
HETATM   32  C   UNL     1     -44.902  61.119 -49.060  1.00  0.00     0.000 A 
HETATM   33  C   UNL     1     -45.663  60.456 -50.021  1.00  0.00     0.001 A 
HETATM   34  C   UNL     1     -45.468  60.728 -51.376  1.00  0.00     0.007 A 
ENDBRANCH  28  29
ENDBRANCH  27  28
ENDBRANCH  26  27
ENDBRANCH   6  26
TORSDOF 8
ENDMDL
MODEL 6
REMARK VINA RESULT:      -7.8      2.271      7.574
REMARK  8 active torsions:
REMARK  status: ('A' for Active; 'I' for Inactive)
REMARK    1  A    between atoms: N_2  and  C_3 
REMARK    2  A    between atoms: C_4  and  C_5 
REMARK       I    between atoms: C_5  and  N_6 
REMARK    3  A    between atoms: N_6  and  C_7 
REMARK    4  A    between atoms: C_7  and  C_8 
REMARK    5  A    between atoms: N_13  and  C_15 
REMARK    6  A    between atoms: C_15  and  C_16 
REMARK    7  A    between atoms: C_16  and  C_17 
REMARK    8  A    between atoms: C_17  and  C_18 
ROOT
HETATM    1  C   UNL     1     -44.722  59.299 -53.749  1.00  0.00     0.140 C 
HETATM    2  O   UNL     1     -43.723  58.256 -53.711  1.00  0.00    -0.373 OA
HETATM    3  C   UNL     1     -43.352  58.044 -52.332  1.00  0.00     0.064 C 
HETATM    4  C   UNL     1     -41.821  58.075 -52.269  1.00  0.00     0.066 C 
HETATM    5  C   UNL     1     -41.194  56.889 -52.996  1.00  0.00     0.237 C 
HETATM    6  N   UNL     1     -41.751  55.576 -52.476  1.00  0.00    -0.071 N 
HETATM    7  H   UNL     1     -41.383  54.862 -53.120  1.00  0.00     0.279 HD
HETATM    8  C   UNL     1     -43.253  55.546 -52.661  1.00  0.00     0.237 C 
HETATM    9  C   UNL     1     -43.904  56.683 -51.892  1.00  0.00     0.066 C 
HETATM   10  C   UNL     1     -43.987  59.186 -51.526  1.00  0.00     0.041 C 
HETATM   11  C   UNL     1     -44.356  60.200 -52.583  1.00  0.00     0.036 C 
ENDROOT
BRANCH   1  12
HETATM   12  C   UNL     1     -44.724  60.019 -55.099  1.00  0.00     0.155 C 
BRANCH  12  13
HETATM   13  N   UNL     1     -43.966  59.311 -56.110  1.00  0.00    -0.354 N 
HETATM   14  C   UNL     1     -44.610  58.632 -57.133  1.00  0.00     0.253 C 
HETATM   15  O   UNL     1     -45.829  58.544 -57.191  1.00  0.00    -0.268 OA
HETATM   16  H   UNL     1     -42.963  59.443 -56.163  1.00  0.00     0.162 HD
BRANCH  14  17
HETATM   17  C   UNL     1     -43.700  58.033 -58.151  1.00  0.00     0.053 A 
HETATM   18  C   UNL     1     -42.834  58.828 -58.939  1.00  0.00     0.025 A 
HETATM   19  C   UNL     1     -42.020  58.158 -59.874  1.00  0.00     0.025 A 
HETATM   20  C   UNL     1     -42.066  56.769 -60.029  1.00  0.00     0.002 A 
HETATM   21  C   UNL     1     -42.933  56.007 -59.256  1.00  0.00     0.001 A 
HETATM   22  C   UNL     1     -43.751  56.635 -58.321  1.00  0.00     0.019 A 
BRANCH  18  23
HETATM   23  N   UNL     1     -42.750  60.223 -58.770  1.00  0.00    -0.291 NA
HETATM   24  C   UNL     1     -41.444  60.658 -58.283  1.00  0.00     0.116 C 
HETATM   25  C   UNL     1     -43.306  61.040 -59.850  1.00  0.00     0.116 C 
ENDBRANCH  18  23
ENDBRANCH  14  17
ENDBRANCH  12  13
ENDBRANCH   1  12
BRANCH   6  26
HETATM   26  C   UNL     1     -41.223  55.222 -51.099  1.00  0.00     0.235 C 
BRANCH  26  27
HETATM   27  C   UNL     1     -41.103  53.724 -50.843  1.00  0.00     0.032 C 
BRANCH  27  28
HETATM   28  C   UNL     1     -39.719  53.145 -51.137  1.00  0.00     0.040 C 
BRANCH  28  29
HETATM   29  C   UNL     1     -39.817  52.009 -52.122  1.00  0.00    -0.058 A 
HETATM   30  C   UNL     1     -39.562  50.692 -51.716  1.00  0.00     0.007 A 
HETATM   31  C   UNL     1     -39.613  49.645 -52.638  1.00  0.00     0.001 A 
HETATM   32  C   UNL     1     -39.916  49.905 -53.973  1.00  0.00     0.000 A 
HETATM   33  C   UNL     1     -40.171  51.210 -54.387  1.00  0.00     0.001 A 
HETATM   34  C   UNL     1     -40.123  52.258 -53.466  1.00  0.00     0.007 A 
ENDBRANCH  28  29
ENDBRANCH  27  28
ENDBRANCH  26  27
ENDBRANCH   6  26
TORSDOF 8
ENDMDL
MODEL 7
REMARK VINA RESULT:      -7.7      2.198      7.604
REMARK  8 active torsions:
REMARK  status: ('A' for Active; 'I' for Inactive)
REMARK    1  A    between atoms: N_2  and  C_3 
REMARK    2  A    between atoms: C_4  and  C_5 
REMARK       I    between atoms: C_5  and  N_6 
REMARK    3  A    between atoms: N_6  and  C_7 
REMARK    4  A    between atoms: C_7  and  C_8 
REMARK    5  A    between atoms: N_13  and  C_15 
REMARK    6  A    between atoms: C_15  and  C_16 
REMARK    7  A    between atoms: C_16  and  C_17 
REMARK    8  A    between atoms: C_17  and  C_18 
ROOT
HETATM    1  C   UNL     1     -43.993  58.994 -53.630  1.00  0.00     0.140 C 
HETATM    2  O   UNL     1     -43.607  57.655 -53.247  1.00  0.00    -0.373 OA
HETATM    3  C   UNL     1     -42.412  57.750 -52.441  1.00  0.00     0.064 C 
HETATM    4  C   UNL     1     -41.399  56.756 -53.022  1.00  0.00     0.066 C 
HETATM    5  C   UNL     1     -41.846  55.309 -52.835  1.00  0.00     0.237 C 
HETATM    6  N   UNL     1     -42.146  55.017 -51.376  1.00  0.00    -0.071 N 
HETATM    7  H   UNL     1     -42.573  54.081 -51.379  1.00  0.00     0.279 HD
HETATM    8  C   UNL     1     -43.230  55.949 -50.878  1.00  0.00     0.237 C 
HETATM    9  C   UNL     1     -42.780  57.395 -50.996  1.00  0.00     0.066 C 
HETATM   10  C   UNL     1     -41.923  59.201 -52.549  1.00  0.00     0.041 C 
HETATM   11  C   UNL     1     -42.675  59.739 -53.744  1.00  0.00     0.036 C 
ENDROOT
BRANCH   1  12
HETATM   12  C   UNL     1     -44.805  58.990 -54.926  1.00  0.00     0.155 C 
BRANCH  12  13
HETATM   13  N   UNL     1     -43.989  58.738 -56.095  1.00  0.00    -0.354 N 
HETATM   14  C   UNL     1     -44.555  58.698 -57.360  1.00  0.00     0.253 C 
HETATM   15  O   UNL     1     -45.761  58.803 -57.539  1.00  0.00    -0.268 OA
HETATM   16  H   UNL     1     -42.980  58.750 -56.009  1.00  0.00     0.162 HD
BRANCH  14  17
HETATM   17  C   UNL     1     -43.578  58.525 -58.473  1.00  0.00     0.053 A 
HETATM   18  C   UNL     1     -43.137  57.246 -58.888  1.00  0.00     0.025 A 
HETATM   19  C   UNL     1     -42.209  57.199 -59.948  1.00  0.00     0.025 A 
HETATM   20  C   UNL     1     -41.735  58.361 -60.564  1.00  0.00     0.002 A 
HETATM   21  C   UNL     1     -42.170  59.608 -60.134  1.00  0.00     0.001 A 
HETATM   22  C   UNL     1     -43.087  59.693 -59.089  1.00  0.00     0.019 A 
BRANCH  18  23
HETATM   23  N   UNL     1     -43.632  56.065 -58.302  1.00  0.00    -0.291 NA
HETATM   24  C   UNL     1     -44.055  55.077 -59.291  1.00  0.00     0.116 C 
HETATM   25  C   UNL     1     -42.858  55.523 -57.185  1.00  0.00     0.116 C 
ENDBRANCH  18  23
ENDBRANCH  14  17
ENDBRANCH  12  13
ENDBRANCH   1  12
BRANCH   6  26
HETATM   26  C   UNL     1     -40.891  54.912 -50.532  1.00  0.00     0.235 C 
BRANCH  26  27
HETATM   27  C   UNL     1     -39.871  53.905 -51.052  1.00  0.00     0.032 C 
BRANCH  27  28
HETATM   28  C   UNL     1     -40.202  52.448 -50.722  1.00  0.00     0.040 C 
BRANCH  28  29
HETATM   29  C   UNL     1     -40.003  51.572 -51.932  1.00  0.00    -0.058 A 
HETATM   30  C   UNL     1     -40.233  52.075 -53.220  1.00  0.00     0.007 A 
HETATM   31  C   UNL     1     -40.088  51.251 -54.337  1.00  0.00     0.001 A 
HETATM   32  C   UNL     1     -39.716  49.917 -54.178  1.00  0.00     0.000 A 
HETATM   33  C   UNL     1     -39.485  49.408 -52.902  1.00  0.00     0.001 A 
HETATM   34  C   UNL     1     -39.627  50.231 -51.784  1.00  0.00     0.007 A 
ENDBRANCH  28  29
ENDBRANCH  27  28
ENDBRANCH  26  27
ENDBRANCH   6  26
TORSDOF 8
ENDMDL
MODEL 8
REMARK VINA RESULT:      -7.6      2.983      8.741
REMARK  8 active torsions:
REMARK  status: ('A' for Active; 'I' for Inactive)
REMARK    1  A    between atoms: N_2  and  C_3 
REMARK    2  A    between atoms: C_4  and  C_5 
REMARK       I    between atoms: C_5  and  N_6 
REMARK    3  A    between atoms: N_6  and  C_7 
REMARK    4  A    between atoms: C_7  and  C_8 
REMARK    5  A    between atoms: N_13  and  C_15 
REMARK    6  A    between atoms: C_15  and  C_16 
REMARK    7  A    between atoms: C_16  and  C_17 
REMARK    8  A    between atoms: C_17  and  C_18 
ROOT
HETATM    1  C   UNL     1     -42.628  56.969 -56.383  1.00  0.00     0.140 C 
HETATM    2  O   UNL     1     -42.788  56.872 -54.950  1.00  0.00    -0.373 OA
HETATM    3  C   UNL     1     -42.301  55.577 -54.535  1.00  0.00     0.064 C 
HETATM    4  C   UNL     1     -43.388  54.952 -53.652  1.00  0.00     0.066 C 
HETATM    5  C   UNL     1     -43.564  55.708 -52.339  1.00  0.00     0.237 C 
HETATM    6  N   UNL     1     -42.243  55.831 -51.601  1.00  0.00    -0.071 N 
HETATM    7  H   UNL     1     -42.438  56.472 -50.821  1.00  0.00     0.279 HD
HETATM    8  C   UNL     1     -41.235  56.554 -52.470  1.00  0.00     0.237 C 
HETATM    9  C   UNL     1     -40.997  55.783 -53.757  1.00  0.00     0.066 C 
HETATM   10  C   UNL     1     -42.061  54.767 -55.817  1.00  0.00     0.041 C 
HETATM   11  C   UNL     1     -42.813  55.543 -56.871  1.00  0.00     0.036 C 
ENDROOT
BRANCH   1  12
HETATM   12  C   UNL     1     -43.629  57.955 -56.989  1.00  0.00     0.155 C 
BRANCH  12  13
HETATM   13  N   UNL     1     -43.003  58.900 -57.892  1.00  0.00    -0.354 N 
HETATM   14  C   UNL     1     -42.874  60.235 -57.542  1.00  0.00     0.253 C 
HETATM   15  O   UNL     1     -43.336  60.686 -56.501  1.00  0.00    -0.268 OA
HETATM   16  H   UNL     1     -42.516  58.557 -58.711  1.00  0.00     0.162 HD
BRANCH  14  17
HETATM   17  C   UNL     1     -42.125  61.067 -58.527  1.00  0.00     0.053 A 
HETATM   18  C   UNL     1     -42.645  61.352 -59.812  1.00  0.00     0.025 A 
HETATM   19  C   UNL     1     -41.851  62.145 -60.666  1.00  0.00     0.025 A 
HETATM   20  C   UNL     1     -40.599  62.626 -60.270  1.00  0.00     0.002 A 
HETATM   21  C   UNL     1     -40.100  62.324 -59.010  1.00  0.00     0.001 A 
HETATM   22  C   UNL     1     -40.857  61.544 -58.140  1.00  0.00     0.019 A 
BRANCH  18  23
HETATM   23  N   UNL     1     -43.919  60.905 -60.213  1.00  0.00    -0.291 NA
HETATM   24  C   UNL     1     -44.885  61.992 -60.347  1.00  0.00     0.116 C 
HETATM   25  C   UNL     1     -43.949  59.921 -61.295  1.00  0.00     0.116 C 
ENDBRANCH  18  23
ENDBRANCH  14  17
ENDBRANCH  12  13
ENDBRANCH   1  12
BRANCH   6  26
HETATM   26  C   UNL     1     -41.797  54.523 -50.979  1.00  0.00     0.235 C 
BRANCH  26  27
HETATM   27  C   UNL     1     -40.356  54.140 -51.296  1.00  0.00     0.032 C 
BRANCH  27  28
HETATM   28  C   UNL     1     -39.965  52.733 -50.842  1.00  0.00     0.040 C 
BRANCH  28  29
HETATM   29  C   UNL     1     -39.900  51.794 -52.019  1.00  0.00    -0.058 A 
HETATM   30  C   UNL     1     -40.186  52.254 -53.312  1.00  0.00     0.007 A 
HETATM   31  C   UNL     1     -40.166  51.374 -54.396  1.00  0.00     0.001 A 
HETATM   32  C   UNL     1     -39.863  50.029 -54.197  1.00  0.00     0.000 A 
HETATM   33  C   UNL     1     -39.577  49.562 -52.916  1.00  0.00     0.001 A 
HETATM   34  C   UNL     1     -39.595  50.440 -51.832  1.00  0.00     0.007 A 
ENDBRANCH  28  29
ENDBRANCH  27  28
ENDBRANCH  26  27
ENDBRANCH   6  26
TORSDOF 8
ENDMDL
MODEL 9
REMARK VINA RESULT:      -7.5      1.648      2.091
REMARK  8 active torsions:
REMARK  status: ('A' for Active; 'I' for Inactive)
REMARK    1  A    between atoms: N_2  and  C_3 
REMARK    2  A    between atoms: C_4  and  C_5 
REMARK       I    between atoms: C_5  and  N_6 
REMARK    3  A    between atoms: N_6  and  C_7 
REMARK    4  A    between atoms: C_7  and  C_8 
REMARK    5  A    between atoms: N_13  and  C_15 
REMARK    6  A    between atoms: C_15  and  C_16 
REMARK    7  A    between atoms: C_16  and  C_17 
REMARK    8  A    between atoms: C_17  and  C_18 
ROOT
HETATM    1  C   UNL     1     -41.119  55.691 -49.898  1.00  0.00     0.140 C 
HETATM    2  O   UNL     1     -40.746  56.649 -50.913  1.00  0.00    -0.373 OA
HETATM    3  C   UNL     1     -41.958  57.196 -51.476  1.00  0.00     0.064 C 
HETATM    4  C   UNL     1     -41.830  57.096 -53.001  1.00  0.00     0.066 C 
HETATM    5  C   UNL     1     -40.736  58.009 -53.545  1.00  0.00     0.237 C 
HETATM    6  N   UNL     1     -40.951  59.443 -53.093  1.00  0.00    -0.071 N 
HETATM    7  H   UNL     1     -40.097  59.939 -53.382  1.00  0.00     0.279 HD
HETATM    8  C   UNL     1     -40.959  59.508 -51.580  1.00  0.00     0.237 C 
HETATM    9  C   UNL     1     -42.082  58.654 -51.019  1.00  0.00     0.066 C 
HETATM   10  C   UNL     1     -43.116  56.345 -50.936  1.00  0.00     0.041 C 
HETATM   11  C   UNL     1     -42.427  55.111 -50.403  1.00  0.00     0.036 C 
ENDROOT
BRANCH   1  12
HETATM   12  C   UNL     1     -40.024  54.642 -49.694  1.00  0.00     0.155 C 
BRANCH  12  13
HETATM   13  N   UNL     1     -39.865  53.773 -50.841  1.00  0.00    -0.354 N 
HETATM   14  C   UNL     1     -40.179  52.425 -50.759  1.00  0.00     0.253 C 
HETATM   15  O   UNL     1     -40.536  51.900 -49.712  1.00  0.00    -0.268 OA
HETATM   16  H   UNL     1     -39.675  54.178 -51.750  1.00  0.00     0.162 HD
BRANCH  14  17
HETATM   17  C   UNL     1     -40.056  51.678 -52.044  1.00  0.00     0.053 A 
HETATM   18  C   UNL     1     -40.463  52.241 -53.277  1.00  0.00     0.025 A 
HETATM   19  C   UNL     1     -40.305  51.445 -54.430  1.00  0.00     0.025 A 
HETATM   20  C   UNL     1     -39.779  50.152 -54.365  1.00  0.00     0.002 A 
HETATM   21  C   UNL     1     -39.398  49.611 -53.143  1.00  0.00     0.001 A 
HETATM   22  C   UNL     1     -39.538  50.369 -51.984  1.00  0.00     0.019 A 
BRANCH  18  23
HETATM   23  N   UNL     1     -40.961  53.555 -53.364  1.00  0.00    -0.291 NA
HETATM   24  C   UNL     1     -40.227  54.378 -54.321  1.00  0.00     0.116 C 
HETATM   25  C   UNL     1     -42.417  53.692 -53.426  1.00  0.00     0.116 C 
ENDBRANCH  18  23
ENDBRANCH  14  17
ENDBRANCH  12  13
ENDBRANCH   1  12
BRANCH   6  26
HETATM   26  C   UNL     1     -42.102  60.117 -53.814  1.00  0.00     0.235 C 
BRANCH  26  27
HETATM   27  C   UNL     1     -42.091  59.920 -55.326  1.00  0.00     0.032 C 
BRANCH  27  28
HETATM   28  C   UNL     1     -42.897  60.963 -56.101  1.00  0.00     0.040 C 
BRANCH  28  29
HETATM   29  C   UNL     1     -42.495  60.973 -57.553  1.00  0.00    -0.058 A 
HETATM   30  C   UNL     1     -43.142  60.140 -58.476  1.00  0.00     0.007 A 
HETATM   31  C   UNL     1     -42.742  60.120 -59.813  1.00  0.00     0.001 A 
HETATM   32  C   UNL     1     -41.690  60.928 -60.239  1.00  0.00     0.000 A 
HETATM   33  C   UNL     1     -41.040  61.761 -59.330  1.00  0.00     0.001 A 
HETATM   34  C   UNL     1     -41.440  61.784 -57.993  1.00  0.00     0.007 A 
ENDBRANCH  28  29
ENDBRANCH  27  28
ENDBRANCH  26  27
ENDBRANCH   6  26
TORSDOF 8
ENDMDL
MODEL 10
REMARK VINA RESULT:      -7.5      2.498      8.407
REMARK  8 active torsions:
REMARK  status: ('A' for Active; 'I' for Inactive)
REMARK    1  A    between atoms: N_2  and  C_3 
REMARK    2  A    between atoms: C_4  and  C_5 
REMARK       I    between atoms: C_5  and  N_6 
REMARK    3  A    between atoms: N_6  and  C_7 
REMARK    4  A    between atoms: C_7  and  C_8 
REMARK    5  A    between atoms: N_13  and  C_15 
REMARK    6  A    between atoms: C_15  and  C_16 
REMARK    7  A    between atoms: C_16  and  C_17 
REMARK    8  A    between atoms: C_17  and  C_18 
ROOT
HETATM    1  C   UNL     1     -43.260  59.258 -53.973  1.00  0.00     0.140 C 
HETATM    2  O   UNL     1     -42.381  58.299 -53.343  1.00  0.00    -0.373 OA
HETATM    3  C   UNL     1     -43.195  57.385 -52.577  1.00  0.00     0.064 C 
HETATM    4  C   UNL     1     -42.581  57.305 -51.174  1.00  0.00     0.066 C 
HETATM    5  C   UNL     1     -41.208  56.640 -51.187  1.00  0.00     0.237 C 
HETATM    6  N   UNL     1     -41.270  55.276 -51.851  1.00  0.00    -0.071 N 
HETATM    7  H   UNL     1     -40.288  54.984 -51.941  1.00  0.00     0.279 HD
HETATM    8  C   UNL     1     -41.776  55.419 -53.271  1.00  0.00     0.237 C 
HETATM    9  C   UNL     1     -43.170  56.022 -53.278  1.00  0.00     0.066 C 
HETATM   10  C   UNL     1     -44.613  57.972 -52.555  1.00  0.00     0.041 C 
HETATM   11  C   UNL     1     -44.408  59.404 -52.991  1.00  0.00     0.036 C 
ENDROOT
BRANCH   1  12
HETATM   12  C   UNL     1     -42.534  60.573 -54.262  1.00  0.00     0.155 C 
BRANCH  12  13
HETATM   13  N   UNL     1     -42.136  60.696 -55.649  1.00  0.00    -0.354 N 
HETATM   14  C   UNL     1     -42.883  61.456 -56.536  1.00  0.00     0.253 C 
HETATM   15  O   UNL     1     -43.934  61.994 -56.211  1.00  0.00    -0.268 OA
HETATM   16  H   UNL     1     -41.226  60.359 -55.937  1.00  0.00     0.162 HD
BRANCH  14  17
HETATM   17  C   UNL     1     -42.300  61.569 -57.904  1.00  0.00     0.053 A 
HETATM   18  C   UNL     1     -42.325  60.489 -58.818  1.00  0.00     0.025 A 
HETATM   19  C   UNL     1     -41.742  60.704 -60.083  1.00  0.00     0.025 A 
HETATM   20  C   UNL     1     -41.154  61.926 -60.425  1.00  0.00     0.002 A 
HETATM   21  C   UNL     1     -41.126  62.970 -59.509  1.00  0.00     0.001 A 
HETATM   22  C   UNL     1     -41.695  62.794 -58.250  1.00  0.00     0.019 A 
BRANCH  18  23
HETATM   23  N   UNL     1     -42.945  59.265 -58.502  1.00  0.00    -0.291 NA
HETATM   24  C   UNL     1     -44.264  59.123 -59.112  1.00  0.00     0.116 C 
HETATM   25  C   UNL     1     -42.100  58.073 -58.582  1.00  0.00     0.116 C 
ENDBRANCH  18  23
ENDBRANCH  14  17
ENDBRANCH  12  13
ENDBRANCH   1  12
BRANCH   6  26
HETATM   26  C   UNL     1     -41.949  54.235 -50.983  1.00  0.00     0.235 C 
BRANCH  26  27
HETATM   27  C   UNL     1     -40.992  53.233 -50.347  1.00  0.00     0.032 C 
BRANCH  27  28
HETATM   28  C   UNL     1     -39.680  53.046 -51.109  1.00  0.00     0.040 C 
BRANCH  28  29
HETATM   29  C   UNL     1     -39.798  51.918 -52.102  1.00  0.00    -0.058 A 
HETATM   30  C   UNL     1     -39.522  50.599 -51.716  1.00  0.00     0.007 A 
HETATM   31  C   UNL     1     -39.593  49.561 -52.646  1.00  0.00     0.001 A 
HETATM   32  C   UNL     1     -39.936  49.830 -53.969  1.00  0.00     0.000 A 
HETATM   33  C   UNL     1     -40.213  51.138 -54.363  1.00  0.00     0.001 A 
HETATM   34  C   UNL     1     -40.145  52.177 -53.434  1.00  0.00     0.007 A 
ENDBRANCH  28  29
ENDBRANCH  27  28
ENDBRANCH  26  27
ENDBRANCH   6  26
TORSDOF 8
ENDMDL
