MODEL 1
REMARK VINA RESULT:      -7.4      0.000      0.000
REMARK  6 active torsions:
REMARK  status: ('A' for Active; 'I' for Inactive)
REMARK    1  A    between atoms: C_2  and  C_3 
REMARK    2  A    between atoms: C_3  and  C_4 
REMARK    3  A    between atoms: C_4  and  N_5 
REMARK       I    between atoms: N_5  and  C_6 
REMARK       I    between atoms: C_6  and  N_7 
REMARK    4  A    between atoms: N_7  and  C_8 
REMARK    5  A    between atoms: N_11  and  C_12 
REMARK    6  A    between atoms: C_15  and  O_16 
ROOT
HETATM    1  C   UNL     1     -42.758  54.199 -51.583  1.00  0.00     0.123 C 
HETATM    2  C   UNL     1     -42.735  54.312 -53.064  1.00  0.00     0.009 A 
HETATM    3  C   UNL     1     -43.109  55.436 -53.780  1.00  0.00     0.047 A 
HETATM    4  N   UNL     1     -42.763  55.189 -55.107  1.00  0.00    -0.238 N 
HETATM    5  N   UNL     1     -42.314  53.906 -55.246  1.00  0.00    -0.179 NA
HETATM    6  C   UNL     1     -42.286  53.399 -54.020  1.00  0.00     0.150 A 
HETATM    7  C   UNL     1     -43.707  56.664 -53.178  1.00  0.00     0.069 C 
HETATM    8  C   UNL     1     -43.643  56.672 -51.613  1.00  0.00    -0.040 C 
HETATM    9  C   UNL     1     -44.838  57.495 -51.081  1.00  0.00     0.015 C 
HETATM   10  C   UNL     1     -42.355  57.388 -51.156  1.00  0.00     0.015 C 
HETATM   11  C   UNL     1     -43.729  55.241 -50.991  1.00  0.00     0.039 C 
ENDROOT
BRANCH   1  12
HETATM   12  N   UNL     1     -41.383  54.375 -51.150  1.00  0.00    -0.334 N 
HETATM   13  C   UNL     1     -40.398  53.490 -50.896  1.00  0.00     0.316 C 
HETATM   14  N   UNL     1     -40.732  52.173 -50.896  1.00  0.00    -0.343 N 
HETATM   15  O   UNL     1     -39.270  53.911 -50.671  1.00  0.00    -0.247 OA
HETATM   16  H   UNL     1     -41.600  51.916 -51.335  1.00  0.00     0.164 HD
HETATM   17  H   UNL     1     -41.036  55.326 -51.095  1.00  0.00     0.165 HD
BRANCH  14  18
HETATM   18  C   UNL     1     -39.717  51.142 -50.817  1.00  0.00     0.124 C 
BRANCH  18  19
HETATM   19  C   UNL     1     -39.638  50.191 -52.016  1.00  0.00     0.019 C 
BRANCH  19  20
HETATM   20  C   UNL     1     -39.573  50.873 -53.384  1.00  0.00    -0.003 C 
HETATM   21  C   UNL     1     -40.141  50.040 -54.521  1.00  0.00     0.005 C 
ENDBRANCH  19  20
ENDBRANCH  18  19
ENDBRANCH  14  18
ENDBRANCH   1  12
BRANCH   4  22
HETATM   22  C   UNL     1     -42.737  56.046 -56.253  1.00  0.00     0.058 A 
HETATM   23  C   UNL     1     -43.045  55.491 -57.507  1.00  0.00     0.034 A 
HETATM   24  C   UNL     1     -42.931  56.250 -58.675  1.00  0.00     0.039 A 
HETATM   25  C   UNL     1     -42.513  57.576 -58.617  1.00  0.00     0.068 A 
HETATM   26  C   UNL     1     -42.263  58.153 -57.374  1.00  0.00     0.039 A 
HETATM   27  C   UNL     1     -42.379  57.395 -56.196  1.00  0.00     0.034 A 
BRANCH  25  28
HETATM   28  O   UNL     1     -42.404  58.200 -59.828  1.00  0.00    -0.356 OA
HETATM   29  C   UNL     1     -43.554  58.903 -60.283  1.00  0.00     0.210 C 
ENDBRANCH  25  28
ENDBRANCH   4  22
TORSDOF 6
ENDMDL
MODEL 2
REMARK VINA RESULT:      -7.3      2.636      4.385
REMARK  6 active torsions:
REMARK  status: ('A' for Active; 'I' for Inactive)
REMARK    1  A    between atoms: C_2  and  C_3 
REMARK    2  A    between atoms: C_3  and  C_4 
REMARK    3  A    between atoms: C_4  and  N_5 
REMARK       I    between atoms: N_5  and  C_6 
REMARK       I    between atoms: C_6  and  N_7 
REMARK    4  A    between atoms: N_7  and  C_8 
REMARK    5  A    between atoms: N_11  and  C_12 
REMARK    6  A    between atoms: C_15  and  O_16 
ROOT
HETATM    1  C   UNL     1     -41.612  57.262 -53.878  1.00  0.00     0.123 C 
HETATM    2  C   UNL     1     -42.277  57.642 -55.151  1.00  0.00     0.009 A 
HETATM    3  C   UNL     1     -42.530  56.778 -56.203  1.00  0.00     0.047 A 
HETATM    4  N   UNL     1     -43.321  57.482 -57.108  1.00  0.00    -0.238 N 
HETATM    5  N   UNL     1     -43.450  58.782 -56.709  1.00  0.00    -0.179 NA
HETATM    6  C   UNL     1     -42.837  58.862 -55.534  1.00  0.00     0.150 A 
HETATM    7  C   UNL     1     -42.065  55.360 -56.265  1.00  0.00     0.069 C 
HETATM    8  C   UNL     1     -41.473  54.850 -54.909  1.00  0.00    -0.040 C 
HETATM    9  C   UNL     1     -40.413  53.768 -55.216  1.00  0.00     0.015 C 
HETATM   10  C   UNL     1     -42.588  54.177 -54.083  1.00  0.00     0.015 C 
HETATM   11  C   UNL     1     -40.779  55.980 -54.081  1.00  0.00     0.039 C 
ENDROOT
BRANCH   1  12
HETATM   12  N   UNL     1     -42.679  57.113 -52.904  1.00  0.00    -0.334 N 
HETATM   13  C   UNL     1     -42.674  56.706 -51.618  1.00  0.00     0.316 C 
HETATM   14  N   UNL     1     -41.511  56.200 -51.131  1.00  0.00    -0.343 N 
HETATM   15  O   UNL     1     -43.707  56.800 -50.965  1.00  0.00    -0.247 OA
HETATM   16  H   UNL     1     -40.670  56.397 -51.647  1.00  0.00     0.164 HD
HETATM   17  H   UNL     1     -43.599  57.442 -53.174  1.00  0.00     0.165 HD
BRANCH  14  18
HETATM   18  C   UNL     1     -41.352  55.908 -49.720  1.00  0.00     0.124 C 
BRANCH  18  19
HETATM   19  C   UNL     1     -41.032  54.451 -49.372  1.00  0.00     0.019 C 
BRANCH  19  20
HETATM   20  C   UNL     1     -41.151  53.464 -50.535  1.00  0.00    -0.003 C 
HETATM   21  C   UNL     1     -39.820  53.070 -51.154  1.00  0.00     0.005 C 
ENDBRANCH  19  20
ENDBRANCH  18  19
ENDBRANCH  14  18
ENDBRANCH   1  12
BRANCH   4  22
HETATM   22  C   UNL     1     -44.036  57.054 -58.271  1.00  0.00     0.058 A 
HETATM   23  C   UNL     1     -45.334  57.554 -58.477  1.00  0.00     0.034 A 
HETATM   24  C   UNL     1     -46.122  57.091 -59.535  1.00  0.00     0.039 A 
HETATM   25  C   UNL     1     -45.631  56.128 -60.411  1.00  0.00     0.068 A 
HETATM   26  C   UNL     1     -44.324  55.671 -60.253  1.00  0.00     0.039 A 
HETATM   27  C   UNL     1     -43.528  56.134 -59.192  1.00  0.00     0.034 A 
BRANCH  25  28
HETATM   28  O   UNL     1     -46.508  55.730 -61.380  1.00  0.00    -0.356 OA
HETATM   29  C   UNL     1     -47.691  56.508 -61.522  1.00  0.00     0.210 C 
ENDBRANCH  25  28
ENDBRANCH   4  22
TORSDOF 6
ENDMDL
MODEL 3
REMARK VINA RESULT:      -7.1      3.452      7.661
REMARK  6 active torsions:
REMARK  status: ('A' for Active; 'I' for Inactive)
REMARK    1  A    between atoms: C_2  and  C_3 
REMARK    2  A    between atoms: C_3  and  C_4 
REMARK    3  A    between atoms: C_4  and  N_5 
REMARK       I    between atoms: N_5  and  C_6 
REMARK       I    between atoms: C_6  and  N_7 
REMARK    4  A    between atoms: N_7  and  C_8 
REMARK    5  A    between atoms: N_11  and  C_12 
REMARK    6  A    between atoms: C_15  and  O_16 
ROOT
HETATM    1  C   UNL     1     -44.230  58.383 -52.349  1.00  0.00     0.123 C 
HETATM    2  C   UNL     1     -43.755  57.002 -52.081  1.00  0.00     0.009 A 
HETATM    3  C   UNL     1     -42.963  56.256 -52.936  1.00  0.00     0.047 A 
HETATM    4  N   UNL     1     -42.596  55.109 -52.234  1.00  0.00    -0.238 N 
HETATM    5  N   UNL     1     -43.243  55.068 -51.030  1.00  0.00    -0.179 NA
HETATM    6  C   UNL     1     -43.917  56.208 -50.944  1.00  0.00     0.150 A 
HETATM    7  C   UNL     1     -42.566  56.681 -54.312  1.00  0.00     0.069 C 
HETATM    8  C   UNL     1     -42.920  58.176 -54.616  1.00  0.00    -0.040 C 
HETATM    9  C   UNL     1     -43.175  58.317 -56.133  1.00  0.00     0.015 C 
HETATM   10  C   UNL     1     -41.710  59.069 -54.270  1.00  0.00     0.015 C 
HETATM   11  C   UNL     1     -44.200  58.666 -53.864  1.00  0.00     0.039 C 
ENDROOT
BRANCH   1  12
HETATM   12  N   UNL     1     -43.364  59.257 -51.577  1.00  0.00    -0.334 N 
HETATM   13  C   UNL     1     -43.631  60.234 -50.687  1.00  0.00     0.316 C 
HETATM   14  N   UNL     1     -44.930  60.606 -50.546  1.00  0.00    -0.343 N 
HETATM   15  O   UNL     1     -42.702  60.737 -50.066  1.00  0.00    -0.247 OA
HETATM   16  H   UNL     1     -45.632  59.977 -50.896  1.00  0.00     0.164 HD
HETATM   17  H   UNL     1     -42.367  59.079 -51.628  1.00  0.00     0.165 HD
BRANCH  14  18
HETATM   18  C   UNL     1     -45.341  61.511 -49.490  1.00  0.00     0.124 C 
BRANCH  18  19
HETATM   19  C   UNL     1     -45.527  60.879 -48.106  1.00  0.00     0.019 C 
BRANCH  19  20
HETATM   20  C   UNL     1     -45.003  61.713 -46.935  1.00  0.00    -0.003 C 
HETATM   21  C   UNL     1     -44.890  60.946 -45.628  1.00  0.00     0.005 C 
ENDBRANCH  19  20
ENDBRANCH  18  19
ENDBRANCH  14  18
ENDBRANCH   1  12
BRANCH   4  22
HETATM   22  C   UNL     1     -41.649  54.080 -52.531  1.00  0.00     0.058 A 
HETATM   23  C   UNL     1     -41.660  53.515 -53.819  1.00  0.00     0.034 A 
HETATM   24  C   UNL     1     -40.833  52.434 -54.136  1.00  0.00     0.039 A 
HETATM   25  C   UNL     1     -39.976  51.897 -53.180  1.00  0.00     0.068 A 
HETATM   26  C   UNL     1     -39.913  52.487 -51.919  1.00  0.00     0.039 A 
HETATM   27  C   UNL     1     -40.741  53.576 -51.596  1.00  0.00     0.034 A 
BRANCH  25  28
HETATM   28  O   UNL     1     -39.248  50.819 -53.598  1.00  0.00    -0.356 OA
HETATM   29  C   UNL     1     -39.910  49.907 -54.466  1.00  0.00     0.210 C 
ENDBRANCH  25  28
ENDBRANCH   4  22
TORSDOF 6
ENDMDL
MODEL 4
REMARK VINA RESULT:      -7.0      2.929      7.628
REMARK  6 active torsions:
REMARK  status: ('A' for Active; 'I' for Inactive)
REMARK    1  A    between atoms: C_2  and  C_3 
REMARK    2  A    between atoms: C_3  and  C_4 
REMARK    3  A    between atoms: C_4  and  N_5 
REMARK       I    between atoms: N_5  and  C_6 
REMARK       I    between atoms: C_6  and  N_7 
REMARK    4  A    between atoms: N_7  and  C_8 
REMARK    5  A    between atoms: N_11  and  C_12 
REMARK    6  A    between atoms: C_15  and  O_16 
ROOT
HETATM    1  C   UNL     1     -43.950  58.809 -57.079  1.00  0.00     0.123 C 
HETATM    2  C   UNL     1     -43.240  57.526 -56.841  1.00  0.00     0.009 A 
HETATM    3  C   UNL     1     -42.569  57.195 -55.676  1.00  0.00     0.047 A 
HETATM    4  N   UNL     1     -42.212  55.853 -55.796  1.00  0.00    -0.238 N 
HETATM    5  N   UNL     1     -42.526  55.392 -57.044  1.00  0.00    -0.179 NA
HETATM    6  C   UNL     1     -43.152  56.392 -57.651  1.00  0.00     0.150 A 
HETATM    7  C   UNL     1     -42.355  58.125 -54.528  1.00  0.00     0.069 C 
HETATM    8  C   UNL     1     -43.183  59.448 -54.650  1.00  0.00    -0.040 C 
HETATM    9  C   UNL     1     -42.412  60.574 -53.923  1.00  0.00     0.015 C 
HETATM   10  C   UNL     1     -44.533  59.276 -53.924  1.00  0.00     0.015 C 
HETATM   11  C   UNL     1     -43.406  59.896 -56.131  1.00  0.00     0.039 C 
ENDROOT
BRANCH   1  12
HETATM   12  N   UNL     1     -45.361  58.523 -56.885  1.00  0.00    -0.334 N 
HETATM   13  C   UNL     1     -46.336  58.171 -57.747  1.00  0.00     0.316 C 
HETATM   14  N   UNL     1     -46.036  58.208 -59.072  1.00  0.00    -0.343 N 
HETATM   15  O   UNL     1     -47.432  57.851 -57.302  1.00  0.00    -0.247 OA
HETATM   16  H   UNL     1     -45.063  58.231 -59.325  1.00  0.00     0.164 HD
HETATM   17  H   UNL     1     -45.697  58.491 -55.929  1.00  0.00     0.165 HD
BRANCH  14  18
HETATM   18  C   UNL     1     -46.950  57.676 -60.064  1.00  0.00     0.124 C 
BRANCH  18  19
HETATM   19  C   UNL     1     -46.773  56.193 -60.405  1.00  0.00     0.019 C 
BRANCH  19  20
HETATM   20  C   UNL     1     -45.334  55.761 -60.699  1.00  0.00    -0.003 C 
HETATM   21  C   UNL     1     -44.948  54.427 -60.081  1.00  0.00     0.005 C 
ENDBRANCH  19  20
ENDBRANCH  18  19
ENDBRANCH  14  18
ENDBRANCH   1  12
BRANCH   4  22
HETATM   22  C   UNL     1     -41.675  54.929 -54.846  1.00  0.00     0.058 A 
HETATM   23  C   UNL     1     -40.494  54.242 -55.177  1.00  0.00     0.034 A 
HETATM   24  C   UNL     1     -39.981  53.249 -54.338  1.00  0.00     0.039 A 
HETATM   25  C   UNL     1     -40.631  52.923 -53.151  1.00  0.00     0.068 A 
HETATM   26  C   UNL     1     -41.768  53.640 -52.783  1.00  0.00     0.039 A 
HETATM   27  C   UNL     1     -42.286  54.640 -53.623  1.00  0.00     0.034 A 
BRANCH  25  28
HETATM   28  O   UNL     1     -40.054  51.911 -52.437  1.00  0.00    -0.356 OA
HETATM   29  C   UNL     1     -39.686  50.749 -53.170  1.00  0.00     0.210 C 
ENDBRANCH  25  28
ENDBRANCH   4  22
TORSDOF 6
ENDMDL
MODEL 5
REMARK VINA RESULT:      -7.0     14.549     16.871
REMARK  6 active torsions:
REMARK  status: ('A' for Active; 'I' for Inactive)
REMARK    1  A    between atoms: C_2  and  C_3 
REMARK    2  A    between atoms: C_3  and  C_4 
REMARK    3  A    between atoms: C_4  and  N_5 
REMARK       I    between atoms: N_5  and  C_6 
REMARK       I    between atoms: C_6  and  N_7 
REMARK    4  A    between atoms: N_7  and  C_8 
REMARK    5  A    between atoms: N_11  and  C_12 
REMARK    6  A    between atoms: C_15  and  O_16 
ROOT
HETATM    1  C   UNL     1     -35.043  41.883 -55.874  1.00  0.00     0.123 C 
HETATM    2  C   UNL     1     -35.802  41.669 -57.132  1.00  0.00     0.009 A 
HETATM    3  C   UNL     1     -35.932  40.455 -57.785  1.00  0.00     0.047 A 
HETATM    4  N   UNL     1     -36.862  40.652 -58.803  1.00  0.00    -0.238 N 
HETATM    5  N   UNL     1     -37.206  41.973 -58.877  1.00  0.00    -0.179 NA
HETATM    6  C   UNL     1     -36.581  42.566 -57.867  1.00  0.00     0.150 A 
HETATM    7  C   UNL     1     -35.227  39.200 -57.387  1.00  0.00     0.069 C 
HETATM    8  C   UNL     1     -34.512  39.314 -55.998  1.00  0.00    -0.040 C 
HETATM    9  C   UNL     1     -33.289  38.370 -56.001  1.00  0.00     0.015 C 
HETATM   10  C   UNL     1     -35.466  38.824 -54.889  1.00  0.00     0.015 C 
HETATM   11  C   UNL     1     -34.004  40.759 -55.689  1.00  0.00     0.039 C 
ENDROOT
BRANCH   1  12
HETATM   12  N   UNL     1     -36.036  41.936 -54.816  1.00  0.00    -0.334 N 
HETATM   13  C   UNL     1     -35.921  41.965 -53.473  1.00  0.00     0.316 C 
HETATM   14  N   UNL     1     -34.680  41.774 -52.952  1.00  0.00    -0.343 N 
HETATM   15  O   UNL     1     -36.927  42.148 -52.797  1.00  0.00    -0.247 OA
HETATM   16  H   UNL     1     -33.897  41.888 -53.572  1.00  0.00     0.164 HD
HETATM   17  H   UNL     1     -37.003  42.057 -55.097  1.00  0.00     0.165 HD
BRANCH  14  18
HETATM   18  C   UNL     1     -34.422  41.969 -51.539  1.00  0.00     0.124 C 
BRANCH  18  19
HETATM   19  C   UNL     1     -33.405  41.012 -50.909  1.00  0.00     0.019 C 
BRANCH  19  20
HETATM   20  C   UNL     1     -32.225  40.634 -51.807  1.00  0.00    -0.003 C 
HETATM   21  C   UNL     1     -32.165  39.159 -52.166  1.00  0.00     0.005 C 
ENDBRANCH  19  20
ENDBRANCH  18  19
ENDBRANCH  14  18
ENDBRANCH   1  12
BRANCH   4  22
HETATM   22  C   UNL     1     -37.526  39.728 -59.670  1.00  0.00     0.058 A 
HETATM   23  C   UNL     1     -37.021  39.554 -60.971  1.00  0.00     0.034 A 
HETATM   24  C   UNL     1     -37.687  38.749 -61.898  1.00  0.00     0.039 A 
HETATM   25  C   UNL     1     -38.866  38.097 -61.548  1.00  0.00     0.068 A 
HETATM   26  C   UNL     1     -39.343  38.214 -60.244  1.00  0.00     0.039 A 
HETATM   27  C   UNL     1     -38.675  39.022 -59.307  1.00  0.00     0.034 A 
BRANCH  25  28
HETATM   28  O   UNL     1     -39.444  37.372 -62.552  1.00  0.00    -0.356 OA
HETATM   29  C   UNL     1     -40.724  37.809 -62.993  1.00  0.00     0.210 C 
ENDBRANCH  25  28
ENDBRANCH   4  22
TORSDOF 6
ENDMDL
MODEL 6
REMARK VINA RESULT:      -7.0     14.701     17.153
REMARK  6 active torsions:
REMARK  status: ('A' for Active; 'I' for Inactive)
REMARK    1  A    between atoms: C_2  and  C_3 
REMARK    2  A    between atoms: C_3  and  C_4 
REMARK    3  A    between atoms: C_4  and  N_5 
REMARK       I    between atoms: N_5  and  C_6 
REMARK       I    between atoms: C_6  and  N_7 
REMARK    4  A    between atoms: N_7  and  C_8 
REMARK    5  A    between atoms: N_11  and  C_12 
REMARK    6  A    between atoms: C_15  and  O_16 
ROOT
HETATM    1  C   UNL     1     -33.287  40.313 -50.923  1.00  0.00     0.123 C 
HETATM    2  C   UNL     1     -34.076  41.107 -51.899  1.00  0.00     0.009 A 
HETATM    3  C   UNL     1     -34.163  40.838 -53.254  1.00  0.00     0.047 A 
HETATM    4  N   UNL     1     -35.137  41.695 -53.764  1.00  0.00    -0.238 N 
HETATM    5  N   UNL     1     -35.552  42.565 -52.795  1.00  0.00    -0.179 NA
HETATM    6  C   UNL     1     -34.925  42.194 -51.685  1.00  0.00     0.150 A 
HETATM    7  C   UNL     1     -33.379  39.781 -53.961  1.00  0.00     0.069 C 
HETATM    8  C   UNL     1     -32.625  38.821 -52.981  1.00  0.00    -0.040 C 
HETATM    9  C   UNL     1     -31.354  38.301 -53.690  1.00  0.00     0.015 C 
HETATM   10  C   UNL     1     -33.514  37.597 -52.678  1.00  0.00     0.015 C 
HETATM   11  C   UNL     1     -32.184  39.523 -51.656  1.00  0.00     0.039 C 
ENDROOT
BRANCH   1  12
HETATM   12  N   UNL     1     -34.245  39.468 -50.232  1.00  0.00    -0.334 N 
HETATM   13  C   UNL     1     -34.161  38.759 -49.089  1.00  0.00     0.316 C 
HETATM   14  N   UNL     1     -32.938  38.669 -48.502  1.00  0.00    -0.343 N 
HETATM   15  O   UNL     1     -35.173  38.228 -48.647  1.00  0.00    -0.247 OA
HETATM   16  H   UNL     1     -32.239  39.334 -48.788  1.00  0.00     0.164 HD
HETATM   17  H   UNL     1     -35.189  39.445 -50.602  1.00  0.00     0.165 HD
BRANCH  14  18
HETATM   18  C   UNL     1     -32.779  38.089 -47.183  1.00  0.00     0.124 C 
BRANCH  18  19
HETATM   19  C   UNL     1     -31.618  38.640 -46.349  1.00  0.00     0.019 C 
BRANCH  19  20
HETATM   20  C   UNL     1     -30.746  39.680 -47.054  1.00  0.00    -0.003 C 
HETATM   21  C   UNL     1     -29.958  40.573 -46.111  1.00  0.00     0.005 C 
ENDBRANCH  19  20
ENDBRANCH  18  19
ENDBRANCH  14  18
ENDBRANCH   1  12
BRANCH   4  22
HETATM   22  C   UNL     1     -35.779  41.744 -55.041  1.00  0.00     0.058 A 
HETATM   23  C   UNL     1     -37.116  41.318 -55.131  1.00  0.00     0.034 A 
HETATM   24  C   UNL     1     -37.762  41.240 -56.368  1.00  0.00     0.039 A 
HETATM   25  C   UNL     1     -37.094  41.591 -57.537  1.00  0.00     0.068 A 
HETATM   26  C   UNL     1     -35.789  42.073 -57.452  1.00  0.00     0.039 A 
HETATM   27  C   UNL     1     -35.135  42.154 -56.211  1.00  0.00     0.034 A 
BRANCH  25  28
HETATM   28  O   UNL     1     -37.819  41.436 -58.685  1.00  0.00    -0.356 OA
HETATM   29  C   UNL     1     -37.359  42.152 -59.825  1.00  0.00     0.210 C 
ENDBRANCH  25  28
ENDBRANCH   4  22
TORSDOF 6
ENDMDL
MODEL 7
REMARK VINA RESULT:      -6.9      3.635      7.772
REMARK  6 active torsions:
REMARK  status: ('A' for Active; 'I' for Inactive)
REMARK    1  A    between atoms: C_2  and  C_3 
REMARK    2  A    between atoms: C_3  and  C_4 
REMARK    3  A    between atoms: C_4  and  N_5 
REMARK       I    between atoms: N_5  and  C_6 
REMARK       I    between atoms: C_6  and  N_7 
REMARK    4  A    between atoms: N_7  and  C_8 
REMARK    5  A    between atoms: N_11  and  C_12 
REMARK    6  A    between atoms: C_15  and  O_16 
ROOT
HETATM    1  C   UNL     1     -43.321  59.058 -52.251  1.00  0.00     0.123 C 
HETATM    2  C   UNL     1     -43.038  57.732 -52.856  1.00  0.00     0.009 A 
HETATM    3  C   UNL     1     -41.877  57.003 -52.663  1.00  0.00     0.047 A 
HETATM    4  N   UNL     1     -42.093  55.756 -53.247  1.00  0.00    -0.238 N 
HETATM    5  N   UNL     1     -43.292  55.745 -53.902  1.00  0.00    -0.179 NA
HETATM    6  C   UNL     1     -43.853  56.921 -53.649  1.00  0.00     0.150 A 
HETATM    7  C   UNL     1     -40.683  57.495 -51.913  1.00  0.00     0.069 C 
HETATM    8  C   UNL     1     -40.953  58.828 -51.138  1.00  0.00    -0.040 C 
HETATM    9  C   UNL     1     -39.625  59.612 -51.038  1.00  0.00     0.015 C 
HETATM   10  C   UNL     1     -41.402  58.502 -49.698  1.00  0.00     0.015 C 
HETATM   11  C   UNL     1     -42.001  59.746 -51.847  1.00  0.00     0.039 C 
ENDROOT
BRANCH   1  12
HETATM   12  N   UNL     1     -44.209  58.802 -51.131  1.00  0.00    -0.334 N 
HETATM   13  C   UNL     1     -45.108  59.581 -50.496  1.00  0.00     0.316 C 
HETATM   14  N   UNL     1     -45.136  60.897 -50.834  1.00  0.00    -0.343 N 
HETATM   15  O   UNL     1     -45.837  59.074 -49.651  1.00  0.00    -0.247 OA
HETATM   16  H   UNL     1     -44.693  61.162 -51.697  1.00  0.00     0.164 HD
HETATM   17  H   UNL     1     -44.249  57.850 -50.784  1.00  0.00     0.165 HD
BRANCH  14  18
HETATM   18  C   UNL     1     -46.183  61.774 -50.347  1.00  0.00     0.124 C 
BRANCH  18  19
HETATM   19  C   UNL     1     -45.719  62.946 -49.475  1.00  0.00     0.019 C 
BRANCH  19  20
HETATM   20  C   UNL     1     -44.775  62.571 -48.331  1.00  0.00    -0.003 C 
HETATM   21  C   UNL     1     -45.424  61.739 -47.238  1.00  0.00     0.005 C 
ENDBRANCH  19  20
ENDBRANCH  18  19
ENDBRANCH  14  18
ENDBRANCH   1  12
BRANCH   4  22
HETATM   22  C   UNL     1     -41.334  54.545 -53.199  1.00  0.00     0.058 A 
HETATM   23  C   UNL     1     -41.005  53.916 -54.412  1.00  0.00     0.034 A 
HETATM   24  C   UNL     1     -40.360  52.676 -54.426  1.00  0.00     0.039 A 
HETATM   25  C   UNL     1     -40.026  52.041 -53.234  1.00  0.00     0.068 A 
HETATM   26  C   UNL     1     -40.293  52.683 -52.026  1.00  0.00     0.039 A 
HETATM   27  C   UNL     1     -40.940  53.931 -52.007  1.00  0.00     0.034 A 
BRANCH  25  28
HETATM   28  O   UNL     1     -39.434  50.818 -53.378  1.00  0.00    -0.356 OA
HETATM   29  C   UNL     1     -39.925  49.998 -54.432  1.00  0.00     0.210 C 
ENDBRANCH  25  28
ENDBRANCH   4  22
TORSDOF 6
ENDMDL
MODEL 8
REMARK VINA RESULT:      -6.8      3.049      5.993
REMARK  6 active torsions:
REMARK  status: ('A' for Active; 'I' for Inactive)
REMARK    1  A    between atoms: C_2  and  C_3 
REMARK    2  A    between atoms: C_3  and  C_4 
REMARK    3  A    between atoms: C_4  and  N_5 
REMARK       I    between atoms: N_5  and  C_6 
REMARK       I    between atoms: C_6  and  N_7 
REMARK    4  A    between atoms: N_7  and  C_8 
REMARK    5  A    between atoms: N_11  and  C_12 
REMARK    6  A    between atoms: C_15  and  O_16 
ROOT
HETATM    1  C   UNL     1     -41.517  56.988 -53.418  1.00  0.00     0.123 C 
HETATM    2  C   UNL     1     -41.964  57.360 -54.784  1.00  0.00     0.009 A 
HETATM    3  C   UNL     1     -42.367  56.464 -55.759  1.00  0.00     0.047 A 
HETATM    4  N   UNL     1     -42.875  57.226 -56.809  1.00  0.00    -0.238 N 
HETATM    5  N   UNL     1     -42.676  58.556 -56.565  1.00  0.00    -0.179 NA
HETATM    6  C   UNL     1     -42.148  58.624 -55.349  1.00  0.00     0.150 A 
HETATM    7  C   UNL     1     -42.298  54.978 -55.625  1.00  0.00     0.069 C 
HETATM    8  C   UNL     1     -41.960  54.511 -54.169  1.00  0.00    -0.040 C 
HETATM    9  C   UNL     1     -41.213  53.161 -54.252  1.00  0.00     0.015 C 
HETATM   10  C   UNL     1     -43.270  54.262 -53.394  1.00  0.00     0.015 C 
HETATM   11  C   UNL     1     -41.047  55.519 -53.399  1.00  0.00     0.039 C 
ENDROOT
BRANCH   1  12
HETATM   12  N   UNL     1     -42.649  57.247 -52.546  1.00  0.00    -0.334 N 
HETATM   13  C   UNL     1     -42.869  58.195 -51.613  1.00  0.00     0.316 C 
HETATM   14  N   UNL     1     -41.824  59.002 -51.289  1.00  0.00    -0.343 N 
HETATM   15  O   UNL     1     -43.981  58.276 -51.103  1.00  0.00    -0.247 OA
HETATM   16  H   UNL     1     -41.048  59.031 -51.927  1.00  0.00     0.164 HD
HETATM   17  H   UNL     1     -43.479  56.683 -52.690  1.00  0.00     0.165 HD
BRANCH  14  18
HETATM   18  C   UNL     1     -42.008  60.162 -50.439  1.00  0.00     0.124 C 
BRANCH  18  19
HETATM   19  C   UNL     1     -42.711  61.358 -51.087  1.00  0.00     0.019 C 
BRANCH  19  20
HETATM   20  C   UNL     1     -43.602  62.176 -50.149  1.00  0.00    -0.003 C 
HETATM   21  C   UNL     1     -44.313  61.348 -49.091  1.00  0.00     0.005 C 
ENDBRANCH  19  20
ENDBRANCH  18  19
ENDBRANCH  14  18
ENDBRANCH   1  12
BRANCH   4  22
HETATM   22  C   UNL     1     -43.596  56.853 -57.987  1.00  0.00     0.058 A 
HETATM   23  C   UNL     1     -44.791  57.533 -58.281  1.00  0.00     0.034 A 
HETATM   24  C   UNL     1     -45.594  57.141 -59.356  1.00  0.00     0.039 A 
HETATM   25  C   UNL     1     -45.220  56.070 -60.162  1.00  0.00     0.068 A 
HETATM   26  C   UNL     1     -44.008  55.428 -59.917  1.00  0.00     0.039 A 
HETATM   27  C   UNL     1     -43.197  55.819 -58.838  1.00  0.00     0.034 A 
BRANCH  25  28
HETATM   28  O   UNL     1     -46.106  55.760 -61.156  1.00  0.00    -0.356 OA
HETATM   29  C   UNL     1     -47.380  56.389 -61.086  1.00  0.00     0.210 C 
ENDBRANCH  25  28
ENDBRANCH   4  22
TORSDOF 6
ENDMDL
MODEL 9
REMARK VINA RESULT:      -6.8      2.317      7.349
REMARK  6 active torsions:
REMARK  status: ('A' for Active; 'I' for Inactive)
REMARK    1  A    between atoms: C_2  and  C_3 
REMARK    2  A    between atoms: C_3  and  C_4 
REMARK    3  A    between atoms: C_4  and  N_5 
REMARK       I    between atoms: N_5  and  C_6 
REMARK       I    between atoms: C_6  and  N_7 
REMARK    4  A    between atoms: N_7  and  C_8 
REMARK    5  A    between atoms: N_11  and  C_12 
REMARK    6  A    between atoms: C_15  and  O_16 
ROOT
HETATM    1  C   UNL     1     -42.356  58.428 -54.818  1.00  0.00     0.123 C 
HETATM    2  C   UNL     1     -41.815  57.045 -54.800  1.00  0.00     0.009 A 
HETATM    3  C   UNL     1     -41.315  56.403 -53.680  1.00  0.00     0.047 A 
HETATM    4  N   UNL     1     -41.090  55.079 -54.053  1.00  0.00    -0.238 N 
HETATM    5  N   UNL     1     -41.312  54.923 -55.392  1.00  0.00    -0.179 NA
HETATM    6  C   UNL     1     -41.759  56.096 -55.823  1.00  0.00     0.150 A 
HETATM    7  C   UNL     1     -41.131  57.047 -52.346  1.00  0.00     0.069 C 
HETATM    8  C   UNL     1     -41.797  58.461 -52.252  1.00  0.00    -0.040 C 
HETATM    9  C   UNL     1     -40.997  59.311 -51.239  1.00  0.00     0.015 C 
HETATM   10  C   UNL     1     -43.230  58.318 -51.698  1.00  0.00     0.015 C 
HETATM   11  C   UNL     1     -41.808  59.224 -53.617  1.00  0.00     0.039 C 
ENDROOT
BRANCH   1  12
HETATM   12  N   UNL     1     -43.802  58.288 -54.811  1.00  0.00    -0.334 N 
HETATM   13  C   UNL     1     -44.696  58.119 -55.806  1.00  0.00     0.316 C 
HETATM   14  N   UNL     1     -44.234  58.227 -57.080  1.00  0.00    -0.343 N 
HETATM   15  O   UNL     1     -45.865  57.890 -55.517  1.00  0.00    -0.247 OA
HETATM   16  H   UNL     1     -43.241  58.159 -57.218  1.00  0.00     0.164 HD
HETATM   17  H   UNL     1     -44.253  58.219 -53.906  1.00  0.00     0.165 HD
BRANCH  14  18
HETATM   18  C   UNL     1     -45.071  57.881 -58.212  1.00  0.00     0.124 C 
BRANCH  18  19
HETATM   19  C   UNL     1     -44.346  57.262 -59.412  1.00  0.00     0.019 C 
BRANCH  19  20
HETATM   20  C   UNL     1     -44.136  55.748 -59.334  1.00  0.00    -0.003 C 
HETATM   21  C   UNL     1     -44.746  54.976 -60.493  1.00  0.00     0.005 C 
ENDBRANCH  19  20
ENDBRANCH  18  19
ENDBRANCH  14  18
ENDBRANCH   1  12
BRANCH   4  22
HETATM   22  C   UNL     1     -40.761  53.922 -53.279  1.00  0.00     0.058 A 
HETATM   23  C   UNL     1     -40.911  53.988 -51.883  1.00  0.00     0.034 A 
HETATM   24  C   UNL     1     -40.504  52.930 -51.066  1.00  0.00     0.039 A 
HETATM   25  C   UNL     1     -39.946  51.782 -51.623  1.00  0.00     0.068 A 
HETATM   26  C   UNL     1     -39.850  51.681 -53.009  1.00  0.00     0.039 A 
HETATM   27  C   UNL     1     -40.258  52.742 -53.835  1.00  0.00     0.034 A 
BRANCH  25  28
HETATM   28  O   UNL     1     -39.554  50.835 -50.720  1.00  0.00    -0.356 OA
HETATM   29  C   UNL     1     -39.596  49.484 -51.162  1.00  0.00     0.210 C 
ENDBRANCH  25  28
ENDBRANCH   4  22
TORSDOF 6
ENDMDL
MODEL 10
REMARK VINA RESULT:      -6.7     14.712     16.099
REMARK  6 active torsions:
REMARK  status: ('A' for Active; 'I' for Inactive)
REMARK    1  A    between atoms: C_2  and  C_3 
REMARK    2  A    between atoms: C_3  and  C_4 
REMARK    3  A    between atoms: C_4  and  N_5 
REMARK       I    between atoms: N_5  and  C_6 
REMARK       I    between atoms: C_6  and  N_7 
REMARK    4  A    between atoms: N_7  and  C_8 
REMARK    5  A    between atoms: N_11  and  C_12 
REMARK    6  A    between atoms: C_15  and  O_16 
ROOT
HETATM    1  C   UNL     1     -36.961  40.055 -50.826  1.00  0.00     0.123 C 
HETATM    2  C   UNL     1     -37.490  40.597 -52.103  1.00  0.00     0.009 A 
HETATM    3  C   UNL     1     -36.728  40.872 -53.226  1.00  0.00     0.047 A 
HETATM    4  N   UNL     1     -37.626  41.181 -54.246  1.00  0.00    -0.238 N 
HETATM    5  N   UNL     1     -38.899  41.233 -53.752  1.00  0.00    -0.179 NA
HETATM    6  C   UNL     1     -38.808  40.868 -52.479  1.00  0.00     0.150 A 
HETATM    7  C   UNL     1     -35.238  40.778 -53.282  1.00  0.00     0.069 C 
HETATM    8  C   UNL     1     -34.620  40.091 -52.018  1.00  0.00    -0.040 C 
HETATM    9  C   UNL     1     -33.202  40.663 -51.797  1.00  0.00     0.015 C 
HETATM   10  C   UNL     1     -34.468  38.578 -52.280  1.00  0.00     0.015 C 
HETATM   11  C   UNL     1     -35.449  40.344 -50.718  1.00  0.00     0.039 C 
ENDROOT
BRANCH   1  12
HETATM   12  N   UNL     1     -37.282  38.639 -50.833  1.00  0.00    -0.334 N 
HETATM   13  C   UNL     1     -38.291  37.942 -50.273  1.00  0.00     0.316 C 
HETATM   14  N   UNL     1     -39.112  38.612 -49.422  1.00  0.00    -0.343 N 
HETATM   15  O   UNL     1     -38.410  36.753 -50.546  1.00  0.00    -0.247 OA
HETATM   16  H   UNL     1     -39.095  39.617 -49.460  1.00  0.00     0.164 HD
HETATM   17  H   UNL     1     -36.714  38.041 -51.422  1.00  0.00     0.165 HD
BRANCH  14  18
HETATM   18  C   UNL     1     -40.327  38.003 -48.916  1.00  0.00     0.124 C 
BRANCH  18  19
HETATM   19  C   UNL     1     -41.636  38.550 -49.494  1.00  0.00     0.019 C 
BRANCH  19  20
HETATM   20  C   UNL     1     -41.914  38.169 -50.949  1.00  0.00    -0.003 C 
HETATM   21  C   UNL     1     -42.051  39.357 -51.887  1.00  0.00     0.005 C 
ENDBRANCH  19  20
ENDBRANCH  18  19
ENDBRANCH  14  18
ENDBRANCH   1  12
BRANCH   4  22
HETATM   22  C   UNL     1     -37.435  41.362 -55.652  1.00  0.00     0.058 A 
HETATM   23  C   UNL     1     -38.302  40.693 -56.534  1.00  0.00     0.034 A 
HETATM   24  C   UNL     1     -38.099  40.744 -57.915  1.00  0.00     0.039 A 
HETATM   25  C   UNL     1     -37.034  41.465 -58.447  1.00  0.00     0.068 A 
HETATM   26  C   UNL     1     -36.205  42.180 -57.585  1.00  0.00     0.039 A 
HETATM   27  C   UNL     1     -36.405  42.134 -56.195  1.00  0.00     0.034 A 
BRANCH  25  28
HETATM   28  O   UNL     1     -36.920  41.406 -59.807  1.00  0.00    -0.356 OA
HETATM   29  C   UNL     1     -37.331  40.193 -60.425  1.00  0.00     0.210 C 
ENDBRANCH  25  28
ENDBRANCH   4  22
TORSDOF 6
ENDMDL
