MODEL 1
REMARK VINA RESULT:      -8.9      0.000      0.000
REMARK  6 active torsions:
REMARK  status: ('A' for Active; 'I' for Inactive)
REMARK    1  A    between atoms: C_9  and  N_10 
REMARK       I    between atoms: N_10  and  C_11 
REMARK    2  A    between atoms: C_11  and  C_12 
REMARK    3  A    between atoms: C_12  and  N_13 
REMARK    4  A    between atoms: C_12  and  C_21 
REMARK       I    between atoms: N_13  and  C_14 
REMARK    5  A    between atoms: C_14  and  C_15 
REMARK    6  A    between atoms: C_21  and  C_22 
ROOT
HETATM    1  C   UNL     1     -41.574  54.233 -54.404  1.00  0.00     0.181 C 
ENDROOT
BRANCH   1   2
HETATM    2  C   UNL     1     -42.619  54.592 -55.505  1.00  0.00     0.245 C 
HETATM    3  N   UNL     1     -42.349  55.759 -56.204  1.00  0.00    -0.325 N 
HETATM    4  H   UNL     1     -41.616  56.358 -55.857  1.00  0.00     0.169 HD
HETATM    5  O   UNL     1     -43.522  53.804 -55.786  1.00  0.00    -0.271 OA
BRANCH   3   6
HETATM    6  C   UNL     1     -42.999  56.239 -57.367  1.00  0.00     0.037 A 
HETATM    7  C   UNL     1     -43.873  57.334 -57.379  1.00  0.00     0.063 A 
HETATM    8  C   UNL     1     -44.502  57.694 -58.582  1.00  0.00     0.087 A 
HETATM    9  N   UNL     1     -45.407  58.698 -58.835  1.00  0.00    -0.234 NA
HETATM   10  C   UNL     1     -44.236  56.971 -59.737  1.00  0.00     0.062 A 
HETATM   11  C   UNL     1     -45.697  58.606 -60.115  1.00  0.00     0.101 A 
HETATM   12  C   UNL     1     -46.641  59.456 -60.876  1.00  0.00     0.091 C 
HETATM   13  N   UNL     1     -45.000  57.578 -60.701  1.00  0.00    -0.343 N 
HETATM   14  H   UNL     1     -45.052  57.308 -61.672  1.00  0.00     0.167 HD
HETATM   15  C   UNL     1     -43.364  55.886 -59.774  1.00  0.00     0.034 A 
HETATM   16  C   UNL     1     -42.757  55.533 -58.559  1.00  0.00     0.032 A 
ENDBRANCH   3   6
ENDBRANCH   1   2
BRANCH   1  17
HETATM   17  N   UNL     1     -41.186  55.447 -53.680  1.00  0.00    -0.343 N 
HETATM   18  C   UNL     1     -41.827  55.889 -52.543  1.00  0.00     0.259 C 
HETATM   19  O   UNL     1     -42.804  55.301 -52.085  1.00  0.00    -0.267 OA
HETATM   20  H   UNL     1     -40.296  55.875 -53.901  1.00  0.00     0.163 HD
BRANCH  18  21
HETATM   21  C   UNL     1     -41.299  57.111 -51.948  1.00  0.00     0.072 A 
HETATM   22  S   UNL     1     -40.799  58.453 -52.892  1.00  0.00    -0.097 SA
HETATM   23  C   UNL     1     -40.424  59.380 -51.505  1.00  0.00     0.050 A 
HETATM   24  C   UNL     1     -40.659  58.685 -50.341  1.00  0.00     0.009 A 
HETATM   25  C   UNL     1     -41.163  57.378 -50.597  1.00  0.00     0.025 A 
ENDBRANCH  18  21
ENDBRANCH   1  17
BRANCH   1  26
HETATM   26  C   UNL     1     -40.365  53.383 -54.851  1.00  0.00     0.073 C 
BRANCH  26  27
HETATM   27  C   UNL     1     -40.126  52.203 -53.930  1.00  0.00    -0.056 A 
HETATM   28  C   UNL     1     -39.905  52.403 -52.560  1.00  0.00     0.007 A 
HETATM   29  C   UNL     1     -39.630  51.321 -51.722  1.00  0.00     0.001 A 
HETATM   30  C   UNL     1     -39.566  50.031 -52.245  1.00  0.00     0.000 A 
HETATM   31  C   UNL     1     -39.788  49.820 -53.605  1.00  0.00     0.001 A 
HETATM   32  C   UNL     1     -40.073  50.899 -54.442  1.00  0.00     0.007 A 
ENDBRANCH  26  27
ENDBRANCH   1  26
TORSDOF 6
ENDMDL
MODEL 2
REMARK VINA RESULT:      -8.4      2.100      5.634
REMARK  6 active torsions:
REMARK  status: ('A' for Active; 'I' for Inactive)
REMARK    1  A    between atoms: C_9  and  N_10 
REMARK       I    between atoms: N_10  and  C_11 
REMARK    2  A    between atoms: C_11  and  C_12 
REMARK    3  A    between atoms: C_12  and  N_13 
REMARK    4  A    between atoms: C_12  and  C_21 
REMARK       I    between atoms: N_13  and  C_14 
REMARK    5  A    between atoms: C_14  and  C_15 
REMARK    6  A    between atoms: C_21  and  C_22 
ROOT
HETATM    1  C   UNL     1     -41.409  55.422 -52.551  1.00  0.00     0.181 C 
ENDROOT
BRANCH   1   2
HETATM    2  C   UNL     1     -42.440  55.709 -53.686  1.00  0.00     0.245 C 
HETATM    3  N   UNL     1     -41.890  56.205 -54.859  1.00  0.00    -0.325 N 
HETATM    4  H   UNL     1     -40.923  56.491 -54.843  1.00  0.00     0.169 HD
HETATM    5  O   UNL     1     -43.619  55.380 -53.552  1.00  0.00    -0.271 OA
BRANCH   3   6
HETATM    6  C   UNL     1     -42.534  56.381 -56.108  1.00  0.00     0.037 A 
HETATM    7  C   UNL     1     -42.949  55.326 -56.930  1.00  0.00     0.063 A 
HETATM    8  C   UNL     1     -43.535  55.617 -58.174  1.00  0.00     0.087 A 
HETATM    9  N   UNL     1     -43.991  54.765 -59.151  1.00  0.00    -0.234 NA
HETATM   10  C   UNL     1     -43.705  56.940 -58.557  1.00  0.00     0.062 A 
HETATM   11  C   UNL     1     -44.436  55.535 -60.120  1.00  0.00     0.101 A 
HETATM   12  C   UNL     1     -45.017  55.096 -61.409  1.00  0.00     0.091 C 
HETATM   13  N   UNL     1     -44.290  56.862 -59.795  1.00  0.00    -0.343 N 
HETATM   14  H   UNL     1     -44.558  57.644 -60.375  1.00  0.00     0.167 HD
HETATM   15  C   UNL     1     -43.320  58.019 -57.766  1.00  0.00     0.034 A 
HETATM   16  C   UNL     1     -42.725  57.708 -56.534  1.00  0.00     0.032 A 
ENDBRANCH   3   6
ENDBRANCH   1   2
BRANCH   1  17
HETATM   17  N   UNL     1     -41.045  54.002 -52.567  1.00  0.00    -0.343 N 
HETATM   18  C   UNL     1     -40.311  53.419 -53.578  1.00  0.00     0.259 C 
HETATM   19  O   UNL     1     -39.948  54.059 -54.562  1.00  0.00    -0.267 OA
HETATM   20  H   UNL     1     -41.161  53.466 -51.717  1.00  0.00     0.163 HD
BRANCH  18  21
HETATM   21  C   UNL     1     -40.032  51.997 -53.423  1.00  0.00     0.072 A 
HETATM   22  S   UNL     1     -39.564  51.308 -51.923  1.00  0.00    -0.097 SA
HETATM   23  C   UNL     1     -39.518  49.730 -52.580  1.00  0.00     0.050 A 
HETATM   24  C   UNL     1     -39.839  49.718 -53.918  1.00  0.00     0.009 A 
HETATM   25  C   UNL     1     -40.134  51.025 -54.403  1.00  0.00     0.025 A 
ENDBRANCH  18  21
ENDBRANCH   1  17
BRANCH   1  26
HETATM   26  C   UNL     1     -41.771  55.938 -51.142  1.00  0.00     0.073 C 
BRANCH  26  27
HETATM   27  C   UNL     1     -41.777  57.452 -51.073  1.00  0.00    -0.056 A 
HETATM   28  C   UNL     1     -40.624  58.150 -50.685  1.00  0.00     0.007 A 
HETATM   29  C   UNL     1     -40.646  59.541 -50.568  1.00  0.00     0.001 A 
HETATM   30  C   UNL     1     -41.820  60.246 -50.829  1.00  0.00     0.000 A 
HETATM   31  C   UNL     1     -42.970  59.562 -51.219  1.00  0.00     0.001 A 
HETATM   32  C   UNL     1     -42.947  58.173 -51.346  1.00  0.00     0.007 A 
ENDBRANCH  26  27
ENDBRANCH   1  26
TORSDOF 6
ENDMDL
MODEL 3
REMARK VINA RESULT:      -8.2      1.839      5.257
REMARK  6 active torsions:
REMARK  status: ('A' for Active; 'I' for Inactive)
REMARK    1  A    between atoms: C_9  and  N_10 
REMARK       I    between atoms: N_10  and  C_11 
REMARK    2  A    between atoms: C_11  and  C_12 
REMARK    3  A    between atoms: C_12  and  N_13 
REMARK    4  A    between atoms: C_12  and  C_21 
REMARK       I    between atoms: N_13  and  C_14 
REMARK    5  A    between atoms: C_14  and  C_15 
REMARK    6  A    between atoms: C_21  and  C_22 
ROOT
HETATM    1  C   UNL     1     -42.102  55.383 -52.848  1.00  0.00     0.181 C 
ENDROOT
BRANCH   1   2
HETATM    2  C   UNL     1     -43.065  55.556 -54.063  1.00  0.00     0.245 C 
HETATM    3  N   UNL     1     -42.616  56.431 -55.041  1.00  0.00    -0.325 N 
HETATM    4  H   UNL     1     -41.810  56.999 -54.832  1.00  0.00     0.169 HD
HETATM    5  O   UNL     1     -44.069  54.850 -54.166  1.00  0.00    -0.271 OA
BRANCH   3   6
HETATM    6  C   UNL     1     -43.170  56.648 -56.326  1.00  0.00     0.037 A 
HETATM    7  C   UNL     1     -43.992  57.734 -56.650  1.00  0.00     0.063 A 
HETATM    8  C   UNL     1     -44.528  57.825 -57.946  1.00  0.00     0.087 A 
HETATM    9  N   UNL     1     -45.369  58.768 -58.486  1.00  0.00    -0.234 NA
HETATM   10  C   UNL     1     -44.222  56.846 -58.883  1.00  0.00     0.062 A 
HETATM   11  C   UNL     1     -45.582  58.391 -59.728  1.00  0.00     0.101 A 
HETATM   12  C   UNL     1     -46.438  59.070 -60.729  1.00  0.00     0.091 C 
HETATM   13  N   UNL     1     -44.896  57.236 -60.012  1.00  0.00    -0.343 N 
HETATM   14  H   UNL     1     -44.899  56.751 -60.897  1.00  0.00     0.167 HD
HETATM   15  C   UNL     1     -43.398  55.758 -58.608  1.00  0.00     0.034 A 
HETATM   16  C   UNL     1     -42.885  55.678 -57.305  1.00  0.00     0.032 A 
ENDBRANCH   3   6
ENDBRANCH   1   2
BRANCH   1  17
HETATM   17  N   UNL     1     -41.590  54.009 -52.821  1.00  0.00    -0.343 N 
HETATM   18  C   UNL     1     -40.611  53.548 -53.673  1.00  0.00     0.259 C 
HETATM   19  O   UNL     1     -40.129  54.263 -54.549  1.00  0.00    -0.267 OA
HETATM   20  H   UNL     1     -41.815  53.428 -52.023  1.00  0.00     0.163 HD
BRANCH  18  21
HETATM   21  C   UNL     1     -40.215  52.156 -53.495  1.00  0.00     0.072 A 
HETATM   22  S   UNL     1     -39.600  51.556 -52.010  1.00  0.00    -0.097 SA
HETATM   23  C   UNL     1     -39.479  49.964 -52.621  1.00  0.00     0.050 A 
HETATM   24  C   UNL     1     -39.884  49.882 -53.934  1.00  0.00     0.009 A 
HETATM   25  C   UNL     1     -40.307  51.145 -54.436  1.00  0.00     0.025 A 
ENDBRANCH  18  21
ENDBRANCH   1  17
BRANCH   1  26
HETATM   26  C   UNL     1     -42.626  55.861 -51.477  1.00  0.00     0.073 C 
BRANCH  26  27
HETATM   27  C   UNL     1     -42.205  57.284 -51.171  1.00  0.00    -0.056 A 
HETATM   28  C   UNL     1     -43.074  58.355 -51.432  1.00  0.00     0.007 A 
HETATM   29  C   UNL     1     -42.665  59.669 -51.202  1.00  0.00     0.001 A 
HETATM   30  C   UNL     1     -41.384  59.928 -50.717  1.00  0.00     0.000 A 
HETATM   31  C   UNL     1     -40.515  58.872 -50.451  1.00  0.00     0.001 A 
HETATM   32  C   UNL     1     -40.925  57.557 -50.670  1.00  0.00     0.007 A 
ENDBRANCH  26  27
ENDBRANCH   1  26
TORSDOF 6
ENDMDL
MODEL 4
REMARK VINA RESULT:      -8.0      3.862      7.429
REMARK  6 active torsions:
REMARK  status: ('A' for Active; 'I' for Inactive)
REMARK    1  A    between atoms: C_9  and  N_10 
REMARK       I    between atoms: N_10  and  C_11 
REMARK    2  A    between atoms: C_11  and  C_12 
REMARK    3  A    between atoms: C_12  and  N_13 
REMARK    4  A    between atoms: C_12  and  C_21 
REMARK       I    between atoms: N_13  and  C_14 
REMARK    5  A    between atoms: C_14  and  C_15 
REMARK    6  A    between atoms: C_21  and  C_22 
ROOT
HETATM    1  C   UNL     1     -43.461  56.080 -54.411  1.00  0.00     0.181 C 
ENDROOT
BRANCH   1   2
HETATM    2  C   UNL     1     -44.019  57.339 -53.680  1.00  0.00     0.245 C 
HETATM    3  N   UNL     1     -43.556  57.511 -52.383  1.00  0.00    -0.325 N 
HETATM    4  H   UNL     1     -43.043  56.753 -51.961  1.00  0.00     0.169 HD
HETATM    5  O   UNL     1     -44.706  58.159 -54.290  1.00  0.00    -0.271 OA
BRANCH   3   6
HETATM    6  C   UNL     1     -43.731  58.640 -51.546  1.00  0.00     0.037 A 
HETATM    7  C   UNL     1     -44.945  58.981 -50.937  1.00  0.00     0.063 A 
HETATM    8  C   UNL     1     -45.019  60.153 -50.165  1.00  0.00     0.087 A 
HETATM    9  N   UNL     1     -46.089  60.703 -49.501  1.00  0.00    -0.234 NA
HETATM   10  C   UNL     1     -43.885  60.940 -50.007  1.00  0.00     0.062 A 
HETATM   11  C   UNL     1     -45.637  61.805 -48.941  1.00  0.00     0.101 A 
HETATM   12  C   UNL     1     -46.410  62.768 -48.124  1.00  0.00     0.091 C 
HETATM   13  N   UNL     1     -44.303  61.979 -49.215  1.00  0.00    -0.343 N 
HETATM   14  H   UNL     1     -43.731  62.748 -48.898  1.00  0.00     0.167 HD
HETATM   15  C   UNL     1     -42.656  60.631 -50.582  1.00  0.00     0.034 A 
HETATM   16  C   UNL     1     -42.607  59.465 -51.361  1.00  0.00     0.032 A 
ENDBRANCH   3   6
ENDBRANCH   1   2
BRANCH   1  17
HETATM   17  N   UNL     1     -43.905  56.088 -55.808  1.00  0.00    -0.343 N 
HETATM   18  C   UNL     1     -43.142  56.586 -56.843  1.00  0.00     0.259 C 
HETATM   19  O   UNL     1     -42.043  57.098 -56.644  1.00  0.00    -0.267 OA
HETATM   20  H   UNL     1     -44.712  55.532 -56.060  1.00  0.00     0.163 HD
BRANCH  18  21
HETATM   21  C   UNL     1     -43.738  56.501 -58.171  1.00  0.00     0.072 A 
HETATM   22  S   UNL     1     -44.767  57.722 -58.798  1.00  0.00    -0.097 SA
HETATM   23  C   UNL     1     -44.931  56.914 -60.296  1.00  0.00     0.050 A 
HETATM   24  C   UNL     1     -44.231  55.730 -60.324  1.00  0.00     0.009 A 
HETATM   25  C   UNL     1     -43.545  55.493 -59.099  1.00  0.00     0.025 A 
ENDBRANCH  18  21
ENDBRANCH   1  17
BRANCH   1  26
HETATM   26  C   UNL     1     -43.684  54.720 -53.713  1.00  0.00     0.073 C 
BRANCH  26  27
HETATM   27  C   UNL     1     -42.380  53.991 -53.457  1.00  0.00    -0.056 A 
HETATM   28  C   UNL     1     -41.698  53.364 -54.511  1.00  0.00     0.007 A 
HETATM   29  C   UNL     1     -40.526  52.645 -54.265  1.00  0.00     0.001 A 
HETATM   30  C   UNL     1     -40.031  52.539 -52.967  1.00  0.00     0.000 A 
HETATM   31  C   UNL     1     -40.699  53.162 -51.914  1.00  0.00     0.001 A 
HETATM   32  C   UNL     1     -41.864  53.889 -52.159  1.00  0.00     0.007 A 
ENDBRANCH  26  27
ENDBRANCH   1  26
TORSDOF 6
ENDMDL
MODEL 5
REMARK VINA RESULT:      -8.0      2.607      8.493
REMARK  6 active torsions:
REMARK  status: ('A' for Active; 'I' for Inactive)
REMARK    1  A    between atoms: C_9  and  N_10 
REMARK       I    between atoms: N_10  and  C_11 
REMARK    2  A    between atoms: C_11  and  C_12 
REMARK    3  A    between atoms: C_12  and  N_13 
REMARK    4  A    between atoms: C_12  and  C_21 
REMARK       I    between atoms: N_13  and  C_14 
REMARK    5  A    between atoms: C_14  and  C_15 
REMARK    6  A    between atoms: C_21  and  C_22 
ROOT
HETATM    1  C   UNL     1     -42.796  58.223 -54.528  1.00  0.00     0.181 C 
ENDROOT
BRANCH   1   2
HETATM    2  C   UNL     1     -42.752  57.002 -53.560  1.00  0.00     0.245 C 
HETATM    3  N   UNL     1     -41.608  56.223 -53.657  1.00  0.00    -0.325 N 
HETATM    4  H   UNL     1     -40.984  56.396 -54.430  1.00  0.00     0.169 HD
HETATM    5  O   UNL     1     -43.623  56.857 -52.701  1.00  0.00    -0.271 OA
BRANCH   3   6
HETATM    6  C   UNL     1     -41.200  55.176 -52.795  1.00  0.00     0.037 A 
HETATM    7  C   UNL     1     -40.743  53.929 -53.241  1.00  0.00     0.063 A 
HETATM    8  C   UNL     1     -40.410  52.944 -52.296  1.00  0.00     0.087 A 
HETATM    9  N   UNL     1     -39.972  51.655 -52.487  1.00  0.00    -0.234 NA
HETATM   10  C   UNL     1     -40.526  53.229 -50.942  1.00  0.00     0.062 A 
HETATM   11  C   UNL     1     -39.815  51.148 -51.283  1.00  0.00     0.101 A 
HETATM   12  C   UNL     1     -39.371  49.775 -50.949  1.00  0.00     0.091 C 
HETATM   13  N   UNL     1     -40.130  52.073 -50.318  1.00  0.00    -0.343 N 
HETATM   14  H   UNL     1     -40.089  51.922 -49.321  1.00  0.00     0.167 HD
HETATM   15  C   UNL     1     -40.961  54.458 -50.455  1.00  0.00     0.034 A 
HETATM   16  C   UNL     1     -41.302  55.423 -51.414  1.00  0.00     0.032 A 
ENDBRANCH   3   6
ENDBRANCH   1   2
BRANCH   1  17
HETATM   17  N   UNL     1     -42.867  57.747 -55.914  1.00  0.00    -0.343 N 
HETATM   18  C   UNL     1     -44.048  57.618 -56.612  1.00  0.00     0.259 C 
HETATM   19  O   UNL     1     -45.134  57.860 -56.090  1.00  0.00    -0.267 OA
HETATM   20  H   UNL     1     -42.010  57.699 -56.449  1.00  0.00     0.163 HD
BRANCH  18  21
HETATM   21  C   UNL     1     -43.927  57.142 -57.984  1.00  0.00     0.072 A 
HETATM   22  S   UNL     1     -44.597  57.990 -59.316  1.00  0.00    -0.097 SA
HETATM   23  C   UNL     1     -43.975  56.862 -60.440  1.00  0.00     0.050 A 
HETATM   24  C   UNL     1     -43.281  55.847 -59.822  1.00  0.00     0.009 A 
HETATM   25  C   UNL     1     -43.254  56.009 -58.408  1.00  0.00     0.025 A 
ENDBRANCH  18  21
ENDBRANCH   1  17
BRANCH   1  26
HETATM   26  C   UNL     1     -41.723  59.312 -54.316  1.00  0.00     0.073 C 
BRANCH  26  27
HETATM   27  C   UNL     1     -41.363  59.481 -52.854  1.00  0.00    -0.056 A 
HETATM   28  C   UNL     1     -40.152  58.975 -52.357  1.00  0.00     0.007 A 
HETATM   29  C   UNL     1     -39.846  59.081 -50.999  1.00  0.00     0.001 A 
HETATM   30  C   UNL     1     -40.746  59.685 -50.125  1.00  0.00     0.000 A 
HETATM   31  C   UNL     1     -41.950  60.195 -50.608  1.00  0.00     0.001 A 
HETATM   32  C   UNL     1     -42.254  60.099 -51.967  1.00  0.00     0.007 A 
ENDBRANCH  26  27
ENDBRANCH   1  26
TORSDOF 6
ENDMDL
MODEL 6
REMARK VINA RESULT:      -8.0      1.839      4.831
REMARK  6 active torsions:
REMARK  status: ('A' for Active; 'I' for Inactive)
REMARK    1  A    between atoms: C_9  and  N_10 
REMARK       I    between atoms: N_10  and  C_11 
REMARK    2  A    between atoms: C_11  and  C_12 
REMARK    3  A    between atoms: C_12  and  N_13 
REMARK    4  A    between atoms: C_12  and  C_21 
REMARK       I    between atoms: N_13  and  C_14 
REMARK    5  A    between atoms: C_14  and  C_15 
REMARK    6  A    between atoms: C_21  and  C_22 
ROOT
HETATM    1  C   UNL     1     -42.179  56.492 -54.098  1.00  0.00     0.181 C 
ENDROOT
BRANCH   1   2
HETATM    2  C   UNL     1     -43.203  56.123 -55.215  1.00  0.00     0.245 C 
HETATM    3  N   UNL     1     -43.089  56.871 -56.378  1.00  0.00    -0.325 N 
HETATM    4  H   UNL     1     -42.487  57.680 -56.362  1.00  0.00     0.169 HD
HETATM    5  O   UNL     1     -43.945  55.150 -55.081  1.00  0.00    -0.271 OA
BRANCH   3   6
HETATM    6  C   UNL     1     -43.741  56.648 -57.616  1.00  0.00     0.037 A 
HETATM    7  C   UNL     1     -44.992  57.182 -57.948  1.00  0.00     0.063 A 
HETATM    8  C   UNL     1     -45.569  56.854 -59.187  1.00  0.00     0.087 A 
HETATM    9  N   UNL     1     -46.780  57.228 -59.719  1.00  0.00    -0.234 NA
HETATM   10  C   UNL     1     -44.883  56.022 -60.062  1.00  0.00     0.062 A 
HETATM   11  C   UNL     1     -46.850  56.645 -60.897  1.00  0.00     0.101 A 
HETATM   12  C   UNL     1     -47.971  56.723 -61.862  1.00  0.00     0.091 C 
HETATM   13  N   UNL     1     -45.715  55.914 -61.148  1.00  0.00    -0.343 N 
HETATM   14  H   UNL     1     -45.531  55.378 -61.983  1.00  0.00     0.167 HD
HETATM   15  C   UNL     1     -43.632  55.481 -59.778  1.00  0.00     0.034 A 
HETATM   16  C   UNL     1     -43.080  55.809 -58.531  1.00  0.00     0.032 A 
ENDBRANCH   3   6
ENDBRANCH   1   2
BRANCH   1  17
HETATM   17  N   UNL     1     -41.672  55.266 -53.474  1.00  0.00    -0.343 N 
HETATM   18  C   UNL     1     -40.611  54.543 -53.975  1.00  0.00     0.259 C 
HETATM   19  O   UNL     1     -40.045  54.868 -55.016  1.00  0.00    -0.267 OA
HETATM   20  H   UNL     1     -41.975  55.045 -52.535  1.00  0.00     0.163 HD
BRANCH  18  21
HETATM   21  C   UNL     1     -40.235  53.356 -53.217  1.00  0.00     0.072 A 
HETATM   22  S   UNL     1     -40.219  53.325 -51.502  1.00  0.00    -0.097 SA
HETATM   23  C   UNL     1     -39.772  51.676 -51.464  1.00  0.00     0.050 A 
HETATM   24  C   UNL     1     -39.622  51.152 -52.728  1.00  0.00     0.009 A 
HETATM   25  C   UNL     1     -39.889  52.121 -53.737  1.00  0.00     0.025 A 
ENDBRANCH  18  21
ENDBRANCH   1  17
BRANCH   1  26
HETATM   26  C   UNL     1     -42.629  57.553 -53.071  1.00  0.00     0.073 C 
BRANCH  26  27
HETATM   27  C   UNL     1     -41.459  58.134 -52.302  1.00  0.00    -0.056 A 
HETATM   28  C   UNL     1     -41.554  58.348 -50.918  1.00  0.00     0.007 A 
HETATM   29  C   UNL     1     -40.497  58.934 -50.220  1.00  0.00     0.001 A 
HETATM   30  C   UNL     1     -39.341  59.319 -50.896  1.00  0.00     0.000 A 
HETATM   31  C   UNL     1     -39.235  59.108 -52.269  1.00  0.00     0.001 A 
HETATM   32  C   UNL     1     -40.286  58.513 -52.968  1.00  0.00     0.007 A 
ENDBRANCH  26  27
ENDBRANCH   1  26
TORSDOF 6
ENDMDL
MODEL 7
REMARK VINA RESULT:      -7.7      3.791      6.525
REMARK  6 active torsions:
REMARK  status: ('A' for Active; 'I' for Inactive)
REMARK    1  A    between atoms: C_9  and  N_10 
REMARK       I    between atoms: N_10  and  C_11 
REMARK    2  A    between atoms: C_11  and  C_12 
REMARK    3  A    between atoms: C_12  and  N_13 
REMARK    4  A    between atoms: C_12  and  C_21 
REMARK       I    between atoms: N_13  and  C_14 
REMARK    5  A    between atoms: C_14  and  C_15 
REMARK    6  A    between atoms: C_21  and  C_22 
ROOT
HETATM    1  C   UNL     1     -42.656  55.088 -55.216  1.00  0.00     0.181 C 
ENDROOT
BRANCH   1   2
HETATM    2  C   UNL     1     -42.873  56.436 -54.464  1.00  0.00     0.245 C 
HETATM    3  N   UNL     1     -44.193  56.718 -54.143  1.00  0.00    -0.325 N 
HETATM    4  H   UNL     1     -44.911  56.136 -54.547  1.00  0.00     0.169 HD
HETATM    5  O   UNL     1     -41.907  57.101 -54.087  1.00  0.00    -0.271 OA
BRANCH   3   6
HETATM    6  C   UNL     1     -44.678  57.756 -53.311  1.00  0.00     0.037 A 
HETATM    7  C   UNL     1     -45.108  59.002 -53.784  1.00  0.00     0.063 A 
HETATM    8  C   UNL     1     -45.523  59.978 -52.863  1.00  0.00     0.087 A 
HETATM    9  N   UNL     1     -45.956  61.265 -53.081  1.00  0.00    -0.234 NA
HETATM   10  C   UNL     1     -45.514  59.686 -51.506  1.00  0.00     0.062 A 
HETATM   11  C   UNL     1     -46.213  61.764 -51.891  1.00  0.00     0.101 A 
HETATM   12  C   UNL     1     -46.694  63.130 -51.585  1.00  0.00     0.091 C 
HETATM   13  N   UNL     1     -45.968  60.835 -50.909  1.00  0.00    -0.343 N 
HETATM   14  H   UNL     1     -46.090  60.979 -49.918  1.00  0.00     0.167 HD
HETATM   15  C   UNL     1     -45.108  58.457 -50.993  1.00  0.00     0.034 A 
HETATM   16  C   UNL     1     -44.684  57.501 -51.927  1.00  0.00     0.032 A 
ENDBRANCH   3   6
ENDBRANCH   1   2
BRANCH   1  17
HETATM   17  N   UNL     1     -43.358  55.125 -56.503  1.00  0.00    -0.343 N 
HETATM   18  C   UNL     1     -43.059  56.025 -57.503  1.00  0.00     0.259 C 
HETATM   19  O   UNL     1     -42.198  56.889 -57.356  1.00  0.00    -0.267 OA
HETATM   20  H   UNL     1     -43.948  54.342 -56.752  1.00  0.00     0.163 HD
BRANCH  18  21
HETATM   21  C   UNL     1     -43.851  55.909 -58.721  1.00  0.00     0.072 A 
HETATM   22  S   UNL     1     -44.671  57.245 -59.418  1.00  0.00    -0.097 SA
HETATM   23  C   UNL     1     -45.230  56.308 -60.733  1.00  0.00     0.050 A 
HETATM   24  C   UNL     1     -44.818  54.998 -60.647  1.00  0.00     0.009 A 
HETATM   25  C   UNL     1     -44.024  54.769 -59.487  1.00  0.00     0.025 A 
ENDBRANCH  18  21
ENDBRANCH   1  17
BRANCH   1  26
HETATM   26  C   UNL     1     -42.932  53.797 -54.414  1.00  0.00     0.073 C 
BRANCH  26  27
HETATM   27  C   UNL     1     -41.697  53.303 -53.687  1.00  0.00    -0.056 A 
HETATM   28  C   UNL     1     -40.863  52.342 -54.275  1.00  0.00     0.007 A 
HETATM   29  C   UNL     1     -39.757  51.846 -53.582  1.00  0.00     0.001 A 
HETATM   30  C   UNL     1     -39.479  52.300 -52.294  1.00  0.00     0.000 A 
HETATM   31  C   UNL     1     -40.299  53.258 -51.702  1.00  0.00     0.001 A 
HETATM   32  C   UNL     1     -41.399  53.762 -52.397  1.00  0.00     0.007 A 
ENDBRANCH  26  27
ENDBRANCH   1  26
TORSDOF 6
ENDMDL
MODEL 8
REMARK VINA RESULT:      -7.7      4.270      7.101
REMARK  6 active torsions:
REMARK  status: ('A' for Active; 'I' for Inactive)
REMARK    1  A    between atoms: C_9  and  N_10 
REMARK       I    between atoms: N_10  and  C_11 
REMARK    2  A    between atoms: C_11  and  C_12 
REMARK    3  A    between atoms: C_12  and  N_13 
REMARK    4  A    between atoms: C_12  and  C_21 
REMARK       I    between atoms: N_13  and  C_14 
REMARK    5  A    between atoms: C_14  and  C_15 
REMARK    6  A    between atoms: C_21  and  C_22 
ROOT
HETATM    1  C   UNL     1     -43.144  55.884 -52.439  1.00  0.00     0.181 C 
ENDROOT
BRANCH   1   2
HETATM    2  C   UNL     1     -43.878  56.946 -51.563  1.00  0.00     0.245 C 
HETATM    3  N   UNL     1     -43.732  58.256 -51.993  1.00  0.00    -0.325 N 
HETATM    4  H   UNL     1     -43.054  58.443 -52.716  1.00  0.00     0.169 HD
HETATM    5  O   UNL     1     -44.626  56.590 -50.651  1.00  0.00    -0.271 OA
BRANCH   3   6
HETATM    6  C   UNL     1     -44.421  59.401 -51.524  1.00  0.00     0.037 A 
HETATM    7  C   UNL     1     -43.944  60.240 -50.509  1.00  0.00     0.063 A 
HETATM    8  C   UNL     1     -44.734  61.322 -50.087  1.00  0.00     0.087 A 
HETATM    9  N   UNL     1     -44.497  62.255 -49.105  1.00  0.00    -0.234 NA
HETATM   10  C   UNL     1     -45.963  61.549 -50.693  1.00  0.00     0.062 A 
HETATM   11  C   UNL     1     -45.548  63.045 -49.098  1.00  0.00     0.101 A 
HETATM   12  C   UNL     1     -45.784  64.203 -48.206  1.00  0.00     0.091 C 
HETATM   13  N   UNL     1     -46.456  62.658 -50.053  1.00  0.00    -0.343 N 
HETATM   14  H   UNL     1     -47.341  63.106 -50.242  1.00  0.00     0.167 HD
HETATM   15  C   UNL     1     -46.469  60.750 -51.714  1.00  0.00     0.034 A 
HETATM   16  C   UNL     1     -45.672  59.667 -52.111  1.00  0.00     0.032 A 
ENDBRANCH   3   6
ENDBRANCH   1   2
BRANCH   1  17
HETATM   17  N   UNL     1     -43.491  56.088 -53.849  1.00  0.00    -0.343 N 
HETATM   18  C   UNL     1     -42.557  56.341 -54.830  1.00  0.00     0.259 C 
HETATM   19  O   UNL     1     -41.362  56.454 -54.568  1.00  0.00    -0.267 OA
HETATM   20  H   UNL     1     -44.422  55.839 -54.155  1.00  0.00     0.163 HD
BRANCH  18  21
HETATM   21  C   UNL     1     -43.081  56.505 -56.180  1.00  0.00     0.072 A 
HETATM   22  S   UNL     1     -43.986  57.883 -56.657  1.00  0.00    -0.097 SA
HETATM   23  C   UNL     1     -44.121  57.326 -58.267  1.00  0.00     0.050 A 
HETATM   24  C   UNL     1     -43.503  56.110 -58.447  1.00  0.00     0.009 A 
HETATM   25  C   UNL     1     -42.905  55.638 -57.244  1.00  0.00     0.025 A 
ENDBRANCH  18  21
ENDBRANCH   1  17
BRANCH   1  26
HETATM   26  C   UNL     1     -43.270  54.412 -51.991  1.00  0.00     0.073 C 
BRANCH  26  27
HETATM   27  C   UNL     1     -41.947  53.677 -52.070  1.00  0.00    -0.056 A 
HETATM   28  C   UNL     1     -41.489  53.167 -53.294  1.00  0.00     0.007 A 
HETATM   29  C   UNL     1     -40.298  52.442 -53.356  1.00  0.00     0.001 A 
HETATM   30  C   UNL     1     -39.558  52.213 -52.198  1.00  0.00     0.000 A 
HETATM   31  C   UNL     1     -40.002  52.718 -50.978  1.00  0.00     0.001 A 
HETATM   32  C   UNL     1     -41.187  53.452 -50.914  1.00  0.00     0.007 A 
ENDBRANCH  26  27
ENDBRANCH   1  26
TORSDOF 6
ENDMDL
MODEL 9
REMARK VINA RESULT:      -7.6      2.763      8.401
REMARK  6 active torsions:
REMARK  status: ('A' for Active; 'I' for Inactive)
REMARK    1  A    between atoms: C_9  and  N_10 
REMARK       I    between atoms: N_10  and  C_11 
REMARK    2  A    between atoms: C_11  and  C_12 
REMARK    3  A    between atoms: C_12  and  N_13 
REMARK    4  A    between atoms: C_12  and  C_21 
REMARK       I    between atoms: N_13  and  C_14 
REMARK    5  A    between atoms: C_14  and  C_15 
REMARK    6  A    between atoms: C_21  and  C_22 
ROOT
HETATM    1  C   UNL     1     -42.149  58.052 -54.515  1.00  0.00     0.181 C 
ENDROOT
BRANCH   1   2
HETATM    2  C   UNL     1     -42.194  56.518 -54.239  1.00  0.00     0.245 C 
HETATM    3  N   UNL     1     -40.966  55.877 -54.314  1.00  0.00    -0.325 N 
HETATM    4  H   UNL     1     -40.186  56.393 -54.689  1.00  0.00     0.169 HD
HETATM    5  O   UNL     1     -43.237  55.986 -53.856  1.00  0.00    -0.271 OA
BRANCH   3   6
HETATM    6  C   UNL     1     -40.661  54.546 -53.935  1.00  0.00     0.037 A 
HETATM    7  C   UNL     1     -40.629  54.099 -52.608  1.00  0.00     0.063 A 
HETATM    8  C   UNL     1     -40.265  52.767 -52.343  1.00  0.00     0.087 A 
HETATM    9  N   UNL     1     -40.138  52.114 -51.141  1.00  0.00    -0.234 NA
HETATM   10  C   UNL     1     -39.960  51.919 -53.399  1.00  0.00     0.062 A 
HETATM   11  C   UNL     1     -39.764  50.887 -51.437  1.00  0.00     0.101 A 
HETATM   12  C   UNL     1     -39.478  49.791 -50.484  1.00  0.00     0.091 C 
HETATM   13  N   UNL     1     -39.655  50.725 -52.797  1.00  0.00    -0.343 N 
HETATM   14  H   UNL     1     -39.384  49.875 -53.269  1.00  0.00     0.167 HD
HETATM   15  C   UNL     1     -39.993  52.318 -54.733  1.00  0.00     0.034 A 
HETATM   16  C   UNL     1     -40.345  53.654 -54.975  1.00  0.00     0.032 A 
ENDBRANCH   3   6
ENDBRANCH   1   2
BRANCH   1  17
HETATM   17  N   UNL     1     -42.216  58.292 -55.960  1.00  0.00    -0.343 N 
HETATM   18  C   UNL     1     -43.352  58.736 -56.602  1.00  0.00     0.259 C 
HETATM   19  O   UNL     1     -44.405  58.921 -55.996  1.00  0.00    -0.267 OA
HETATM   20  H   UNL     1     -41.351  58.326 -56.483  1.00  0.00     0.163 HD
BRANCH  18  21
HETATM   21  C   UNL     1     -43.234  58.931 -58.042  1.00  0.00     0.072 A 
HETATM   22  S   UNL     1     -44.550  58.689 -59.116  1.00  0.00    -0.097 SA
HETATM   23  C   UNL     1     -43.625  59.168 -60.471  1.00  0.00     0.050 A 
HETATM   24  C   UNL     1     -42.334  59.496 -60.126  1.00  0.00     0.009 A 
HETATM   25  C   UNL     1     -42.110  59.358 -58.727  1.00  0.00     0.025 A 
ENDBRANCH  18  21
ENDBRANCH   1  17
BRANCH   1  26
HETATM   26  C   UNL     1     -41.020  58.846 -53.822  1.00  0.00     0.073 C 
BRANCH  26  27
HETATM   27  C   UNL     1     -41.510  59.567 -52.583  1.00  0.00    -0.056 A 
HETATM   28  C   UNL     1     -40.891  59.349 -51.342  1.00  0.00     0.007 A 
HETATM   29  C   UNL     1     -41.378  59.971 -50.191  1.00  0.00     0.001 A 
HETATM   30  C   UNL     1     -42.488  60.810 -50.265  1.00  0.00     0.000 A 
HETATM   31  C   UNL     1     -43.107  61.037 -51.493  1.00  0.00     0.001 A 
HETATM   32  C   UNL     1     -42.617  60.424 -52.647  1.00  0.00     0.007 A 
ENDBRANCH  26  27
ENDBRANCH   1  26
TORSDOF 6
ENDMDL
MODEL 10
REMARK VINA RESULT:      -7.6      3.156      6.384
REMARK  6 active torsions:
REMARK  status: ('A' for Active; 'I' for Inactive)
REMARK    1  A    between atoms: C_9  and  N_10 
REMARK       I    between atoms: N_10  and  C_11 
REMARK    2  A    between atoms: C_11  and  C_12 
REMARK    3  A    between atoms: C_12  and  N_13 
REMARK    4  A    between atoms: C_12  and  C_21 
REMARK       I    between atoms: N_13  and  C_14 
REMARK    5  A    between atoms: C_14  and  C_15 
REMARK    6  A    between atoms: C_21  and  C_22 
ROOT
HETATM    1  C   UNL     1     -41.607  55.547 -54.507  1.00  0.00     0.181 C 
ENDROOT
BRANCH   1   2
HETATM    2  C   UNL     1     -42.128  56.715 -53.615  1.00  0.00     0.245 C 
HETATM    3  N   UNL     1     -41.631  57.967 -53.947  1.00  0.00    -0.325 N 
HETATM    4  H   UNL     1     -40.870  58.013 -54.608  1.00  0.00     0.169 HD
HETATM    5  O   UNL     1     -43.012  56.515 -52.782  1.00  0.00    -0.271 OA
BRANCH   3   6
HETATM    6  C   UNL     1     -42.054  59.224 -53.451  1.00  0.00     0.037 A 
HETATM    7  C   UNL     1     -42.029  59.580 -52.097  1.00  0.00     0.063 A 
HETATM    8  C   UNL     1     -42.520  60.838 -51.710  1.00  0.00     0.087 A 
HETATM    9  N   UNL     1     -42.624  61.394 -50.457  1.00  0.00    -0.234 NA
HETATM   10  C   UNL     1     -43.006  61.709 -52.676  1.00  0.00     0.062 A 
HETATM   11  C   UNL     1     -43.159  62.583 -50.636  1.00  0.00     0.101 A 
HETATM   12  C   UNL     1     -43.490  63.575 -49.587  1.00  0.00     0.091 C 
HETATM   13  N   UNL     1     -43.395  62.818 -51.968  1.00  0.00    -0.343 N 
HETATM   14  H   UNL     1     -43.799  63.657 -52.356  1.00  0.00     0.167 HD
HETATM   15  C   UNL     1     -43.035  61.403 -54.034  1.00  0.00     0.034 A 
HETATM   16  C   UNL     1     -42.554  60.137 -54.398  1.00  0.00     0.032 A 
ENDBRANCH   3   6
ENDBRANCH   1   2
BRANCH   1  17
HETATM   17  N   UNL     1     -41.659  55.946 -55.917  1.00  0.00    -0.343 N 
HETATM   18  C   UNL     1     -42.780  56.485 -56.511  1.00  0.00     0.259 C 
HETATM   19  O   UNL     1     -43.832  56.628 -55.893  1.00  0.00    -0.267 OA
HETATM   20  H   UNL     1     -40.789  56.017 -56.428  1.00  0.00     0.163 HD
BRANCH  18  21
HETATM   21  C   UNL     1     -42.647  56.835 -57.920  1.00  0.00     0.072 A 
HETATM   22  S   UNL     1     -42.062  58.362 -58.440  1.00  0.00    -0.097 SA
HETATM   23  C   UNL     1     -42.160  57.919 -60.088  1.00  0.00     0.050 A 
HETATM   24  C   UNL     1     -42.640  56.640 -60.252  1.00  0.00     0.009 A 
HETATM   25  C   UNL     1     -42.920  56.016 -59.002  1.00  0.00     0.025 A 
ENDBRANCH  18  21
ENDBRANCH   1  17
BRANCH   1  26
HETATM   26  C   UNL     1     -42.221  54.154 -54.249  1.00  0.00     0.073 C 
BRANCH  26  27
HETATM   27  C   UNL     1     -41.254  53.227 -53.540  1.00  0.00    -0.056 A 
HETATM   28  C   UNL     1     -40.904  53.455 -52.200  1.00  0.00     0.007 A 
HETATM   29  C   UNL     1     -39.971  52.634 -51.564  1.00  0.00     0.001 A 
HETATM   30  C   UNL     1     -39.374  51.584 -52.260  1.00  0.00     0.000 A 
HETATM   31  C   UNL     1     -39.718  51.347 -53.590  1.00  0.00     0.001 A 
HETATM   32  C   UNL     1     -40.658  52.160 -54.225  1.00  0.00     0.007 A 
ENDBRANCH  26  27
ENDBRANCH   1  26
TORSDOF 6
ENDMDL
