MODEL 1
REMARK VINA RESULT:      -8.5      0.000      0.000
REMARK  7 active torsions:
REMARK  status: ('A' for Active; 'I' for Inactive)
REMARK       I    between atoms: C_2  and  N_3 
REMARK    1  A    between atoms: N_3  and  C_4 
REMARK    2  A    between atoms: C_7  and  N_8 
REMARK       I    between atoms: N_8  and  C_9 
REMARK    3  A    between atoms: C_9  and  C_10 
REMARK    4  A    between atoms: C_11  and  C_12 
REMARK    5  A    between atoms: C_13  and  O_14 
REMARK    6  A    between atoms: N_20  and  C_21 
REMARK    7  A    between atoms: C_24  and  O_25 
ROOT
HETATM    1  C   UNL     1     -44.595  57.568 -53.269  1.00  0.00     0.106 C 
HETATM    2  C   UNL     1     -43.153  57.036 -53.376  1.00  0.00     0.142 C 
HETATM    3  N   UNL     1     -43.049  56.164 -54.583  1.00  0.00    -0.308 N 
HETATM    4  C   UNL     1     -43.488  56.681 -55.813  1.00  0.00     0.225 C 
HETATM    5  O   UNL     1     -43.105  56.292 -56.920  1.00  0.00    -0.273 OA
HETATM    6  C   UNL     1     -44.670  57.643 -55.762  1.00  0.00     0.104 C 
HETATM    7  C   UNL     1     -44.844  58.450 -54.488  1.00  0.00     0.026 C 
ENDROOT
BRANCH   1   8
HETATM    8  C   UNL     1     -44.970  58.325 -51.999  1.00  0.00     0.228 C 
HETATM    9  N   UNL     1     -44.769  59.691 -52.015  1.00  0.00    -0.327 N 
HETATM   10  H   UNL     1     -44.310  60.094 -52.822  1.00  0.00     0.169 HD
HETATM   11  O   UNL     1     -45.453  57.682 -51.067  1.00  0.00    -0.273 OA
BRANCH   9  12
HETATM   12  C   UNL     1     -44.915  60.568 -50.915  1.00  0.00     0.034 A 
HETATM   13  C   UNL     1     -46.095  61.244 -50.604  1.00  0.00     0.032 A 
HETATM   14  C   UNL     1     -46.186  62.045 -49.456  1.00  0.00     0.032 A 
HETATM   15  C   UNL     1     -45.099  62.183 -48.598  1.00  0.00     0.034 A 
HETATM   16  C   UNL     1     -43.904  61.532 -48.924  1.00  0.00     0.032 A 
HETATM   17  C   UNL     1     -43.812  60.737 -50.075  1.00  0.00     0.032 A 
BRANCH  15  18
HETATM   18  N   UNL     1     -45.129  62.928 -47.400  1.00  0.00    -0.328 N 
HETATM   19  C   UNL     1     -45.221  62.437 -46.108  1.00  0.00     0.218 C 
HETATM   20  C   UNL     1     -45.153  63.528 -45.067  1.00  0.00     0.117 C 
HETATM   21  O   UNL     1     -45.312  61.265 -45.769  1.00  0.00    -0.274 OA
HETATM   22  H   UNL     1     -45.041  63.930 -47.502  1.00  0.00     0.169 HD
ENDBRANCH  15  18
ENDBRANCH   9  12
ENDBRANCH   1   8
BRANCH   2  23
HETATM   23  C   UNL     1     -42.543  56.524 -52.071  1.00  0.00    -0.001 A 
HETATM   24  C   UNL     1     -41.467  57.216 -51.475  1.00  0.00     0.076 A 
HETATM   25  C   UNL     1     -40.933  56.791 -50.254  1.00  0.00     0.037 A 
HETATM   26  C   UNL     1     -41.443  55.658 -49.624  1.00  0.00     0.003 A 
HETATM   27  C   UNL     1     -42.490  54.951 -50.209  1.00  0.00     0.001 A 
HETATM   28  C   UNL     1     -43.036  55.378 -51.420  1.00  0.00     0.012 A 
BRANCH  24  29
HETATM   29  O   UNL     1     -41.025  58.357 -52.096  1.00  0.00    -0.355 OA
HETATM   30  C   UNL     1     -40.238  59.204 -51.258  1.00  0.00     0.210 C 
ENDBRANCH  24  29
ENDBRANCH   2  23
BRANCH   3  31
HETATM   31  C   UNL     1     -42.141  55.060 -54.575  1.00  0.00     0.038 A 
HETATM   32  C   UNL     1     -42.565  53.752 -54.322  1.00  0.00     0.032 A 
HETATM   33  C   UNL     1     -41.646  52.697 -54.320  1.00  0.00     0.039 A 
HETATM   34  C   UNL     1     -40.289  52.930 -54.555  1.00  0.00     0.068 A 
HETATM   35  C   UNL     1     -39.855  54.235 -54.774  1.00  0.00     0.039 A 
HETATM   36  C   UNL     1     -40.775  55.289 -54.771  1.00  0.00     0.032 A 
BRANCH  34  37
HETATM   37  O   UNL     1     -39.501  51.812 -54.537  1.00  0.00    -0.356 OA
HETATM   38  C   UNL     1     -40.159  50.571 -54.311  1.00  0.00     0.210 C 
ENDBRANCH  34  37
ENDBRANCH   3  31
TORSDOF 7
ENDMDL
MODEL 2
REMARK VINA RESULT:      -7.3      3.742      7.973
REMARK  7 active torsions:
REMARK  status: ('A' for Active; 'I' for Inactive)
REMARK       I    between atoms: C_2  and  N_3 
REMARK    1  A    between atoms: N_3  and  C_4 
REMARK    2  A    between atoms: C_7  and  N_8 
REMARK       I    between atoms: N_8  and  C_9 
REMARK    3  A    between atoms: C_9  and  C_10 
REMARK    4  A    between atoms: C_11  and  C_12 
REMARK    5  A    between atoms: C_13  and  O_14 
REMARK    6  A    between atoms: N_20  and  C_21 
REMARK    7  A    between atoms: C_24  and  O_25 
ROOT
HETATM    1  C   UNL     1     -44.026  58.601 -54.363  1.00  0.00     0.106 C 
HETATM    2  C   UNL     1     -44.013  57.234 -53.654  1.00  0.00     0.142 C 
HETATM    3  N   UNL     1     -43.985  57.457 -52.178  1.00  0.00    -0.308 N 
HETATM    4  C   UNL     1     -44.953  58.305 -51.617  1.00  0.00     0.225 C 
HETATM    5  O   UNL     1     -45.329  58.270 -50.443  1.00  0.00    -0.273 OA
HETATM    6  C   UNL     1     -45.407  59.479 -52.479  1.00  0.00     0.104 C 
HETATM    7  C   UNL     1     -45.330  59.296 -53.984  1.00  0.00     0.026 C 
ENDROOT
BRANCH   1   8
HETATM    8  C   UNL     1     -43.861  58.606 -55.879  1.00  0.00     0.228 C 
HETATM    9  N   UNL     1     -42.722  59.214 -56.372  1.00  0.00    -0.327 N 
HETATM   10  H   UNL     1     -42.117  59.691 -55.717  1.00  0.00     0.169 HD
HETATM   11  O   UNL     1     -44.724  58.047 -56.554  1.00  0.00    -0.273 OA
BRANCH   9  12
HETATM   12  C   UNL     1     -42.430  59.455 -57.736  1.00  0.00     0.034 A 
HETATM   13  C   UNL     1     -42.270  58.452 -58.691  1.00  0.00     0.032 A 
HETATM   14  C   UNL     1     -42.049  58.769 -60.039  1.00  0.00     0.032 A 
HETATM   15  C   UNL     1     -41.987  60.096 -60.456  1.00  0.00     0.034 A 
HETATM   16  C   UNL     1     -42.114  61.104 -59.495  1.00  0.00     0.032 A 
HETATM   17  C   UNL     1     -42.329  60.787 -58.146  1.00  0.00     0.032 A 
BRANCH  15  18
HETATM   18  N   UNL     1     -41.819  60.494 -61.799  1.00  0.00    -0.328 N 
HETATM   19  C   UNL     1     -42.806  60.888 -62.688  1.00  0.00     0.218 C 
HETATM   20  C   UNL     1     -42.248  61.314 -64.024  1.00  0.00     0.117 C 
HETATM   21  O   UNL     1     -44.010  60.945 -62.476  1.00  0.00    -0.274 OA
HETATM   22  H   UNL     1     -40.866  60.523 -62.134  1.00  0.00     0.169 HD
ENDBRANCH  15  18
ENDBRANCH   9  12
ENDBRANCH   1   8
BRANCH   2  23
HETATM   23  C   UNL     1     -43.051  56.200 -54.238  1.00  0.00    -0.001 A 
HETATM   24  C   UNL     1     -41.686  56.521 -54.408  1.00  0.00     0.076 A 
HETATM   25  C   UNL     1     -40.783  55.568 -54.892  1.00  0.00     0.037 A 
HETATM   26  C   UNL     1     -41.229  54.296 -55.240  1.00  0.00     0.003 A 
HETATM   27  C   UNL     1     -42.575  53.969 -55.100  1.00  0.00     0.001 A 
HETATM   28  C   UNL     1     -43.479  54.910 -54.604  1.00  0.00     0.012 A 
BRANCH  24  29
HETATM   29  O   UNL     1     -41.273  57.766 -54.005  1.00  0.00    -0.355 OA
HETATM   30  C   UNL     1     -40.058  57.758 -53.255  1.00  0.00     0.210 C 
ENDBRANCH  24  29
ENDBRANCH   2  23
BRANCH   3  31
HETATM   31  C   UNL     1     -43.316  56.512 -51.339  1.00  0.00     0.038 A 
HETATM   32  C   UNL     1     -43.856  55.252 -51.062  1.00  0.00     0.032 A 
HETATM   33  C   UNL     1     -43.172  54.355 -50.235  1.00  0.00     0.039 A 
HETATM   34  C   UNL     1     -41.949  54.703 -49.658  1.00  0.00     0.068 A 
HETATM   35  C   UNL     1     -41.422  55.968 -49.903  1.00  0.00     0.039 A 
HETATM   36  C   UNL     1     -42.110  56.867 -50.726  1.00  0.00     0.032 A 
BRANCH  34  37
HETATM   37  O   UNL     1     -41.381  53.732 -48.881  1.00  0.00    -0.356 OA
HETATM   38  C   UNL     1     -40.307  54.134 -48.038  1.00  0.00     0.210 C 
ENDBRANCH  34  37
ENDBRANCH   3  31
TORSDOF 7
ENDMDL
MODEL 3
REMARK VINA RESULT:      -7.2      4.536      9.406
REMARK  7 active torsions:
REMARK  status: ('A' for Active; 'I' for Inactive)
REMARK       I    between atoms: C_2  and  N_3 
REMARK    1  A    between atoms: N_3  and  C_4 
REMARK    2  A    between atoms: C_7  and  N_8 
REMARK       I    between atoms: N_8  and  C_9 
REMARK    3  A    between atoms: C_9  and  C_10 
REMARK    4  A    between atoms: C_11  and  C_12 
REMARK    5  A    between atoms: C_13  and  O_14 
REMARK    6  A    between atoms: N_20  and  C_21 
REMARK    7  A    between atoms: C_24  and  O_25 
ROOT
HETATM    1  C   UNL     1     -44.115  58.472 -55.473  1.00  0.00     0.106 C 
HETATM    2  C   UNL     1     -44.058  59.097 -56.880  1.00  0.00     0.142 C 
HETATM    3  N   UNL     1     -45.339  59.817 -57.140  1.00  0.00    -0.308 N 
HETATM    4  C   UNL     1     -45.778  60.754 -56.190  1.00  0.00     0.225 C 
HETATM    5  O   UNL     1     -46.539  61.696 -56.426  1.00  0.00    -0.273 OA
HETATM    6  C   UNL     1     -45.447  60.449 -54.733  1.00  0.00     0.104 C 
HETATM    7  C   UNL     1     -44.203  59.620 -54.471  1.00  0.00     0.026 C 
ENDROOT
BRANCH   1   8
HETATM    8  C   UNL     1     -42.984  57.529 -55.078  1.00  0.00     0.228 C 
HETATM    9  N   UNL     1     -43.284  56.181 -55.063  1.00  0.00    -0.327 N 
HETATM   10  H   UNL     1     -44.244  55.907 -55.226  1.00  0.00     0.169 HD
HETATM   11  O   UNL     1     -41.883  58.021 -54.834  1.00  0.00    -0.273 OA
BRANCH   9  12
HETATM   12  C   UNL     1     -42.439  55.144 -54.601  1.00  0.00     0.034 A 
HETATM   13  C   UNL     1     -42.544  54.552 -53.343  1.00  0.00     0.032 A 
HETATM   14  C   UNL     1     -41.714  53.481 -52.979  1.00  0.00     0.032 A 
HETATM   15  C   UNL     1     -40.766  52.982 -53.868  1.00  0.00     0.034 A 
HETATM   16  C   UNL     1     -40.636  53.596 -55.119  1.00  0.00     0.032 A 
HETATM   17  C   UNL     1     -41.461  54.670 -55.480  1.00  0.00     0.032 A 
BRANCH  15  18
HETATM   18  N   UNL     1     -39.932  51.878 -53.595  1.00  0.00    -0.328 N 
HETATM   19  C   UNL     1     -40.125  50.563 -53.984  1.00  0.00     0.218 C 
HETATM   20  C   UNL     1     -38.987  49.662 -53.572  1.00  0.00     0.117 C 
HETATM   21  O   UNL     1     -41.068  50.113 -54.623  1.00  0.00    -0.274 OA
HETATM   22  H   UNL     1     -39.084  52.082 -53.084  1.00  0.00     0.169 HD
ENDBRANCH  15  18
ENDBRANCH   9  12
ENDBRANCH   1   8
BRANCH   2  23
HETATM   23  C   UNL     1     -43.513  58.187 -57.981  1.00  0.00    -0.001 A 
HETATM   24  C   UNL     1     -42.328  58.538 -58.664  1.00  0.00     0.076 A 
HETATM   25  C   UNL     1     -41.788  57.690 -59.637  1.00  0.00     0.037 A 
HETATM   26  C   UNL     1     -42.433  56.499 -59.962  1.00  0.00     0.003 A 
HETATM   27  C   UNL     1     -43.614  56.149 -59.314  1.00  0.00     0.001 A 
HETATM   28  C   UNL     1     -44.150  56.984 -58.332  1.00  0.00     0.012 A 
BRANCH  24  29
HETATM   29  O   UNL     1     -41.692  59.692 -58.281  1.00  0.00    -0.355 OA
HETATM   30  C   UNL     1     -41.666  60.701 -59.291  1.00  0.00     0.210 C 
ENDBRANCH  24  29
ENDBRANCH   2  23
BRANCH   3  31
HETATM   31  C   UNL     1     -45.844  59.890 -58.476  1.00  0.00     0.038 A 
HETATM   32  C   UNL     1     -45.281  60.734 -59.437  1.00  0.00     0.032 A 
HETATM   33  C   UNL     1     -45.804  60.778 -60.734  1.00  0.00     0.039 A 
HETATM   34  C   UNL     1     -46.904  59.995 -61.089  1.00  0.00     0.068 A 
HETATM   35  C   UNL     1     -47.490  59.178 -60.127  1.00  0.00     0.039 A 
HETATM   36  C   UNL     1     -46.970  59.138 -58.829  1.00  0.00     0.032 A 
BRANCH  34  37
HETATM   37  O   UNL     1     -47.307  60.125 -62.390  1.00  0.00    -0.356 OA
HETATM   38  C   UNL     1     -48.439  59.358 -62.787  1.00  0.00     0.210 C 
ENDBRANCH  34  37
ENDBRANCH   3  31
TORSDOF 7
ENDMDL
MODEL 4
REMARK VINA RESULT:      -7.2      3.972      7.435
REMARK  7 active torsions:
REMARK  status: ('A' for Active; 'I' for Inactive)
REMARK       I    between atoms: C_2  and  N_3 
REMARK    1  A    between atoms: N_3  and  C_4 
REMARK    2  A    between atoms: C_7  and  N_8 
REMARK       I    between atoms: N_8  and  C_9 
REMARK    3  A    between atoms: C_9  and  C_10 
REMARK    4  A    between atoms: C_11  and  C_12 
REMARK    5  A    between atoms: C_13  and  O_14 
REMARK    6  A    between atoms: N_20  and  C_21 
REMARK    7  A    between atoms: C_24  and  O_25 
ROOT
HETATM    1  C   UNL     1     -43.198  56.397 -55.436  1.00  0.00     0.106 C 
HETATM    2  C   UNL     1     -42.138  56.327 -54.320  1.00  0.00     0.142 C 
HETATM    3  N   UNL     1     -42.299  55.038 -53.583  1.00  0.00    -0.308 N 
HETATM    4  C   UNL     1     -42.326  53.848 -54.327  1.00  0.00     0.225 C 
HETATM    5  O   UNL     1     -42.037  52.732 -53.886  1.00  0.00    -0.273 OA
HETATM    6  C   UNL     1     -42.959  53.928 -55.712  1.00  0.00     0.104 C 
HETATM    7  C   UNL     1     -42.895  55.270 -56.419  1.00  0.00     0.026 C 
ENDROOT
BRANCH   1   8
HETATM    8  C   UNL     1     -43.336  57.716 -56.190  1.00  0.00     0.228 C 
HETATM    9  N   UNL     1     -42.297  58.053 -57.035  1.00  0.00    -0.327 N 
HETATM   10  H   UNL     1     -41.477  57.460 -57.040  1.00  0.00     0.169 HD
HETATM   11  O   UNL     1     -44.365  58.369 -56.023  1.00  0.00    -0.273 OA
BRANCH   9  12
HETATM   12  C   UNL     1     -42.147  59.280 -57.723  1.00  0.00     0.034 A 
HETATM   13  C   UNL     1     -41.949  60.509 -57.096  1.00  0.00     0.032 A 
HETATM   14  C   UNL     1     -41.740  61.676 -57.846  1.00  0.00     0.032 A 
HETATM   15  C   UNL     1     -41.724  61.633 -59.237  1.00  0.00     0.034 A 
HETATM   16  C   UNL     1     -41.957  60.407 -59.870  1.00  0.00     0.032 A 
HETATM   17  C   UNL     1     -42.171  59.242 -59.120  1.00  0.00     0.032 A 
BRANCH  15  18
HETATM   18  N   UNL     1     -41.471  62.752 -60.058  1.00  0.00    -0.328 N 
HETATM   19  C   UNL     1     -40.247  63.352 -60.306  1.00  0.00     0.218 C 
HETATM   20  C   UNL     1     -40.347  64.487 -61.295  1.00  0.00     0.117 C 
HETATM   21  O   UNL     1     -39.161  63.032 -59.841  1.00  0.00    -0.274 OA
HETATM   22  H   UNL     1     -42.272  63.134 -60.541  1.00  0.00     0.169 HD
ENDBRANCH  15  18
ENDBRANCH   9  12
ENDBRANCH   1   8
BRANCH   2  23
HETATM   23  C   UNL     1     -41.965  57.604 -53.497  1.00  0.00    -0.001 A 
HETATM   24  C   UNL     1     -43.053  58.123 -52.763  1.00  0.00     0.076 A 
HETATM   25  C   UNL     1     -42.897  59.261 -51.964  1.00  0.00     0.037 A 
HETATM   26  C   UNL     1     -41.666  59.911 -51.907  1.00  0.00     0.003 A 
HETATM   27  C   UNL     1     -40.589  59.425 -52.642  1.00  0.00     0.001 A 
HETATM   28  C   UNL     1     -40.735  58.282 -53.430  1.00  0.00     0.012 A 
BRANCH  24  29
HETATM   29  O   UNL     1     -44.235  57.427 -52.801  1.00  0.00    -0.355 OA
HETATM   30  C   UNL     1     -45.114  57.719 -51.715  1.00  0.00     0.210 C 
ENDBRANCH  24  29
ENDBRANCH   2  23
BRANCH   3  31
HETATM   31  C   UNL     1     -41.980  54.983 -52.190  1.00  0.00     0.038 A 
HETATM   32  C   UNL     1     -40.668  55.100 -51.724  1.00  0.00     0.032 A 
HETATM   33  C   UNL     1     -40.396  55.040 -50.352  1.00  0.00     0.039 A 
HETATM   34  C   UNL     1     -41.423  54.847 -49.427  1.00  0.00     0.068 A 
HETATM   35  C   UNL     1     -42.728  54.696 -49.887  1.00  0.00     0.039 A 
HETATM   36  C   UNL     1     -42.999  54.751 -51.259  1.00  0.00     0.032 A 
BRANCH  34  37
HETATM   37  O   UNL     1     -41.022  54.818 -48.119  1.00  0.00    -0.356 OA
HETATM   38  C   UNL     1     -40.235  53.704 -47.717  1.00  0.00     0.210 C 
ENDBRANCH  34  37
ENDBRANCH   3  31
TORSDOF 7
ENDMDL
MODEL 5
REMARK VINA RESULT:      -7.1      2.179      8.707
REMARK  7 active torsions:
REMARK  status: ('A' for Active; 'I' for Inactive)
REMARK       I    between atoms: C_2  and  N_3 
REMARK    1  A    between atoms: N_3  and  C_4 
REMARK    2  A    between atoms: C_7  and  N_8 
REMARK       I    between atoms: N_8  and  C_9 
REMARK    3  A    between atoms: C_9  and  C_10 
REMARK    4  A    between atoms: C_11  and  C_12 
REMARK    5  A    between atoms: C_13  and  O_14 
REMARK    6  A    between atoms: N_20  and  C_21 
REMARK    7  A    between atoms: C_24  and  O_25 
ROOT
HETATM    1  C   UNL     1     -43.661  59.068 -55.183  1.00  0.00     0.106 C 
HETATM    2  C   UNL     1     -43.888  59.395 -53.695  1.00  0.00     0.142 C 
HETATM    3  N   UNL     1     -44.484  60.759 -53.587  1.00  0.00    -0.308 N 
HETATM    4  C   UNL     1     -45.632  61.043 -54.345  1.00  0.00     0.225 C 
HETATM    5  O   UNL     1     -46.460  61.916 -54.074  1.00  0.00    -0.273 OA
HETATM    6  C   UNL     1     -45.734  60.356 -55.703  1.00  0.00     0.104 C 
HETATM    7  C   UNL     1     -45.032  59.018 -55.850  1.00  0.00     0.026 C 
ENDROOT
BRANCH   1   8
HETATM    8  C   UNL     1     -42.881  57.798 -55.511  1.00  0.00     0.228 C 
HETATM    9  N   UNL     1     -42.991  56.758 -54.609  1.00  0.00    -0.327 N 
HETATM   10  H   UNL     1     -43.502  56.926 -53.752  1.00  0.00     0.169 HD
HETATM   11  O   UNL     1     -42.240  57.772 -56.561  1.00  0.00    -0.273 OA
BRANCH   9  12
HETATM   12  C   UNL     1     -42.256  55.550 -54.638  1.00  0.00     0.034 A 
HETATM   13  C   UNL     1     -40.866  55.477 -54.559  1.00  0.00     0.032 A 
HETATM   14  C   UNL     1     -40.210  54.238 -54.523  1.00  0.00     0.032 A 
HETATM   15  C   UNL     1     -40.933  53.049 -54.566  1.00  0.00     0.034 A 
HETATM   16  C   UNL     1     -42.326  53.119 -54.679  1.00  0.00     0.032 A 
HETATM   17  C   UNL     1     -42.981  54.358 -54.720  1.00  0.00     0.032 A 
BRANCH  15  18
HETATM   18  N   UNL     1     -40.350  51.767 -54.484  1.00  0.00    -0.328 N 
HETATM   19  C   UNL     1     -39.741  51.190 -53.382  1.00  0.00     0.218 C 
HETATM   20  C   UNL     1     -39.292  49.773 -53.642  1.00  0.00     0.117 C 
HETATM   21  O   UNL     1     -39.580  51.696 -52.279  1.00  0.00    -0.274 OA
HETATM   22  H   UNL     1     -40.414  51.200 -55.318  1.00  0.00     0.169 HD
ENDBRANCH  15  18
ENDBRANCH   9  12
ENDBRANCH   1   8
BRANCH   2  23
HETATM   23  C   UNL     1     -42.728  59.046 -52.762  1.00  0.00    -0.001 A 
HETATM   24  C   UNL     1     -42.911  58.096 -51.733  1.00  0.00     0.076 A 
HETATM   25  C   UNL     1     -41.846  57.727 -50.905  1.00  0.00     0.037 A 
HETATM   26  C   UNL     1     -40.595  58.316 -51.070  1.00  0.00     0.003 A 
HETATM   27  C   UNL     1     -40.403  59.271 -52.065  1.00  0.00     0.001 A 
HETATM   28  C   UNL     1     -41.458  59.633 -52.904  1.00  0.00     0.012 A 
BRANCH  24  29
HETATM   29  O   UNL     1     -44.142  57.497 -51.634  1.00  0.00    -0.355 OA
HETATM   30  C   UNL     1     -44.129  56.264 -50.913  1.00  0.00     0.210 C 
ENDBRANCH  24  29
ENDBRANCH   2  23
BRANCH   3  31
HETATM   31  C   UNL     1     -44.186  61.565 -52.444  1.00  0.00     0.038 A 
HETATM   32  C   UNL     1     -43.409  62.723 -52.536  1.00  0.00     0.032 A 
HETATM   33  C   UNL     1     -43.138  63.486 -51.394  1.00  0.00     0.039 A 
HETATM   34  C   UNL     1     -43.622  63.099 -50.143  1.00  0.00     0.068 A 
HETATM   35  C   UNL     1     -44.368  61.929 -50.040  1.00  0.00     0.039 A 
HETATM   36  C   UNL     1     -44.635  61.164 -51.181  1.00  0.00     0.032 A 
BRANCH  34  37
HETATM   37  O   UNL     1     -43.294  63.938 -49.114  1.00  0.00    -0.356 OA
HETATM   38  C   UNL     1     -44.361  64.670 -48.522  1.00  0.00     0.210 C 
ENDBRANCH  34  37
ENDBRANCH   3  31
TORSDOF 7
ENDMDL
MODEL 6
REMARK VINA RESULT:      -7.0      4.839      9.376
REMARK  7 active torsions:
REMARK  status: ('A' for Active; 'I' for Inactive)
REMARK       I    between atoms: C_2  and  N_3 
REMARK    1  A    between atoms: N_3  and  C_4 
REMARK    2  A    between atoms: C_7  and  N_8 
REMARK       I    between atoms: N_8  and  C_9 
REMARK    3  A    between atoms: C_9  and  C_10 
REMARK    4  A    between atoms: C_11  and  C_12 
REMARK    5  A    between atoms: C_13  and  O_14 
REMARK    6  A    between atoms: N_20  and  C_21 
REMARK    7  A    between atoms: C_24  and  O_25 
ROOT
HETATM    1  C   UNL     1     -43.326  58.716 -55.792  1.00  0.00     0.106 C 
HETATM    2  C   UNL     1     -42.906  58.934 -57.259  1.00  0.00     0.142 C 
HETATM    3  N   UNL     1     -43.292  60.316 -57.670  1.00  0.00    -0.308 N 
HETATM    4  C   UNL     1     -42.879  61.388 -56.863  1.00  0.00     0.225 C 
HETATM    5  O   UNL     1     -42.744  62.552 -57.250  1.00  0.00    -0.273 OA
HETATM    6  C   UNL     1     -42.799  61.117 -55.365  1.00  0.00     0.104 C 
HETATM    7  C   UNL     1     -42.516  59.688 -54.940  1.00  0.00     0.026 C 
ENDROOT
BRANCH   1   8
HETATM    8  C   UNL     1     -43.198  57.304 -55.229  1.00  0.00     0.228 C 
HETATM    9  N   UNL     1     -41.921  56.879 -54.920  1.00  0.00    -0.327 N 
HETATM   10  H   UNL     1     -41.148  57.484 -55.164  1.00  0.00     0.169 HD
HETATM   11  O   UNL     1     -44.231  56.658 -55.057  1.00  0.00    -0.273 OA
BRANCH   9  12
HETATM   12  C   UNL     1     -41.552  55.573 -54.519  1.00  0.00     0.034 A 
HETATM   13  C   UNL     1     -42.059  54.929 -53.391  1.00  0.00     0.032 A 
HETATM   14  C   UNL     1     -41.698  53.607 -53.092  1.00  0.00     0.032 A 
HETATM   15  C   UNL     1     -40.825  52.905 -53.918  1.00  0.00     0.034 A 
HETATM   16  C   UNL     1     -40.289  53.560 -55.032  1.00  0.00     0.032 A 
HETATM   17  C   UNL     1     -40.645  54.883 -55.327  1.00  0.00     0.032 A 
BRANCH  15  18
HETATM   18  N   UNL     1     -40.455  51.559 -53.714  1.00  0.00    -0.328 N 
HETATM   19  C   UNL     1     -39.652  51.054 -52.704  1.00  0.00     0.218 C 
HETATM   20  C   UNL     1     -39.529  49.551 -52.758  1.00  0.00     0.117 C 
HETATM   21  O   UNL     1     -39.100  51.686 -51.814  1.00  0.00    -0.274 OA
HETATM   22  H   UNL     1     -40.848  50.890 -54.361  1.00  0.00     0.169 HD
ENDBRANCH  15  18
ENDBRANCH   9  12
ENDBRANCH   1   8
BRANCH   2  23
HETATM   23  C   UNL     1     -43.233  57.786 -58.214  1.00  0.00    -0.001 A 
HETATM   24  C   UNL     1     -44.574  57.392 -58.411  1.00  0.00     0.076 A 
HETATM   25  C   UNL     1     -44.894  56.379 -59.321  1.00  0.00     0.037 A 
HETATM   26  C   UNL     1     -43.885  55.727 -60.024  1.00  0.00     0.003 A 
HETATM   27  C   UNL     1     -42.555  56.087 -59.825  1.00  0.00     0.001 A 
HETATM   28  C   UNL     1     -42.230  57.107 -58.929  1.00  0.00     0.012 A 
BRANCH  24  29
HETATM   29  O   UNL     1     -45.546  58.093 -57.741  1.00  0.00    -0.355 OA
HETATM   30  C   UNL     1     -46.865  57.879 -58.246  1.00  0.00     0.210 C 
ENDBRANCH  24  29
ENDBRANCH   2  23
BRANCH   3  31
HETATM   31  C   UNL     1     -43.655  60.566 -59.031  1.00  0.00     0.038 A 
HETATM   32  C   UNL     1     -42.719  60.525 -60.068  1.00  0.00     0.032 A 
HETATM   33  C   UNL     1     -43.112  60.777 -61.387  1.00  0.00     0.039 A 
HETATM   34  C   UNL     1     -44.438  61.089 -61.691  1.00  0.00     0.068 A 
HETATM   35  C   UNL     1     -45.369  61.164 -60.659  1.00  0.00     0.039 A 
HETATM   36  C   UNL     1     -44.974  60.917 -59.339  1.00  0.00     0.032 A 
BRANCH  34  37
HETATM   37  O   UNL     1     -44.690  61.302 -63.019  1.00  0.00    -0.356 OA
HETATM   38  C   UNL     1     -43.584  61.182 -63.906  1.00  0.00     0.210 C 
ENDBRANCH  34  37
ENDBRANCH   3  31
TORSDOF 7
ENDMDL
MODEL 7
REMARK VINA RESULT:      -7.0      3.701      9.213
REMARK  7 active torsions:
REMARK  status: ('A' for Active; 'I' for Inactive)
REMARK       I    between atoms: C_2  and  N_3 
REMARK    1  A    between atoms: N_3  and  C_4 
REMARK    2  A    between atoms: C_7  and  N_8 
REMARK       I    between atoms: N_8  and  C_9 
REMARK    3  A    between atoms: C_9  and  C_10 
REMARK    4  A    between atoms: C_11  and  C_12 
REMARK    5  A    between atoms: C_13  and  O_14 
REMARK    6  A    between atoms: N_20  and  C_21 
REMARK    7  A    between atoms: C_24  and  O_25 
ROOT
HETATM    1  C   UNL     1     -42.839  59.416 -53.963  1.00  0.00     0.106 C 
HETATM    2  C   UNL     1     -43.023  60.169 -55.294  1.00  0.00     0.142 C 
HETATM    3  N   UNL     1     -44.176  61.109 -55.160  1.00  0.00    -0.308 N 
HETATM    4  C   UNL     1     -44.184  61.998 -54.073  1.00  0.00     0.225 C 
HETATM    5  O   UNL     1     -44.795  63.069 -54.041  1.00  0.00    -0.273 OA
HETATM    6  C   UNL     1     -43.559  61.491 -52.778  1.00  0.00     0.104 C 
HETATM    7  C   UNL     1     -42.462  60.450 -52.906  1.00  0.00     0.026 C 
ENDROOT
BRANCH   1   8
HETATM    8  C   UNL     1     -41.836  58.266 -53.941  1.00  0.00     0.228 C 
HETATM    9  N   UNL     1     -42.361  56.991 -54.021  1.00  0.00    -0.327 N 
HETATM   10  H   UNL     1     -43.367  56.890 -54.002  1.00  0.00     0.169 HD
HETATM   11  O   UNL     1     -40.640  58.548 -53.887  1.00  0.00    -0.273 OA
BRANCH   9  12
HETATM   12  C   UNL     1     -41.638  55.783 -53.882  1.00  0.00     0.034 A 
HETATM   13  C   UNL     1     -41.493  55.092 -52.680  1.00  0.00     0.032 A 
HETATM   14  C   UNL     1     -40.819  53.863 -52.631  1.00  0.00     0.032 A 
HETATM   15  C   UNL     1     -40.280  53.302 -53.785  1.00  0.00     0.034 A 
HETATM   16  C   UNL     1     -40.395  54.009 -54.987  1.00  0.00     0.032 A 
HETATM   17  C   UNL     1     -41.063  55.240 -55.035  1.00  0.00     0.032 A 
BRANCH  15  18
HETATM   18  N   UNL     1     -39.634  52.049 -53.826  1.00  0.00    -0.328 N 
HETATM   19  C   UNL     1     -40.187  50.830 -54.185  1.00  0.00     0.218 C 
HETATM   20  C   UNL     1     -39.176  49.710 -54.181  1.00  0.00     0.117 C 
HETATM   21  O   UNL     1     -41.346  50.614 -54.515  1.00  0.00    -0.274 OA
HETATM   22  H   UNL     1     -38.649  52.052 -53.597  1.00  0.00     0.169 HD
ENDBRANCH  15  18
ENDBRANCH   9  12
ENDBRANCH   1   8
BRANCH   2  23
HETATM   23  C   UNL     1     -42.948  59.306 -56.553  1.00  0.00    -0.001 A 
HETATM   24  C   UNL     1     -41.986  59.589 -57.547  1.00  0.00     0.076 A 
HETATM   25  C   UNL     1     -41.869  58.776 -58.680  1.00  0.00     0.037 A 
HETATM   26  C   UNL     1     -42.724  57.691 -58.852  1.00  0.00     0.003 A 
HETATM   27  C   UNL     1     -43.693  57.410 -57.893  1.00  0.00     0.001 A 
HETATM   28  C   UNL     1     -43.805  58.208 -56.754  1.00  0.00     0.012 A 
BRANCH  24  29
HETATM   29  O   UNL     1     -41.126  60.634 -57.318  1.00  0.00    -0.355 OA
HETATM   30  C   UNL     1     -40.978  61.516 -58.432  1.00  0.00     0.210 C 
ENDBRANCH  24  29
ENDBRANCH   2  23
BRANCH   3  31
HETATM   31  C   UNL     1     -44.977  61.402 -56.307  1.00  0.00     0.038 A 
HETATM   32  C   UNL     1     -46.245  60.843 -56.490  1.00  0.00     0.032 A 
HETATM   33  C   UNL     1     -46.999  61.154 -57.627  1.00  0.00     0.039 A 
HETATM   34  C   UNL     1     -46.496  62.013 -58.606  1.00  0.00     0.068 A 
HETATM   35  C   UNL     1     -45.221  62.547 -58.447  1.00  0.00     0.039 A 
HETATM   36  C   UNL     1     -44.465  62.231 -57.312  1.00  0.00     0.032 A 
BRANCH  34  37
HETATM   37  O   UNL     1     -47.338  62.241 -59.660  1.00  0.00    -0.356 OA
HETATM   38  C   UNL     1     -47.850  61.094 -60.328  1.00  0.00     0.210 C 
ENDBRANCH  34  37
ENDBRANCH   3  31
TORSDOF 7
ENDMDL
MODEL 8
REMARK VINA RESULT:      -7.0      4.778      8.307
REMARK  7 active torsions:
REMARK  status: ('A' for Active; 'I' for Inactive)
REMARK       I    between atoms: C_2  and  N_3 
REMARK    1  A    between atoms: N_3  and  C_4 
REMARK    2  A    between atoms: C_7  and  N_8 
REMARK       I    between atoms: N_8  and  C_9 
REMARK    3  A    between atoms: C_9  and  C_10 
REMARK    4  A    between atoms: C_11  and  C_12 
REMARK    5  A    between atoms: C_13  and  O_14 
REMARK    6  A    between atoms: N_20  and  C_21 
REMARK    7  A    between atoms: C_24  and  O_25 
ROOT
HETATM    1  C   UNL     1     -43.028  55.938 -57.731  1.00  0.00     0.106 C 
HETATM    2  C   UNL     1     -44.000  57.127 -57.861  1.00  0.00     0.142 C 
HETATM    3  N   UNL     1     -44.389  57.276 -59.294  1.00  0.00    -0.308 N 
HETATM    4  C   UNL     1     -44.882  56.147 -59.968  1.00  0.00     0.225 C 
HETATM    5  O   UNL     1     -45.611  56.180 -60.963  1.00  0.00    -0.273 OA
HETATM    6  C   UNL     1     -44.297  54.801 -59.554  1.00  0.00     0.104 C 
HETATM    7  C   UNL     1     -43.796  54.680 -58.126  1.00  0.00     0.026 C 
ENDROOT
BRANCH   1   8
HETATM    8  C   UNL     1     -42.355  55.728 -56.378  1.00  0.00     0.228 C 
HETATM    9  N   UNL     1     -42.617  54.531 -55.740  1.00  0.00    -0.327 N 
HETATM   10  H   UNL     1     -43.299  53.911 -56.157  1.00  0.00     0.169 HD
HETATM   11  O   UNL     1     -41.606  56.612 -55.965  1.00  0.00    -0.273 OA
BRANCH   9  12
HETATM   12  C   UNL     1     -42.216  54.181 -54.429  1.00  0.00     0.034 A 
HETATM   13  C   UNL     1     -40.962  53.665 -54.106  1.00  0.00     0.032 A 
HETATM   14  C   UNL     1     -40.610  53.404 -52.773  1.00  0.00     0.032 A 
HETATM   15  C   UNL     1     -41.507  53.658 -51.740  1.00  0.00     0.034 A 
HETATM   16  C   UNL     1     -42.779  54.144 -52.063  1.00  0.00     0.032 A 
HETATM   17  C   UNL     1     -43.131  54.399 -53.396  1.00  0.00     0.032 A 
BRANCH  15  18
HETATM   18  N   UNL     1     -41.210  53.470 -50.374  1.00  0.00    -0.328 N 
HETATM   19  C   UNL     1     -40.598  54.369 -49.516  1.00  0.00     0.218 C 
HETATM   20  C   UNL     1     -40.506  53.852 -48.101  1.00  0.00     0.117 C 
HETATM   21  O   UNL     1     -40.184  55.487 -49.792  1.00  0.00    -0.274 OA
HETATM   22  H   UNL     1     -41.509  52.590 -49.974  1.00  0.00     0.169 HD
ENDBRANCH  15  18
ENDBRANCH   9  12
ENDBRANCH   1   8
BRANCH   2  23
HETATM   23  C   UNL     1     -43.601  58.388 -57.094  1.00  0.00    -0.001 A 
HETATM   24  C   UNL     1     -44.340  58.787 -55.959  1.00  0.00     0.076 A 
HETATM   25  C   UNL     1     -43.957  59.908 -55.216  1.00  0.00     0.037 A 
HETATM   26  C   UNL     1     -42.852  60.661 -55.606  1.00  0.00     0.003 A 
HETATM   27  C   UNL     1     -42.125  60.295 -56.735  1.00  0.00     0.001 A 
HETATM   28  C   UNL     1     -42.494  59.169 -57.473  1.00  0.00     0.012 A 
BRANCH  24  29
HETATM   29  O   UNL     1     -45.390  57.991 -55.574  1.00  0.00    -0.355 OA
HETATM   30  C   UNL     1     -45.130  57.218 -54.402  1.00  0.00     0.210 C 
ENDBRANCH  24  29
ENDBRANCH   2  23
BRANCH   3  31
HETATM   31  C   UNL     1     -44.679  58.577 -59.810  1.00  0.00     0.038 A 
HETATM   32  C   UNL     1     -45.820  59.290 -59.429  1.00  0.00     0.032 A 
HETATM   33  C   UNL     1     -46.070  60.561 -59.957  1.00  0.00     0.039 A 
HETATM   34  C   UNL     1     -45.197  61.136 -60.883  1.00  0.00     0.068 A 
HETATM   35  C   UNL     1     -44.077  60.418 -61.292  1.00  0.00     0.039 A 
HETATM   36  C   UNL     1     -43.831  59.144 -60.767  1.00  0.00     0.032 A 
BRANCH  34  37
HETATM   37  O   UNL     1     -45.552  62.385 -61.311  1.00  0.00    -0.356 OA
HETATM   38  C   UNL     1     -44.495  63.243 -61.726  1.00  0.00     0.210 C 
ENDBRANCH  34  37
ENDBRANCH   3  31
TORSDOF 7
ENDMDL
MODEL 9
REMARK VINA RESULT:      -6.9      4.801      8.571
REMARK  7 active torsions:
REMARK  status: ('A' for Active; 'I' for Inactive)
REMARK       I    between atoms: C_2  and  N_3 
REMARK    1  A    between atoms: N_3  and  C_4 
REMARK    2  A    between atoms: C_7  and  N_8 
REMARK       I    between atoms: N_8  and  C_9 
REMARK    3  A    between atoms: C_9  and  C_10 
REMARK    4  A    between atoms: C_11  and  C_12 
REMARK    5  A    between atoms: C_13  and  O_14 
REMARK    6  A    between atoms: N_20  and  C_21 
REMARK    7  A    between atoms: C_24  and  O_25 
ROOT
HETATM    1  C   UNL     1     -43.602  55.918 -58.280  1.00  0.00     0.106 C 
HETATM    2  C   UNL     1     -44.838  56.834 -58.199  1.00  0.00     0.142 C 
HETATM    3  N   UNL     1     -45.341  57.087 -59.582  1.00  0.00    -0.308 N 
HETATM    4  C   UNL     1     -45.587  55.981 -60.411  1.00  0.00     0.225 C 
HETATM    5  O   UNL     1     -46.363  55.975 -61.370  1.00  0.00    -0.273 OA
HETATM    6  C   UNL     1     -44.669  54.777 -60.226  1.00  0.00     0.104 C 
HETATM    7  C   UNL     1     -44.066  54.580 -58.847  1.00  0.00     0.026 C 
ENDROOT
BRANCH   1   8
HETATM    8  C   UNL     1     -42.815  55.688 -56.993  1.00  0.00     0.228 C 
HETATM    9  N   UNL     1     -43.234  54.643 -56.194  1.00  0.00    -0.327 N 
HETATM   10  H   UNL     1     -44.080  54.154 -56.458  1.00  0.00     0.169 HD
HETATM   11  O   UNL     1     -41.849  56.418 -56.772  1.00  0.00    -0.273 OA
BRANCH   9  12
HETATM   12  C   UNL     1     -42.746  54.334 -54.902  1.00  0.00     0.034 A 
HETATM   13  C   UNL     1     -41.523  53.711 -54.657  1.00  0.00     0.032 A 
HETATM   14  C   UNL     1     -41.072  53.497 -53.346  1.00  0.00     0.032 A 
HETATM   15  C   UNL     1     -41.837  53.905 -52.257  1.00  0.00     0.034 A 
HETATM   16  C   UNL     1     -43.080  54.500 -52.499  1.00  0.00     0.032 A 
HETATM   17  C   UNL     1     -43.533  54.708 -53.810  1.00  0.00     0.032 A 
BRANCH  15  18
HETATM   18  N   UNL     1     -41.431  53.771 -50.913  1.00  0.00    -0.328 N 
HETATM   19  C   UNL     1     -40.913  54.758 -50.090  1.00  0.00     0.218 C 
HETATM   20  C   UNL     1     -40.655  54.267 -48.686  1.00  0.00     0.117 C 
HETATM   21  O   UNL     1     -40.695  55.926 -50.385  1.00  0.00    -0.274 OA
HETATM   22  H   UNL     1     -41.565  52.858 -50.500  1.00  0.00     0.169 HD
ENDBRANCH  15  18
ENDBRANCH   9  12
ENDBRANCH   1   8
BRANCH   2  23
HETATM   23  C   UNL     1     -44.710  58.029 -57.255  1.00  0.00    -0.001 A 
HETATM   24  C   UNL     1     -43.732  59.018 -57.497  1.00  0.00     0.076 A 
HETATM   25  C   UNL     1     -43.637  60.145 -56.673  1.00  0.00     0.037 A 
HETATM   26  C   UNL     1     -44.492  60.288 -55.584  1.00  0.00     0.003 A 
HETATM   27  C   UNL     1     -45.447  59.311 -55.317  1.00  0.00     0.001 A 
HETATM   28  C   UNL     1     -45.557  58.192 -56.143  1.00  0.00     0.012 A 
BRANCH  24  29
HETATM   29  O   UNL     1     -42.942  58.871 -58.610  1.00  0.00    -0.355 OA
HETATM   30  C   UNL     1     -42.107  59.997 -58.880  1.00  0.00     0.210 C 
ENDBRANCH  24  29
ENDBRANCH   2  23
BRANCH   3  31
HETATM   31  C   UNL     1     -45.969  58.336 -59.881  1.00  0.00     0.038 A 
HETATM   32  C   UNL     1     -47.238  58.664 -59.394  1.00  0.00     0.032 A 
HETATM   33  C   UNL     1     -47.820  59.897 -59.711  1.00  0.00     0.039 A 
HETATM   34  C   UNL     1     -47.156  60.814 -60.527  1.00  0.00     0.068 A 
HETATM   35  C   UNL     1     -45.907  60.479 -61.042  1.00  0.00     0.039 A 
HETATM   36  C   UNL     1     -45.327  59.244 -60.730  1.00  0.00     0.032 A 
BRANCH  34  37
HETATM   37  O   UNL     1     -47.831  61.983 -60.749  1.00  0.00    -0.356 OA
HETATM   38  C   UNL     1     -49.252  61.918 -60.705  1.00  0.00     0.210 C 
ENDBRANCH  34  37
ENDBRANCH   3  31
TORSDOF 7
ENDMDL
MODEL 10
REMARK VINA RESULT:      -6.9      3.510      7.965
REMARK  7 active torsions:
REMARK  status: ('A' for Active; 'I' for Inactive)
REMARK       I    between atoms: C_2  and  N_3 
REMARK    1  A    between atoms: N_3  and  C_4 
REMARK    2  A    between atoms: C_7  and  N_8 
REMARK       I    between atoms: N_8  and  C_9 
REMARK    3  A    between atoms: C_9  and  C_10 
REMARK    4  A    between atoms: C_11  and  C_12 
REMARK    5  A    between atoms: C_13  and  O_14 
REMARK    6  A    between atoms: N_20  and  C_21 
REMARK    7  A    between atoms: C_24  and  O_25 
ROOT
HETATM    1  C   UNL     1     -44.561  59.003 -54.005  1.00  0.00     0.106 C 
HETATM    2  C   UNL     1     -44.408  57.608 -53.368  1.00  0.00     0.142 C 
HETATM    3  N   UNL     1     -44.143  57.772 -51.908  1.00  0.00    -0.308 N 
HETATM    4  C   UNL     1     -45.021  58.573 -51.161  1.00  0.00     0.225 C 
HETATM    5  O   UNL     1     -45.199  58.481 -49.943  1.00  0.00    -0.273 OA
HETATM    6  C   UNL     1     -45.630  59.770 -51.885  1.00  0.00     0.104 C 
HETATM    7  C   UNL     1     -45.798  59.649 -53.389  1.00  0.00     0.026 C 
ENDROOT
BRANCH   1   8
HETATM    8  C   UNL     1     -44.646  59.073 -55.526  1.00  0.00     0.228 C 
HETATM    9  N   UNL     1     -45.866  58.753 -56.090  1.00  0.00    -0.327 N 
HETATM   10  H   UNL     1     -46.596  58.411 -55.478  1.00  0.00     0.169 HD
HETATM   11  O   UNL     1     -43.646  59.438 -56.143  1.00  0.00    -0.273 OA
BRANCH   9  12
HETATM   12  C   UNL     1     -46.136  58.618 -57.472  1.00  0.00     0.034 A 
HETATM   13  C   UNL     1     -45.544  57.661 -58.295  1.00  0.00     0.032 A 
HETATM   14  C   UNL     1     -45.912  57.542 -59.643  1.00  0.00     0.032 A 
HETATM   15  C   UNL     1     -46.880  58.377 -60.192  1.00  0.00     0.034 A 
HETATM   16  C   UNL     1     -47.452  59.361 -59.377  1.00  0.00     0.032 A 
HETATM   17  C   UNL     1     -47.080  59.483 -58.031  1.00  0.00     0.032 A 
BRANCH  15  18
HETATM   18  N   UNL     1     -47.339  58.287 -61.522  1.00  0.00    -0.328 N 
HETATM   19  C   UNL     1     -48.133  57.293 -62.071  1.00  0.00     0.218 C 
HETATM   20  C   UNL     1     -48.486  57.561 -63.513  1.00  0.00     0.117 C 
HETATM   21  O   UNL     1     -48.568  56.299 -61.504  1.00  0.00    -0.274 OA
HETATM   22  H   UNL     1     -47.082  59.052 -62.131  1.00  0.00     0.169 HD
ENDBRANCH  15  18
ENDBRANCH   9  12
ENDBRANCH   1   8
BRANCH   2  23
HETATM   23  C   UNL     1     -43.537  56.623 -54.147  1.00  0.00    -0.001 A 
HETATM   24  C   UNL     1     -42.189  56.939 -54.425  1.00  0.00     0.076 A 
HETATM   25  C   UNL     1     -41.364  56.025 -55.089  1.00  0.00     0.037 A 
HETATM   26  C   UNL     1     -41.874  54.800 -55.510  1.00  0.00     0.003 A 
HETATM   27  C   UNL     1     -43.207  54.481 -55.265  1.00  0.00     0.001 A 
HETATM   28  C   UNL     1     -44.032  55.382 -54.589  1.00  0.00     0.012 A 
BRANCH  24  29
HETATM   29  O   UNL     1     -41.706  58.132 -53.949  1.00  0.00    -0.355 OA
HETATM   30  C   UNL     1     -40.370  58.057 -53.449  1.00  0.00     0.210 C 
ENDBRANCH  24  29
ENDBRANCH   2  23
BRANCH   3  31
HETATM   31  C   UNL     1     -43.329  56.811 -51.232  1.00  0.00     0.038 A 
HETATM   32  C   UNL     1     -43.750  55.493 -51.030  1.00  0.00     0.032 A 
HETATM   33  C   UNL     1     -42.925  54.581 -50.362  1.00  0.00     0.039 A 
HETATM   34  C   UNL     1     -41.677  54.970 -49.871  1.00  0.00     0.068 A 
HETATM   35  C   UNL     1     -41.267  56.290 -50.039  1.00  0.00     0.039 A 
HETATM   36  C   UNL     1     -42.094  57.203 -50.703  1.00  0.00     0.032 A 
BRANCH  34  37
HETATM   37  O   UNL     1     -40.968  53.980 -49.248  1.00  0.00    -0.356 OA
HETATM   38  C   UNL     1     -40.500  52.917 -50.070  1.00  0.00     0.210 C 
ENDBRANCH  34  37
ENDBRANCH   3  31
TORSDOF 7
ENDMDL
