MODEL 1
REMARK VINA RESULT:      -8.5      0.000      0.000
REMARK  8 active torsions:
REMARK  status: ('A' for Active; 'I' for Inactive)
REMARK    1  A    between atoms: C_2  and  C_3 
REMARK    2  A    between atoms: C_6  and  N_7 
REMARK       I    between atoms: N_7  and  C_8 
REMARK    3  A    between atoms: C_8  and  C_9 
REMARK    4  A    between atoms: C_9  and  N_10 
REMARK    5  A    between atoms: C_13  and  C_14 
REMARK       I    between atoms: C_14  and  N_15 
REMARK    6  A    between atoms: N_15  and  C_16 
REMARK    7  A    between atoms: C_17  and  O_18 
REMARK    8  A    between atoms: C_26  and  N_27 
ROOT
HETATM    1  N   UNL     1     -45.106  59.322 -50.898  1.00  0.00    -0.248 N 
HETATM    2  N   UNL     1     -45.752  58.164 -50.626  1.00  0.00     0.007 NA
HETATM    3  N   UNL     1     -44.906  57.174 -50.848  1.00  0.00    -0.150 NA
HETATM    4  C   UNL     1     -43.722  57.710 -51.310  1.00  0.00     0.187 A 
HETATM    5  C   UNL     1     -43.833  59.090 -51.354  1.00  0.00     0.151 A 
ENDROOT
BRANCH   1   6
HETATM    6  C   UNL     1     -45.784  60.572 -50.634  1.00  0.00     0.251 C 
BRANCH   6   7
HETATM    7  C   UNL     1     -45.138  61.358 -49.505  1.00  0.00     0.241 C 
HETATM    8  N   UNL     1     -45.713  61.152 -48.261  1.00  0.00    -0.326 N 
HETATM    9  H   UNL     1     -46.423  60.421 -48.203  1.00  0.00     0.169 HD
HETATM   10  O   UNL     1     -44.230  62.148 -49.754  1.00  0.00    -0.271 OA
BRANCH   8  11
HETATM   11  C   UNL     1     -45.399  61.773 -47.037  1.00  0.00     0.034 A 
HETATM   12  C   UNL     1     -45.636  63.117 -46.755  1.00  0.00     0.030 A 
HETATM   13  C   UNL     1     -45.307  63.644 -45.499  1.00  0.00     0.009 A 
HETATM   14  C   UNL     1     -44.729  62.838 -44.511  1.00  0.00    -0.058 A 
HETATM   15  C   UNL     1     -44.494  61.489 -44.796  1.00  0.00     0.009 A 
HETATM   16  C   UNL     1     -44.829  60.963 -46.047  1.00  0.00     0.030 A 
BRANCH  14  17
HETATM   17  C   UNL     1     -44.397  63.403 -43.154  1.00  0.00     0.034 C 
HETATM   18  C   UNL     1     -43.075  62.864 -42.627  1.00  0.00     0.010 C 
ENDBRANCH  14  17
ENDBRANCH   8  11
ENDBRANCH   6   7
ENDBRANCH   1   6
BRANCH   5  19
HETATM   19  N   UNL     1     -42.964  60.057 -51.719  1.00  0.00    -0.382 N 
HETATM   20  H   UNL     1     -41.977  59.956 -51.462  1.00  0.00     0.157 HD
HETATM   21  H   UNL     1     -43.215  61.009 -51.972  1.00  0.00     0.157 HD
ENDBRANCH   5  19
BRANCH   4  22
HETATM   22  C   UNL     1     -42.561  56.879 -51.631  1.00  0.00     0.280 C 
HETATM   23  N   UNL     1     -42.697  55.607 -51.102  1.00  0.00    -0.319 N 
HETATM   24  H   UNL     1     -43.469  55.514 -50.450  1.00  0.00     0.169 HD
HETATM   25  O   UNL     1     -41.596  57.336 -52.230  1.00  0.00    -0.265 OA
BRANCH  23  26
HETATM   26  C   UNL     1     -41.784  54.534 -51.151  1.00  0.00     0.069 A 
HETATM   27  C   UNL     1     -41.219  53.878 -50.051  1.00  0.00     0.095 A 
HETATM   28  C   UNL     1     -40.389  52.766 -50.239  1.00  0.00     0.039 A 
HETATM   29  C   UNL     1     -40.064  52.334 -51.525  1.00  0.00     0.009 A 
HETATM   30  C   UNL     1     -40.566  53.011 -52.638  1.00  0.00    -0.060 A 
HETATM   31  C   UNL     1     -40.217  52.576 -54.030  1.00  0.00     0.048 C 
HETATM   32  C   UNL     1     -41.412  54.113 -52.440  1.00  0.00     0.039 A 
BRANCH  27  33
HETATM   33  O   UNL     1     -41.383  54.273 -48.751  1.00  0.00    -0.354 OA
HETATM   34  C   UNL     1     -40.249  53.907 -47.965  1.00  0.00     0.210 C 
ENDBRANCH  27  33
ENDBRANCH  23  26
ENDBRANCH   4  22
TORSDOF 8
ENDMDL
MODEL 2
REMARK VINA RESULT:      -8.5      1.480      2.485
REMARK  8 active torsions:
REMARK  status: ('A' for Active; 'I' for Inactive)
REMARK    1  A    between atoms: C_2  and  C_3 
REMARK    2  A    between atoms: C_6  and  N_7 
REMARK       I    between atoms: N_7  and  C_8 
REMARK    3  A    between atoms: C_8  and  C_9 
REMARK    4  A    between atoms: C_9  and  N_10 
REMARK    5  A    between atoms: C_13  and  C_14 
REMARK       I    between atoms: C_14  and  N_15 
REMARK    6  A    between atoms: N_15  and  C_16 
REMARK    7  A    between atoms: C_17  and  O_18 
REMARK    8  A    between atoms: C_26  and  N_27 
ROOT
HETATM    1  N   UNL     1     -45.350  59.659 -50.696  1.00  0.00    -0.248 N 
HETATM    2  N   UNL     1     -45.906  58.475 -50.349  1.00  0.00     0.007 NA
HETATM    3  N   UNL     1     -45.209  57.520 -50.939  1.00  0.00    -0.150 NA
HETATM    4  C   UNL     1     -44.226  58.109 -51.706  1.00  0.00     0.187 A 
HETATM    5  C   UNL     1     -44.305  59.486 -51.567  1.00  0.00     0.151 A 
ENDROOT
BRANCH   1   6
HETATM    6  C   UNL     1     -45.866  60.869 -50.095  1.00  0.00     0.251 C 
BRANCH   6   7
HETATM    7  C   UNL     1     -45.035  61.331 -48.910  1.00  0.00     0.241 C 
HETATM    8  N   UNL     1     -45.727  61.392 -47.712  1.00  0.00    -0.326 N 
HETATM    9  H   UNL     1     -46.676  61.016 -47.716  1.00  0.00     0.169 HD
HETATM   10  O   UNL     1     -43.867  61.678 -49.084  1.00  0.00    -0.271 OA
BRANCH   8  11
HETATM   11  C   UNL     1     -45.271  61.842 -46.458  1.00  0.00     0.034 A 
HETATM   12  C   UNL     1     -45.413  63.147 -45.993  1.00  0.00     0.030 A 
HETATM   13  C   UNL     1     -44.943  63.498 -44.720  1.00  0.00     0.009 A 
HETATM   14  C   UNL     1     -44.318  62.553 -43.900  1.00  0.00    -0.058 A 
HETATM   15  C   UNL     1     -44.178  61.243 -44.368  1.00  0.00     0.009 A 
HETATM   16  C   UNL     1     -44.652  60.892 -45.634  1.00  0.00     0.030 A 
BRANCH  14  17
HETATM   17  C   UNL     1     -43.834  62.930 -42.523  1.00  0.00     0.034 C 
HETATM   18  C   UNL     1     -42.688  63.928 -42.580  1.00  0.00     0.010 C 
ENDBRANCH  14  17
ENDBRANCH   8  11
ENDBRANCH   6   7
ENDBRANCH   1   6
BRANCH   5  19
HETATM   19  N   UNL     1     -43.574  60.492 -52.095  1.00  0.00    -0.382 N 
HETATM   20  H   UNL     1     -43.713  60.737 -53.081  1.00  0.00     0.157 HD
HETATM   21  H   UNL     1     -42.704  60.850 -51.713  1.00  0.00     0.157 HD
ENDBRANCH   5  19
BRANCH   4  22
HETATM   22  C   UNL     1     -43.260  57.325 -52.476  1.00  0.00     0.280 C 
HETATM   23  N   UNL     1     -43.362  55.977 -52.178  1.00  0.00    -0.319 N 
HETATM   24  H   UNL     1     -43.946  55.778 -51.373  1.00  0.00     0.169 HD
HETATM   25  O   UNL     1     -42.446  57.864 -53.215  1.00  0.00    -0.265 OA
BRANCH  23  26
HETATM   26  C   UNL     1     -42.585  54.909 -52.670  1.00  0.00     0.069 A 
HETATM   27  C   UNL     1     -42.624  54.388 -53.969  1.00  0.00     0.095 A 
HETATM   28  C   UNL     1     -41.734  53.378 -54.354  1.00  0.00     0.039 A 
HETATM   29  C   UNL     1     -40.839  52.834 -53.434  1.00  0.00     0.009 A 
HETATM   30  C   UNL     1     -40.824  53.295 -52.117  1.00  0.00    -0.060 A 
HETATM   31  C   UNL     1     -39.882  52.713 -51.104  1.00  0.00     0.048 C 
HETATM   32  C   UNL     1     -41.707  54.319 -51.743  1.00  0.00     0.039 A 
BRANCH  27  33
HETATM   33  O   UNL     1     -43.525  54.771 -54.926  1.00  0.00    -0.354 OA
HETATM   34  C   UNL     1     -42.865  55.437 -56.002  1.00  0.00     0.210 C 
ENDBRANCH  27  33
ENDBRANCH  23  26
ENDBRANCH   4  22
TORSDOF 8
ENDMDL
MODEL 3
REMARK VINA RESULT:      -8.4      2.370      9.903
REMARK  8 active torsions:
REMARK  status: ('A' for Active; 'I' for Inactive)
REMARK    1  A    between atoms: C_2  and  C_3 
REMARK    2  A    between atoms: C_6  and  N_7 
REMARK       I    between atoms: N_7  and  C_8 
REMARK    3  A    between atoms: C_8  and  C_9 
REMARK    4  A    between atoms: C_9  and  N_10 
REMARK    5  A    between atoms: C_13  and  C_14 
REMARK       I    between atoms: C_14  and  N_15 
REMARK    6  A    between atoms: N_15  and  C_16 
REMARK    7  A    between atoms: C_17  and  O_18 
REMARK    8  A    between atoms: C_26  and  N_27 
ROOT
HETATM    1  N   UNL     1     -43.495  58.257 -52.981  1.00  0.00    -0.248 N 
HETATM    2  N   UNL     1     -44.168  57.253 -52.370  1.00  0.00     0.007 NA
HETATM    3  N   UNL     1     -44.950  57.797 -51.454  1.00  0.00    -0.150 NA
HETATM    4  C   UNL     1     -44.737  59.160 -51.455  1.00  0.00     0.187 A 
HETATM    5  C   UNL     1     -43.800  59.474 -52.427  1.00  0.00     0.151 A 
ENDROOT
BRANCH   1   6
HETATM    6  C   UNL     1     -42.642  57.936 -54.103  1.00  0.00     0.251 C 
BRANCH   6   7
HETATM    7  C   UNL     1     -42.392  56.443 -54.237  1.00  0.00     0.241 C 
HETATM    8  N   UNL     1     -41.473  55.931 -53.335  1.00  0.00    -0.326 N 
HETATM    9  H   UNL     1     -41.147  56.569 -52.608  1.00  0.00     0.169 HD
HETATM   10  O   UNL     1     -42.940  55.812 -55.140  1.00  0.00    -0.271 OA
BRANCH   8  11
HETATM   11  C   UNL     1     -40.974  54.618 -53.242  1.00  0.00     0.034 A 
HETATM   12  C   UNL     1     -40.790  53.931 -52.043  1.00  0.00     0.030 A 
HETATM   13  C   UNL     1     -40.305  52.617 -52.050  1.00  0.00     0.009 A 
HETATM   14  C   UNL     1     -39.989  51.974 -53.252  1.00  0.00    -0.058 A 
HETATM   15  C   UNL     1     -40.176  52.665 -54.454  1.00  0.00     0.009 A 
HETATM   16  C   UNL     1     -40.666  53.973 -54.447  1.00  0.00     0.030 A 
BRANCH  14  17
HETATM   17  C   UNL     1     -39.489  50.552 -53.256  1.00  0.00     0.034 C 
HETATM   18  C   UNL     1     -39.670  49.895 -54.616  1.00  0.00     0.010 C 
ENDBRANCH  14  17
ENDBRANCH   8  11
ENDBRANCH   6   7
ENDBRANCH   1   6
BRANCH   5  19
HETATM   19  N   UNL     1     -43.266  60.650 -52.822  1.00  0.00    -0.382 N 
HETATM   20  H   UNL     1     -42.532  61.076 -52.248  1.00  0.00     0.157 HD
HETATM   21  H   UNL     1     -43.699  61.304 -53.468  1.00  0.00     0.157 HD
ENDBRANCH   5  19
BRANCH   4  22
HETATM   22  C   UNL     1     -45.468  60.065 -50.568  1.00  0.00     0.280 C 
HETATM   23  N   UNL     1     -44.815  60.210 -49.356  1.00  0.00    -0.319 N 
HETATM   24  H   UNL     1     -44.056  59.551 -49.217  1.00  0.00     0.169 HD
HETATM   25  O   UNL     1     -46.550  60.540 -50.891  1.00  0.00    -0.265 OA
BRANCH  23  26
HETATM   26  C   UNL     1     -45.215  60.955 -48.228  1.00  0.00     0.069 A 
HETATM   27  C   UNL     1     -45.964  60.478 -47.146  1.00  0.00     0.095 A 
HETATM   28  C   UNL     1     -46.220  61.302 -46.044  1.00  0.00     0.039 A 
HETATM   29  C   UNL     1     -45.787  62.628 -46.034  1.00  0.00     0.009 A 
HETATM   30  C   UNL     1     -45.091  63.143 -47.129  1.00  0.00    -0.060 A 
HETATM   31  C   UNL     1     -44.630  64.571 -47.150  1.00  0.00     0.048 C 
HETATM   32  C   UNL     1     -44.823  62.305 -48.222  1.00  0.00     0.039 A 
BRANCH  27  33
HETATM   33  O   UNL     1     -46.527  59.231 -47.088  1.00  0.00    -0.354 OA
HETATM   34  C   UNL     1     -46.900  58.908 -45.749  1.00  0.00     0.210 C 
ENDBRANCH  27  33
ENDBRANCH  23  26
ENDBRANCH   4  22
TORSDOF 8
ENDMDL
MODEL 4
REMARK VINA RESULT:      -8.3      6.621      8.966
REMARK  8 active torsions:
REMARK  status: ('A' for Active; 'I' for Inactive)
REMARK    1  A    between atoms: C_2  and  C_3 
REMARK    2  A    between atoms: C_6  and  N_7 
REMARK       I    between atoms: N_7  and  C_8 
REMARK    3  A    between atoms: C_8  and  C_9 
REMARK    4  A    between atoms: C_9  and  N_10 
REMARK    5  A    between atoms: C_13  and  C_14 
REMARK       I    between atoms: C_14  and  N_15 
REMARK    6  A    between atoms: N_15  and  C_16 
REMARK    7  A    between atoms: C_17  and  O_18 
REMARK    8  A    between atoms: C_26  and  N_27 
ROOT
HETATM    1  N   UNL     1     -43.726  57.333 -56.274  1.00  0.00    -0.248 N 
HETATM    2  N   UNL     1     -42.473  57.100 -56.729  1.00  0.00     0.007 NA
HETATM    3  N   UNL     1     -41.935  56.172 -55.958  1.00  0.00    -0.150 NA
HETATM    4  C   UNL     1     -42.844  55.843 -54.974  1.00  0.00     0.187 A 
HETATM    5  C   UNL     1     -44.001  56.585 -55.158  1.00  0.00     0.151 A 
ENDROOT
BRANCH   1   6
HETATM    6  C   UNL     1     -44.574  58.242 -57.014  1.00  0.00     0.251 C 
BRANCH   6   7
HETATM    7  C   UNL     1     -43.883  59.558 -57.328  1.00  0.00     0.241 C 
HETATM    8  N   UNL     1     -42.950  59.487 -58.350  1.00  0.00    -0.326 N 
HETATM    9  H   UNL     1     -42.903  58.605 -58.861  1.00  0.00     0.169 HD
HETATM   10  O   UNL     1     -44.125  60.552 -56.645  1.00  0.00    -0.271 OA
BRANCH   8  11
HETATM   11  C   UNL     1     -42.098  60.500 -58.831  1.00  0.00     0.034 A 
HETATM   12  C   UNL     1     -41.235  61.246 -58.031  1.00  0.00     0.030 A 
HETATM   13  C   UNL     1     -40.409  62.222 -58.603  1.00  0.00     0.009 A 
HETATM   14  C   UNL     1     -40.440  62.473 -59.980  1.00  0.00    -0.058 A 
HETATM   15  C   UNL     1     -41.306  61.722 -60.781  1.00  0.00     0.009 A 
HETATM   16  C   UNL     1     -42.125  60.744 -60.211  1.00  0.00     0.030 A 
BRANCH  14  17
HETATM   17  C   UNL     1     -39.534  63.508 -60.594  1.00  0.00     0.034 C 
HETATM   18  C   UNL     1     -38.507  64.023 -59.596  1.00  0.00     0.010 C 
ENDBRANCH  14  17
ENDBRANCH   8  11
ENDBRANCH   6   7
ENDBRANCH   1   6
BRANCH   5  19
HETATM   19  N   UNL     1     -45.168  56.624 -54.479  1.00  0.00    -0.382 N 
HETATM   20  H   UNL     1     -45.951  57.154 -54.875  1.00  0.00     0.157 HD
HETATM   21  H   UNL     1     -45.278  56.428 -53.488  1.00  0.00     0.157 HD
ENDBRANCH   5  19
BRANCH   4  22
HETATM   22  C   UNL     1     -42.568  54.823 -53.964  1.00  0.00     0.280 C 
HETATM   23  N   UNL     1     -41.295  54.301 -54.118  1.00  0.00    -0.319 N 
HETATM   24  H   UNL     1     -40.841  54.574 -54.983  1.00  0.00     0.169 HD
HETATM   25  O   UNL     1     -43.423  54.470 -53.162  1.00  0.00    -0.265 OA
BRANCH  23  26
HETATM   26  C   UNL     1     -40.672  53.276 -53.378  1.00  0.00     0.069 A 
HETATM   27  C   UNL     1     -40.354  53.315 -52.015  1.00  0.00     0.095 A 
HETATM   28  C   UNL     1     -39.812  52.190 -51.382  1.00  0.00     0.039 A 
HETATM   29  C   UNL     1     -39.524  51.036 -52.111  1.00  0.00     0.009 A 
HETATM   30  C   UNL     1     -39.775  50.996 -53.483  1.00  0.00    -0.060 A 
HETATM   31  C   UNL     1     -39.457  49.772 -54.291  1.00  0.00     0.048 C 
HETATM   32  C   UNL     1     -40.334  52.121 -54.107  1.00  0.00     0.039 A 
BRANCH  27  33
HETATM   33  O   UNL     1     -40.497  54.421 -51.223  1.00  0.00    -0.354 OA
HETATM   34  C   UNL     1     -40.095  54.138 -49.883  1.00  0.00     0.210 C 
ENDBRANCH  27  33
ENDBRANCH  23  26
ENDBRANCH   4  22
TORSDOF 8
ENDMDL
MODEL 5
REMARK VINA RESULT:      -8.2      2.271     10.102
REMARK  8 active torsions:
REMARK  status: ('A' for Active; 'I' for Inactive)
REMARK    1  A    between atoms: C_2  and  C_3 
REMARK    2  A    between atoms: C_6  and  N_7 
REMARK       I    between atoms: N_7  and  C_8 
REMARK    3  A    between atoms: C_8  and  C_9 
REMARK    4  A    between atoms: C_9  and  N_10 
REMARK    5  A    between atoms: C_13  and  C_14 
REMARK       I    between atoms: C_14  and  N_15 
REMARK    6  A    between atoms: N_15  and  C_16 
REMARK    7  A    between atoms: C_17  and  O_18 
REMARK    8  A    between atoms: C_26  and  N_27 
ROOT
HETATM    1  N   UNL     1     -43.171  59.148 -53.363  1.00  0.00    -0.248 N 
HETATM    2  N   UNL     1     -42.653  60.344 -52.997  1.00  0.00     0.007 NA
HETATM    3  N   UNL     1     -43.278  60.730 -51.899  1.00  0.00    -0.150 NA
HETATM    4  C   UNL     1     -44.235  59.787 -51.589  1.00  0.00     0.187 A 
HETATM    5  C   UNL     1     -44.186  58.764 -52.523  1.00  0.00     0.151 A 
ENDROOT
BRANCH   1   6
HETATM    6  C   UNL     1     -42.584  58.453 -54.487  1.00  0.00     0.251 C 
BRANCH   6   7
HETATM    7  C   UNL     1     -41.616  57.363 -54.057  1.00  0.00     0.241 C 
HETATM    8  N   UNL     1     -42.056  56.074 -54.310  1.00  0.00    -0.326 N 
HETATM    9  H   UNL     1     -42.914  55.985 -54.855  1.00  0.00     0.169 HD
HETATM   10  O   UNL     1     -40.578  57.667 -53.472  1.00  0.00    -0.271 OA
BRANCH   8  11
HETATM   11  C   UNL     1     -41.435  54.855 -53.975  1.00  0.00     0.034 A 
HETATM   12  C   UNL     1     -41.422  54.307 -52.694  1.00  0.00     0.030 A 
HETATM   13  C   UNL     1     -40.795  53.077 -52.459  1.00  0.00     0.009 A 
HETATM   14  C   UNL     1     -40.164  52.382 -53.498  1.00  0.00    -0.058 A 
HETATM   15  C   UNL     1     -40.180  52.934 -54.783  1.00  0.00     0.009 A 
HETATM   16  C   UNL     1     -40.812  54.157 -55.018  1.00  0.00     0.030 A 
BRANCH  14  17
HETATM   17  C   UNL     1     -39.509  51.048 -53.245  1.00  0.00     0.034 C 
HETATM   18  C   UNL     1     -39.806  50.055 -54.359  1.00  0.00     0.010 C 
ENDBRANCH  14  17
ENDBRANCH   8  11
ENDBRANCH   6   7
ENDBRANCH   1   6
BRANCH   5  19
HETATM   19  N   UNL     1     -44.898  57.624 -52.655  1.00  0.00    -0.382 N 
HETATM   20  H   UNL     1     -44.872  57.127 -53.551  1.00  0.00     0.157 HD
HETATM   21  H   UNL     1     -45.680  57.348 -52.068  1.00  0.00     0.157 HD
ENDBRANCH   5  19
BRANCH   4  22
HETATM   22  C   UNL     1     -45.093  59.902 -50.409  1.00  0.00     0.280 C 
HETATM   23  N   UNL     1     -44.829  61.069 -49.713  1.00  0.00    -0.319 N 
HETATM   24  H   UNL     1     -43.992  61.552 -50.023  1.00  0.00     0.169 HD
HETATM   25  O   UNL     1     -45.869  59.009 -50.095  1.00  0.00    -0.265 OA
BRANCH  23  26
HETATM   26  C   UNL     1     -45.405  61.522 -48.509  1.00  0.00     0.069 A 
HETATM   27  C   UNL     1     -46.548  62.322 -48.390  1.00  0.00     0.095 A 
HETATM   28  C   UNL     1     -47.067  62.630 -47.126  1.00  0.00     0.039 A 
HETATM   29  C   UNL     1     -46.419  62.198 -45.969  1.00  0.00     0.009 A 
HETATM   30  C   UNL     1     -45.244  61.452 -46.064  1.00  0.00    -0.060 A 
HETATM   31  C   UNL     1     -44.519  60.991 -44.834  1.00  0.00     0.048 C 
HETATM   32  C   UNL     1     -44.740  61.132 -47.334  1.00  0.00     0.039 A 
BRANCH  27  33
HETATM   33  O   UNL     1     -47.208  62.886 -49.448  1.00  0.00    -0.354 OA
HETATM   34  C   UNL     1     -48.262  63.734 -48.991  1.00  0.00     0.210 C 
ENDBRANCH  27  33
ENDBRANCH  23  26
ENDBRANCH   4  22
TORSDOF 8
ENDMDL
MODEL 6
REMARK VINA RESULT:      -8.1      6.479      9.899
REMARK  8 active torsions:
REMARK  status: ('A' for Active; 'I' for Inactive)
REMARK    1  A    between atoms: C_2  and  C_3 
REMARK    2  A    between atoms: C_6  and  N_7 
REMARK       I    between atoms: N_7  and  C_8 
REMARK    3  A    between atoms: C_8  and  C_9 
REMARK    4  A    between atoms: C_9  and  N_10 
REMARK    5  A    between atoms: C_13  and  C_14 
REMARK       I    between atoms: C_14  and  N_15 
REMARK    6  A    between atoms: N_15  and  C_16 
REMARK    7  A    between atoms: C_17  and  O_18 
REMARK    8  A    between atoms: C_26  and  N_27 
ROOT
HETATM    1  N   UNL     1     -43.540  57.821 -55.321  1.00  0.00    -0.248 N 
HETATM    2  N   UNL     1     -42.213  58.060 -55.212  1.00  0.00     0.007 NA
HETATM    3  N   UNL     1     -41.688  57.075 -54.505  1.00  0.00    -0.150 NA
HETATM    4  C   UNL     1     -42.703  56.224 -54.122  1.00  0.00     0.187 A 
HETATM    5  C   UNL     1     -43.904  56.691 -54.634  1.00  0.00     0.151 A 
ENDROOT
BRANCH   1   6
HETATM    6  C   UNL     1     -44.338  58.704 -56.143  1.00  0.00     0.251 C 
BRANCH   6   7
HETATM    7  C   UNL     1     -44.659  58.104 -57.501  1.00  0.00     0.241 C 
HETATM    8  N   UNL     1     -45.915  58.429 -57.989  1.00  0.00    -0.326 N 
HETATM    9  H   UNL     1     -46.444  59.120 -57.457  1.00  0.00     0.169 HD
HETATM   10  O   UNL     1     -43.856  57.341 -58.036  1.00  0.00    -0.271 OA
BRANCH   8  11
HETATM   11  C   UNL     1     -46.538  57.984 -59.171  1.00  0.00     0.034 A 
HETATM   12  C   UNL     1     -46.633  56.648 -59.553  1.00  0.00     0.030 A 
HETATM   13  C   UNL     1     -47.290  56.298 -60.740  1.00  0.00     0.009 A 
HETATM   14  C   UNL     1     -47.852  57.278 -61.566  1.00  0.00    -0.058 A 
HETATM   15  C   UNL     1     -47.756  58.619 -61.180  1.00  0.00     0.009 A 
HETATM   16  C   UNL     1     -47.107  58.966 -59.992  1.00  0.00     0.030 A 
BRANCH  14  17
HETATM   17  C   UNL     1     -48.577  56.896 -62.831  1.00  0.00     0.034 C 
HETATM   18  C   UNL     1     -49.138  58.114 -63.549  1.00  0.00     0.010 C 
ENDBRANCH  14  17
ENDBRANCH   8  11
ENDBRANCH   6   7
ENDBRANCH   1   6
BRANCH   5  19
HETATM   19  N   UNL     1     -45.168  56.220 -54.551  1.00  0.00    -0.382 N 
HETATM   20  H   UNL     1     -45.436  55.669 -53.728  1.00  0.00     0.157 HD
HETATM   21  H   UNL     1     -45.804  56.103 -55.334  1.00  0.00     0.157 HD
ENDBRANCH   5  19
BRANCH   4  22
HETATM   22  C   UNL     1     -42.456  55.012 -53.342  1.00  0.00     0.280 C 
HETATM   23  N   UNL     1     -41.182  54.522 -53.573  1.00  0.00    -0.319 N 
HETATM   24  H   UNL     1     -40.707  54.965 -54.353  1.00  0.00     0.169 HD
HETATM   25  O   UNL     1     -43.332  54.508 -52.650  1.00  0.00    -0.265 OA
BRANCH  23  26
HETATM   26  C   UNL     1     -40.582  53.358 -53.052  1.00  0.00     0.069 A 
HETATM   27  C   UNL     1     -40.153  53.170 -51.732  1.00  0.00     0.095 A 
HETATM   28  C   UNL     1     -39.650  51.929 -51.322  1.00  0.00     0.039 A 
HETATM   29  C   UNL     1     -39.510  50.884 -52.234  1.00  0.00     0.009 A 
HETATM   30  C   UNL     1     -39.874  51.069 -53.569  1.00  0.00    -0.060 A 
HETATM   31  C   UNL     1     -39.716  49.965 -54.573  1.00  0.00     0.048 C 
HETATM   32  C   UNL     1     -40.394  52.309 -53.969  1.00  0.00     0.039 A 
BRANCH  27  33
HETATM   33  O   UNL     1     -40.147  54.150 -50.777  1.00  0.00    -0.354 OA
HETATM   34  C   UNL     1     -41.109  53.869 -49.760  1.00  0.00     0.210 C 
ENDBRANCH  27  33
ENDBRANCH  23  26
ENDBRANCH   4  22
TORSDOF 8
ENDMDL
MODEL 7
REMARK VINA RESULT:      -8.1      5.311     10.295
REMARK  8 active torsions:
REMARK  status: ('A' for Active; 'I' for Inactive)
REMARK    1  A    between atoms: C_2  and  C_3 
REMARK    2  A    between atoms: C_6  and  N_7 
REMARK       I    between atoms: N_7  and  C_8 
REMARK    3  A    between atoms: C_8  and  C_9 
REMARK    4  A    between atoms: C_9  and  N_10 
REMARK    5  A    between atoms: C_13  and  C_14 
REMARK       I    between atoms: C_14  and  N_15 
REMARK    6  A    between atoms: N_15  and  C_16 
REMARK    7  A    between atoms: C_17  and  O_18 
REMARK    8  A    between atoms: C_26  and  N_27 
ROOT
HETATM    1  N   UNL     1     -42.304  58.421 -52.762  1.00  0.00    -0.248 N 
HETATM    2  N   UNL     1     -41.040  58.881 -52.908  1.00  0.00     0.007 NA
HETATM    3  N   UNL     1     -41.000  59.590 -54.022  1.00  0.00    -0.150 NA
HETATM    4  C   UNL     1     -42.245  59.542 -54.613  1.00  0.00     0.187 A 
HETATM    5  C   UNL     1     -43.096  58.789 -53.820  1.00  0.00     0.151 A 
ENDROOT
BRANCH   1   6
HETATM    6  C   UNL     1     -42.642  57.696 -51.558  1.00  0.00     0.251 C 
BRANCH   6   7
HETATM    7  C   UNL     1     -42.513  56.191 -51.728  1.00  0.00     0.241 C 
HETATM    8  N   UNL     1     -41.307  55.777 -52.269  1.00  0.00    -0.326 N 
HETATM    9  H   UNL     1     -40.592  56.495 -52.389  1.00  0.00     0.169 HD
HETATM   10  O   UNL     1     -43.466  55.464 -51.455  1.00  0.00    -0.271 OA
BRANCH   8  11
HETATM   11  C   UNL     1     -40.904  54.472 -52.615  1.00  0.00     0.034 A 
HETATM   12  C   UNL     1     -40.998  53.935 -53.897  1.00  0.00     0.030 A 
HETATM   13  C   UNL     1     -40.553  52.632 -54.150  1.00  0.00     0.009 A 
HETATM   14  C   UNL     1     -40.017  51.843 -53.126  1.00  0.00    -0.058 A 
HETATM   15  C   UNL     1     -39.922  52.385 -51.840  1.00  0.00     0.009 A 
HETATM   16  C   UNL     1     -40.361  53.688 -51.589  1.00  0.00     0.030 A 
BRANCH  14  17
HETATM   17  C   UNL     1     -39.519  50.449 -53.407  1.00  0.00     0.034 C 
HETATM   18  C   UNL     1     -40.082  49.901 -54.710  1.00  0.00     0.010 C 
ENDBRANCH  14  17
ENDBRANCH   8  11
ENDBRANCH   6   7
ENDBRANCH   1   6
BRANCH   5  19
HETATM   19  N   UNL     1     -44.399  58.456 -53.952  1.00  0.00    -0.382 N 
HETATM   20  H   UNL     1     -44.754  58.217 -54.884  1.00  0.00     0.157 HD
HETATM   21  H   UNL     1     -45.135  58.686 -53.291  1.00  0.00     0.157 HD
ENDBRANCH   5  19
BRANCH   4  22
HETATM   22  C   UNL     1     -42.547  60.247 -55.859  1.00  0.00     0.280 C 
HETATM   23  N   UNL     1     -41.644  59.911 -56.853  1.00  0.00    -0.319 N 
HETATM   24  H   UNL     1     -40.842  59.386 -56.520  1.00  0.00     0.169 HD
HETATM   25  O   UNL     1     -43.450  61.070 -55.924  1.00  0.00    -0.265 OA
BRANCH  23  26
HETATM   26  C   UNL     1     -41.567  60.404 -58.172  1.00  0.00     0.069 A 
HETATM   27  C   UNL     1     -42.118  59.806 -59.311  1.00  0.00     0.095 A 
HETATM   28  C   UNL     1     -42.043  60.447 -60.554  1.00  0.00     0.039 A 
HETATM   29  C   UNL     1     -41.365  61.659 -60.686  1.00  0.00     0.009 A 
HETATM   30  C   UNL     1     -40.754  62.243 -59.575  1.00  0.00    -0.060 A 
HETATM   31  C   UNL     1     -40.004  63.536 -59.696  1.00  0.00     0.048 C 
HETATM   32  C   UNL     1     -40.849  61.603 -58.330  1.00  0.00     0.039 A 
BRANCH  27  33
HETATM   33  O   UNL     1     -42.717  58.575 -59.322  1.00  0.00    -0.354 OA
HETATM   34  C   UNL     1     -41.944  57.645 -60.082  1.00  0.00     0.210 C 
ENDBRANCH  27  33
ENDBRANCH  23  26
ENDBRANCH   4  22
TORSDOF 8
ENDMDL
MODEL 8
REMARK VINA RESULT:      -8.0      1.728     10.092
REMARK  8 active torsions:
REMARK  status: ('A' for Active; 'I' for Inactive)
REMARK    1  A    between atoms: C_2  and  C_3 
REMARK    2  A    between atoms: C_6  and  N_7 
REMARK       I    between atoms: N_7  and  C_8 
REMARK    3  A    between atoms: C_8  and  C_9 
REMARK    4  A    between atoms: C_9  and  N_10 
REMARK    5  A    between atoms: C_13  and  C_14 
REMARK       I    between atoms: C_14  and  N_15 
REMARK    6  A    between atoms: N_15  and  C_16 
REMARK    7  A    between atoms: C_17  and  O_18 
REMARK    8  A    between atoms: C_26  and  N_27 
ROOT
HETATM    1  N   UNL     1     -44.933  58.371 -51.943  1.00  0.00    -0.248 N 
HETATM    2  N   UNL     1     -45.733  57.847 -50.984  1.00  0.00     0.007 NA
HETATM    3  N   UNL     1     -45.820  58.735 -50.010  1.00  0.00    -0.150 NA
HETATM    4  C   UNL     1     -45.029  59.817 -50.335  1.00  0.00     0.187 A 
HETATM    5  C   UNL     1     -44.446  59.598 -51.573  1.00  0.00     0.151 A 
ENDROOT
BRANCH   1   6
HETATM    6  C   UNL     1     -44.756  57.635 -53.175  1.00  0.00     0.251 C 
BRANCH   6   7
HETATM    7  C   UNL     1     -43.453  56.855 -53.206  1.00  0.00     0.241 C 
HETATM    8  N   UNL     1     -43.607  55.484 -53.335  1.00  0.00    -0.326 N 
HETATM    9  H   UNL     1     -44.555  55.148 -53.512  1.00  0.00     0.169 HD
HETATM   10  O   UNL     1     -42.385  57.445 -53.051  1.00  0.00    -0.271 OA
BRANCH   8  11
HETATM   11  C   UNL     1     -42.615  54.485 -53.327  1.00  0.00     0.034 A 
HETATM   12  C   UNL     1     -42.209  53.771 -54.452  1.00  0.00     0.030 A 
HETATM   13  C   UNL     1     -41.198  52.807 -54.351  1.00  0.00     0.009 A 
HETATM   14  C   UNL     1     -40.585  52.536 -53.122  1.00  0.00    -0.058 A 
HETATM   15  C   UNL     1     -40.992  53.255 -51.994  1.00  0.00     0.009 A 
HETATM   16  C   UNL     1     -41.996  54.221 -52.098  1.00  0.00     0.030 A 
BRANCH  14  17
HETATM   17  C   UNL     1     -39.482  51.514 -53.021  1.00  0.00     0.034 C 
HETATM   18  C   UNL     1     -39.559  50.488 -54.142  1.00  0.00     0.010 C 
ENDBRANCH  14  17
ENDBRANCH   8  11
ENDBRANCH   6   7
ENDBRANCH   1   6
BRANCH   5  19
HETATM   19  N   UNL     1     -43.608  60.347 -52.324  1.00  0.00    -0.382 N 
HETATM   20  H   UNL     1     -43.992  61.140 -52.848  1.00  0.00     0.157 HD
HETATM   21  H   UNL     1     -42.695  60.051 -52.658  1.00  0.00     0.157 HD
ENDBRANCH   5  19
BRANCH   4  22
HETATM   22  C   UNL     1     -44.920  60.994 -49.472  1.00  0.00     0.280 C 
HETATM   23  N   UNL     1     -45.544  60.778 -48.255  1.00  0.00    -0.319 N 
HETATM   24  H   UNL     1     -46.108  59.936 -48.226  1.00  0.00     0.169 HD
HETATM   25  O   UNL     1     -44.398  62.028 -49.867  1.00  0.00    -0.265 OA
BRANCH  23  26
HETATM   26  C   UNL     1     -45.698  61.674 -47.178  1.00  0.00     0.069 A 
HETATM   27  C   UNL     1     -46.626  62.719 -47.097  1.00  0.00     0.095 A 
HETATM   28  C   UNL     1     -46.732  63.483 -45.929  1.00  0.00     0.039 A 
HETATM   29  C   UNL     1     -45.874  63.256 -44.853  1.00  0.00     0.009 A 
HETATM   30  C   UNL     1     -44.900  62.260 -44.934  1.00  0.00    -0.060 A 
HETATM   31  C   UNL     1     -43.954  62.009 -43.797  1.00  0.00     0.048 C 
HETATM   32  C   UNL     1     -44.812  61.487 -46.102  1.00  0.00     0.039 A 
BRANCH  27  33
HETATM   33  O   UNL     1     -47.448  63.100 -48.123  1.00  0.00    -0.354 OA
HETATM   34  C   UNL     1     -47.944  64.421 -47.908  1.00  0.00     0.210 C 
ENDBRANCH  27  33
ENDBRANCH  23  26
ENDBRANCH   4  22
TORSDOF 8
ENDMDL
MODEL 9
REMARK VINA RESULT:      -8.0      2.685     10.112
REMARK  8 active torsions:
REMARK  status: ('A' for Active; 'I' for Inactive)
REMARK    1  A    between atoms: C_2  and  C_3 
REMARK    2  A    between atoms: C_6  and  N_7 
REMARK       I    between atoms: N_7  and  C_8 
REMARK    3  A    between atoms: C_8  and  C_9 
REMARK    4  A    between atoms: C_9  and  N_10 
REMARK    5  A    between atoms: C_13  and  C_14 
REMARK       I    between atoms: C_14  and  N_15 
REMARK    6  A    between atoms: N_15  and  C_16 
REMARK    7  A    between atoms: C_17  and  O_18 
REMARK    8  A    between atoms: C_26  and  N_27 
ROOT
HETATM    1  N   UNL     1     -42.089  58.227 -53.861  1.00  0.00    -0.248 N 
HETATM    2  N   UNL     1     -40.859  58.790 -53.881  1.00  0.00     0.007 NA
HETATM    3  N   UNL     1     -40.744  59.533 -52.794  1.00  0.00    -0.150 NA
HETATM    4  C   UNL     1     -41.934  59.474 -52.099  1.00  0.00     0.187 A 
HETATM    5  C   UNL     1     -42.814  58.642 -52.773  1.00  0.00     0.151 A 
ENDROOT
BRANCH   1   6
HETATM    6  C   UNL     1     -42.432  57.276 -54.896  1.00  0.00     0.251 C 
BRANCH   6   7
HETATM    7  C   UNL     1     -42.372  55.838 -54.410  1.00  0.00     0.241 C 
HETATM    8  N   UNL     1     -41.107  55.412 -54.035  1.00  0.00    -0.326 N 
HETATM    9  H   UNL     1     -40.377  56.124 -54.010  1.00  0.00     0.169 HD
HETATM   10  O   UNL     1     -43.385  55.141 -54.440  1.00  0.00    -0.271 OA
BRANCH   8  11
HETATM   11  C   UNL     1     -40.704  54.131 -53.611  1.00  0.00     0.034 A 
HETATM   12  C   UNL     1     -40.575  53.751 -52.277  1.00  0.00     0.030 A 
HETATM   13  C   UNL     1     -40.185  52.445 -51.950  1.00  0.00     0.009 A 
HETATM   14  C   UNL     1     -39.910  51.506 -52.950  1.00  0.00    -0.058 A 
HETATM   15  C   UNL     1     -40.042  51.890 -54.288  1.00  0.00     0.009 A 
HETATM   16  C   UNL     1     -40.437  53.190 -54.613  1.00  0.00     0.030 A 
BRANCH  14  17
HETATM   17  C   UNL     1     -39.513  50.096 -52.593  1.00  0.00     0.034 C 
HETATM   18  C   UNL     1     -39.543  49.864 -51.090  1.00  0.00     0.010 C 
ENDBRANCH  14  17
ENDBRANCH   8  11
ENDBRANCH   6   7
ENDBRANCH   1   6
BRANCH   5  19
HETATM   19  N   UNL     1     -44.081  58.257 -52.505  1.00  0.00    -0.382 N 
HETATM   20  H   UNL     1     -44.854  58.763 -52.948  1.00  0.00     0.157 HD
HETATM   21  H   UNL     1     -44.370  57.709 -51.699  1.00  0.00     0.157 HD
ENDBRANCH   5  19
BRANCH   4  22
HETATM   22  C   UNL     1     -42.133  60.172 -50.829  1.00  0.00     0.280 C 
HETATM   23  N   UNL     1     -43.121  61.136 -50.939  1.00  0.00    -0.319 N 
HETATM   24  H   UNL     1     -43.413  61.317 -51.894  1.00  0.00     0.169 HD
HETATM   25  O   UNL     1     -41.430  59.937 -49.854  1.00  0.00    -0.265 OA
BRANCH  23  26
HETATM   26  C   UNL     1     -43.574  62.044 -49.961  1.00  0.00     0.069 A 
HETATM   27  C   UNL     1     -43.307  63.418 -49.921  1.00  0.00     0.095 A 
HETATM   28  C   UNL     1     -43.892  64.224 -48.937  1.00  0.00     0.039 A 
HETATM   29  C   UNL     1     -44.698  63.663 -47.948  1.00  0.00     0.009 A 
HETATM   30  C   UNL     1     -44.929  62.286 -47.931  1.00  0.00    -0.060 A 
HETATM   31  C   UNL     1     -45.778  61.657 -46.867  1.00  0.00     0.048 C 
HETATM   32  C   UNL     1     -44.353  61.487 -48.931  1.00  0.00     0.039 A 
BRANCH  27  33
HETATM   33  O   UNL     1     -42.453  64.061 -50.775  1.00  0.00    -0.354 OA
HETATM   34  C   UNL     1     -43.181  64.741 -51.798  1.00  0.00     0.210 C 
ENDBRANCH  27  33
ENDBRANCH  23  26
ENDBRANCH   4  22
TORSDOF 8
ENDMDL
MODEL 10
REMARK VINA RESULT:      -7.9      4.994     10.015
REMARK  8 active torsions:
REMARK  status: ('A' for Active; 'I' for Inactive)
REMARK    1  A    between atoms: C_2  and  C_3 
REMARK    2  A    between atoms: C_6  and  N_7 
REMARK       I    between atoms: N_7  and  C_8 
REMARK    3  A    between atoms: C_8  and  C_9 
REMARK    4  A    between atoms: C_9  and  N_10 
REMARK    5  A    between atoms: C_13  and  C_14 
REMARK       I    between atoms: C_14  and  N_15 
REMARK    6  A    between atoms: N_15  and  C_16 
REMARK    7  A    between atoms: C_17  and  O_18 
REMARK    8  A    between atoms: C_26  and  N_27 
ROOT
HETATM    1  N   UNL     1     -41.746  58.184 -52.077  1.00  0.00    -0.248 N 
HETATM    2  N   UNL     1     -40.506  58.652 -52.348  1.00  0.00     0.007 NA
HETATM    3  N   UNL     1     -40.572  59.321 -53.486  1.00  0.00    -0.150 NA
HETATM    4  C   UNL     1     -41.863  59.239 -53.964  1.00  0.00     0.187 A 
HETATM    5  C   UNL     1     -42.632  58.506 -53.074  1.00  0.00     0.151 A 
ENDROOT
BRANCH   1   6
HETATM    6  C   UNL     1     -41.969  57.499 -50.823  1.00  0.00     0.251 C 
BRANCH   6   7
HETATM    7  C   UNL     1     -41.304  56.134 -50.779  1.00  0.00     0.241 C 
HETATM    8  N   UNL     1     -41.206  55.504 -52.009  1.00  0.00    -0.326 N 
HETATM    9  H   UNL     1     -41.476  56.055 -52.825  1.00  0.00     0.169 HD
HETATM   10  O   UNL     1     -40.969  55.654 -49.697  1.00  0.00    -0.271 OA
BRANCH   8  11
HETATM   11  C   UNL     1     -40.711  54.217 -52.298  1.00  0.00     0.034 A 
HETATM   12  C   UNL     1     -40.232  53.327 -51.339  1.00  0.00     0.030 A 
HETATM   13  C   UNL     1     -39.777  52.058 -51.720  1.00  0.00     0.009 A 
HETATM   14  C   UNL     1     -39.785  51.664 -53.063  1.00  0.00    -0.058 A 
HETATM   15  C   UNL     1     -40.268  52.559 -54.023  1.00  0.00     0.009 A 
HETATM   16  C   UNL     1     -40.728  53.822 -53.642  1.00  0.00     0.030 A 
BRANCH  14  17
HETATM   17  C   UNL     1     -39.315  50.290 -53.465  1.00  0.00     0.034 C 
HETATM   18  C   UNL     1     -39.955  49.834 -54.768  1.00  0.00     0.010 C 
ENDBRANCH  14  17
ENDBRANCH   8  11
ENDBRANCH   6   7
ENDBRANCH   1   6
BRANCH   5  19
HETATM   19  N   UNL     1     -43.937  58.155 -53.081  1.00  0.00    -0.382 N 
HETATM   20  H   UNL     1     -44.644  58.888 -53.192  1.00  0.00     0.157 HD
HETATM   21  H   UNL     1     -44.314  57.288 -52.707  1.00  0.00     0.157 HD
ENDBRANCH   5  19
BRANCH   4  22
HETATM   22  C   UNL     1     -42.281  59.895 -55.203  1.00  0.00     0.280 C 
HETATM   23  N   UNL     1     -42.080  59.071 -56.296  1.00  0.00    -0.319 N 
HETATM   24  H   UNL     1     -41.530  58.243 -56.091  1.00  0.00     0.169 HD
HETATM   25  O   UNL     1     -42.679  61.053 -55.208  1.00  0.00    -0.265 OA
BRANCH  23  26
HETATM   26  C   UNL     1     -42.311  59.349 -57.659  1.00  0.00     0.069 A 
HETATM   27  C   UNL     1     -41.628  60.290 -58.438  1.00  0.00     0.095 A 
HETATM   28  C   UNL     1     -41.899  60.406 -59.807  1.00  0.00     0.039 A 
HETATM   29  C   UNL     1     -42.895  59.631 -60.401  1.00  0.00     0.009 A 
HETATM   30  C   UNL     1     -43.632  58.730 -59.630  1.00  0.00    -0.060 A 
HETATM   31  C   UNL     1     -44.720  57.898 -60.242  1.00  0.00     0.048 C 
HETATM   32  C   UNL     1     -43.342  58.607 -58.263  1.00  0.00     0.039 A 
BRANCH  27  33
HETATM   33  O   UNL     1     -40.705  61.173 -57.947  1.00  0.00    -0.354 OA
HETATM   34  C   UNL     1     -41.043  62.511 -58.311  1.00  0.00     0.210 C 
ENDBRANCH  27  33
ENDBRANCH  23  26
ENDBRANCH   4  22
TORSDOF 8
ENDMDL
