MODEL 1
REMARK VINA RESULT:      -8.0      0.000      0.000
REMARK  7 active torsions:
REMARK  status: ('A' for Active; 'I' for Inactive)
REMARK    1  A    between atoms: C_3  and  C_4 
REMARK    2  A    between atoms: C_4  and  N_5 
REMARK       I    between atoms: N_5  and  C_6 
REMARK    3  A    between atoms: C_6  and  C_7 
REMARK    4  A    between atoms: C_7  and  N_8 
REMARK    5  A    between atoms: C_10  and  C_11 
REMARK    6  A    between atoms: C_11  and  N_12 
REMARK       I    between atoms: N_12  and  C_13 
REMARK       I    between atoms: C_13  and  N_14 
REMARK    7  A    between atoms: N_14  and  C_15 
ROOT
HETATM    1  N   UNL     1     -42.605  57.924 -53.186  1.00  0.00    -0.057 N 
HETATM    2  H   UNL     1     -43.275  58.027 -53.973  1.00  0.00     0.281 HD
HETATM    3  C   UNL     1     -43.229  56.812 -52.330  1.00  0.00     0.206 C 
HETATM    4  C   UNL     1     -44.621  57.302 -51.897  1.00  0.00     0.035 C 
HETATM    5  C   UNL     1     -44.571  58.647 -51.178  1.00  0.00     0.004 C 
HETATM    6  C   UNL     1     -43.887  59.703 -52.038  1.00  0.00     0.028 C 
HETATM    7  C   UNL     1     -42.511  59.264 -52.518  1.00  0.00     0.236 C 
ENDROOT
BRANCH   1   8
HETATM    8  C   UNL     1     -41.329  57.510 -53.927  1.00  0.00     0.337 C 
BRANCH   8   9
HETATM    9  C   UNL     1     -41.614  56.353 -54.884  1.00  0.00     0.243 C 
HETATM   10  N   UNL     1     -42.476  56.629 -55.907  1.00  0.00    -0.355 N 
HETATM   11  H   UNL     1     -42.820  57.567 -56.080  1.00  0.00     0.162 HD
HETATM   12  O   UNL     1     -41.097  55.256 -54.673  1.00  0.00    -0.272 OA
BRANCH  10  13
HETATM   13  C   UNL     1     -42.909  55.606 -56.841  1.00  0.00     0.169 C 
BRANCH  13  14
HETATM   14  C   UNL     1     -43.086  56.263 -58.176  1.00  0.00     0.006 A 
HETATM   15  C   UNL     1     -43.701  55.780 -59.324  1.00  0.00    -0.047 A 
HETATM   16  C   UNL     1     -44.378  54.456 -59.476  1.00  0.00     0.049 C 
HETATM   17  C   UNL     1     -43.632  56.744 -60.387  1.00  0.00     0.015 A 
HETATM   18  C   UNL     1     -42.976  57.896 -60.023  1.00  0.00     0.051 A 
HETATM   19  S   UNL     1     -42.442  57.840 -58.407  1.00  0.00    -0.104 SA
ENDBRANCH  13  14
ENDBRANCH  10  13
ENDBRANCH   8   9
ENDBRANCH   1   8
BRANCH   3  20
HETATM   20  C   UNL     1     -42.318  56.411 -51.128  1.00  0.00     0.157 C 
BRANCH  20  21
HETATM   21  N   UNL     1     -41.192  55.561 -51.473  1.00  0.00    -0.341 N 
HETATM   22  C   UNL     1     -41.394  54.210 -51.697  1.00  0.00     0.320 C 
HETATM   23  N   UNL     1     -40.217  53.581 -52.014  1.00  0.00    -0.309 N 
HETATM   24  O   UNL     1     -42.504  53.715 -51.560  1.00  0.00    -0.247 OA
HETATM   25  H   UNL     1     -39.382  54.147 -51.990  1.00  0.00     0.170 HD
HETATM   26  H   UNL     1     -40.459  55.973 -52.038  1.00  0.00     0.164 HD
BRANCH  23  27
HETATM   27  C   UNL     1     -40.010  52.208 -52.259  1.00  0.00     0.036 A 
HETATM   28  C   UNL     1     -39.782  51.261 -51.259  1.00  0.00     0.029 A 
HETATM   29  C   UNL     1     -39.570  49.918 -51.593  1.00  0.00     0.002 A 
HETATM   30  C   UNL     1     -39.587  49.513 -52.925  1.00  0.00     0.000 A 
HETATM   31  C   UNL     1     -39.820  50.449 -53.929  1.00  0.00     0.002 A 
HETATM   32  C   UNL     1     -40.030  51.790 -53.597  1.00  0.00     0.029 A 
ENDBRANCH  23  27
ENDBRANCH  20  21
ENDBRANCH   3  20
TORSDOF 7
ENDMDL
MODEL 2
REMARK VINA RESULT:      -7.9      2.464      5.578
REMARK  7 active torsions:
REMARK  status: ('A' for Active; 'I' for Inactive)
REMARK    1  A    between atoms: C_3  and  C_4 
REMARK    2  A    between atoms: C_4  and  N_5 
REMARK       I    between atoms: N_5  and  C_6 
REMARK    3  A    between atoms: C_6  and  C_7 
REMARK    4  A    between atoms: C_7  and  N_8 
REMARK    5  A    between atoms: C_10  and  C_11 
REMARK    6  A    between atoms: C_11  and  N_12 
REMARK       I    between atoms: N_12  and  C_13 
REMARK       I    between atoms: C_13  and  N_14 
REMARK    7  A    between atoms: N_14  and  C_15 
ROOT
HETATM    1  N   UNL     1     -44.392  58.000 -56.399  1.00  0.00    -0.057 N 
HETATM    2  H   UNL     1     -44.266  58.975 -56.065  1.00  0.00     0.281 HD
HETATM    3  C   UNL     1     -42.971  57.421 -56.352  1.00  0.00     0.206 C 
HETATM    4  C   UNL     1     -42.100  58.284 -57.280  1.00  0.00     0.035 C 
HETATM    5  C   UNL     1     -42.659  58.370 -58.698  1.00  0.00     0.004 C 
HETATM    6  C   UNL     1     -44.092  58.888 -58.690  1.00  0.00     0.028 C 
HETATM    7  C   UNL     1     -44.999  58.085 -57.769  1.00  0.00     0.236 C 
ENDROOT
BRANCH   1   8
HETATM    8  C   UNL     1     -45.339  57.435 -55.335  1.00  0.00     0.337 C 
BRANCH   8   9
HETATM    9  C   UNL     1     -45.036  58.043 -53.966  1.00  0.00     0.243 C 
HETATM   10  N   UNL     1     -44.827  57.150 -52.954  1.00  0.00    -0.355 N 
HETATM   11  H   UNL     1     -44.772  56.152 -53.123  1.00  0.00     0.162 HD
HETATM   12  O   UNL     1     -45.029  59.267 -53.840  1.00  0.00    -0.272 OA
BRANCH  10  13
HETATM   13  C   UNL     1     -44.616  57.581 -51.584  1.00  0.00     0.169 C 
BRANCH  13  14
HETATM   14  C   UNL     1     -43.195  57.265 -51.228  1.00  0.00     0.006 A 
HETATM   15  C   UNL     1     -42.629  56.060 -50.835  1.00  0.00    -0.047 A 
HETATM   16  C   UNL     1     -43.337  54.750 -50.705  1.00  0.00     0.049 C 
HETATM   17  C   UNL     1     -41.225  56.213 -50.576  1.00  0.00     0.015 A 
HETATM   18  C   UNL     1     -40.782  57.499 -50.770  1.00  0.00     0.051 A 
HETATM   19  S   UNL     1     -42.037  58.536 -51.268  1.00  0.00    -0.104 SA
ENDBRANCH  13  14
ENDBRANCH  10  13
ENDBRANCH   8   9
ENDBRANCH   1   8
BRANCH   3  20
HETATM   20  C   UNL     1     -42.938  55.904 -56.718  1.00  0.00     0.157 C 
BRANCH  20  21
HETATM   21  N   UNL     1     -41.754  55.193 -56.266  1.00  0.00    -0.341 N 
HETATM   22  C   UNL     1     -41.843  54.328 -55.189  1.00  0.00     0.320 C 
HETATM   23  N   UNL     1     -40.627  53.751 -54.918  1.00  0.00    -0.309 N 
HETATM   24  O   UNL     1     -42.896  54.192 -54.584  1.00  0.00    -0.247 OA
HETATM   25  H   UNL     1     -39.847  54.060 -55.479  1.00  0.00     0.170 HD
HETATM   26  H   UNL     1     -41.086  54.913 -56.973  1.00  0.00     0.164 HD
BRANCH  23  27
HETATM   27  C   UNL     1     -40.307  52.860 -53.874  1.00  0.00     0.036 A 
HETATM   28  C   UNL     1     -40.269  53.218 -52.525  1.00  0.00     0.029 A 
HETATM   29  C   UNL     1     -39.925  52.273 -51.553  1.00  0.00     0.002 A 
HETATM   30  C   UNL     1     -39.620  50.964 -51.920  1.00  0.00     0.000 A 
HETATM   31  C   UNL     1     -39.662  50.596 -53.262  1.00  0.00     0.002 A 
HETATM   32  C   UNL     1     -40.003  51.540 -54.234  1.00  0.00     0.029 A 
ENDBRANCH  23  27
ENDBRANCH  20  21
ENDBRANCH   3  20
TORSDOF 7
ENDMDL
MODEL 3
REMARK VINA RESULT:      -7.7      2.195      7.324
REMARK  7 active torsions:
REMARK  status: ('A' for Active; 'I' for Inactive)
REMARK    1  A    between atoms: C_3  and  C_4 
REMARK    2  A    between atoms: C_4  and  N_5 
REMARK       I    between atoms: N_5  and  C_6 
REMARK    3  A    between atoms: C_6  and  C_7 
REMARK    4  A    between atoms: C_7  and  N_8 
REMARK    5  A    between atoms: C_10  and  C_11 
REMARK    6  A    between atoms: C_11  and  N_12 
REMARK       I    between atoms: N_12  and  C_13 
REMARK       I    between atoms: C_13  and  N_14 
REMARK    7  A    between atoms: N_14  and  C_15 
ROOT
HETATM    1  N   UNL     1     -41.418  56.760 -52.291  1.00  0.00    -0.057 N 
HETATM    2  H   UNL     1     -40.466  56.407 -52.074  1.00  0.00     0.281 HD
HETATM    3  C   UNL     1     -41.177  57.746 -53.443  1.00  0.00     0.206 C 
HETATM    4  C   UNL     1     -40.221  58.830 -52.918  1.00  0.00     0.035 C 
HETATM    5  C   UNL     1     -40.741  59.509 -51.655  1.00  0.00     0.004 C 
HETATM    6  C   UNL     1     -41.026  58.487 -50.562  1.00  0.00     0.028 C 
HETATM    7  C   UNL     1     -41.952  57.373 -51.030  1.00  0.00     0.236 C 
ENDROOT
BRANCH   1   8
HETATM    8  C   UNL     1     -42.133  55.469 -52.704  1.00  0.00     0.337 C 
BRANCH   8   9
HETATM    9  C   UNL     1     -41.681  54.300 -51.829  1.00  0.00     0.243 C 
HETATM   10  N   UNL     1     -40.391  53.890 -52.008  1.00  0.00    -0.355 N 
HETATM   11  H   UNL     1     -39.746  54.396 -52.604  1.00  0.00     0.162 HD
HETATM   12  O   UNL     1     -42.487  53.780 -51.057  1.00  0.00    -0.272 OA
BRANCH  10  13
HETATM   13  C   UNL     1     -39.850  52.737 -51.312  1.00  0.00     0.169 C 
BRANCH  13  14
HETATM   14  C   UNL     1     -39.807  51.602 -52.288  1.00  0.00     0.006 A 
HETATM   15  C   UNL     1     -39.597  50.248 -52.061  1.00  0.00    -0.047 A 
HETATM   16  C   UNL     1     -39.391  49.594 -50.733  1.00  0.00     0.049 C 
HETATM   17  C   UNL     1     -39.624  49.511 -53.293  1.00  0.00     0.015 A 
HETATM   18  C   UNL     1     -39.840  50.310 -54.390  1.00  0.00     0.051 A 
HETATM   19  S   UNL     1     -40.020  51.947 -53.959  1.00  0.00    -0.104 SA
ENDBRANCH  13  14
ENDBRANCH  10  13
ENDBRANCH   8   9
ENDBRANCH   1   8
BRANCH   3  20
HETATM   20  C   UNL     1     -42.510  58.327 -54.011  1.00  0.00     0.157 C 
BRANCH  20  21
HETATM   21  N   UNL     1     -42.606  58.327 -55.461  1.00  0.00    -0.341 N 
HETATM   22  C   UNL     1     -43.408  57.394 -56.095  1.00  0.00     0.320 C 
HETATM   23  N   UNL     1     -43.372  57.558 -57.457  1.00  0.00    -0.309 N 
HETATM   24  O   UNL     1     -43.999  56.540 -55.451  1.00  0.00    -0.247 OA
HETATM   25  H   UNL     1     -42.749  58.270 -57.810  1.00  0.00     0.170 HD
HETATM   26  H   UNL     1     -42.560  59.225 -55.926  1.00  0.00     0.164 HD
BRANCH  23  27
HETATM   27  C   UNL     1     -44.014  56.775 -58.439  1.00  0.00     0.036 A 
HETATM   28  C   UNL     1     -43.577  55.510 -58.838  1.00  0.00     0.029 A 
HETATM   29  C   UNL     1     -44.265  54.807 -59.833  1.00  0.00     0.002 A 
HETATM   30  C   UNL     1     -45.394  55.360 -60.433  1.00  0.00     0.000 A 
HETATM   31  C   UNL     1     -45.840  56.618 -60.037  1.00  0.00     0.002 A 
HETATM   32  C   UNL     1     -45.153  57.322 -59.046  1.00  0.00     0.029 A 
ENDBRANCH  23  27
ENDBRANCH  20  21
ENDBRANCH   3  20
TORSDOF 7
ENDMDL
MODEL 4
REMARK VINA RESULT:      -7.7      2.445      7.398
REMARK  7 active torsions:
REMARK  status: ('A' for Active; 'I' for Inactive)
REMARK    1  A    between atoms: C_3  and  C_4 
REMARK    2  A    between atoms: C_4  and  N_5 
REMARK       I    between atoms: N_5  and  C_6 
REMARK    3  A    between atoms: C_6  and  C_7 
REMARK    4  A    between atoms: C_7  and  N_8 
REMARK    5  A    between atoms: C_10  and  C_11 
REMARK    6  A    between atoms: C_11  and  N_12 
REMARK       I    between atoms: N_12  and  C_13 
REMARK       I    between atoms: C_13  and  N_14 
REMARK    7  A    between atoms: N_14  and  C_15 
ROOT
HETATM    1  N   UNL     1     -42.338  56.807 -53.049  1.00  0.00    -0.057 N 
HETATM    2  H   UNL     1     -41.652  56.230 -52.526  1.00  0.00     0.281 HD
HETATM    3  C   UNL     1     -41.462  57.609 -54.022  1.00  0.00     0.206 C 
HETATM    4  C   UNL     1     -40.481  58.434 -53.172  1.00  0.00     0.035 C 
HETATM    5  C   UNL     1     -41.189  59.315 -52.148  1.00  0.00     0.004 C 
HETATM    6  C   UNL     1     -42.096  58.486 -51.246  1.00  0.00     0.028 C 
HETATM    7  C   UNL     1     -43.077  57.628 -52.034  1.00  0.00     0.236 C 
ENDROOT
BRANCH   1   8
HETATM    8  C   UNL     1     -43.197  55.727 -53.716  1.00  0.00     0.337 C 
BRANCH   8   9
HETATM    9  C   UNL     1     -42.320  54.743 -54.489  1.00  0.00     0.243 C 
HETATM   10  N   UNL     1     -41.489  53.968 -53.731  1.00  0.00    -0.355 N 
HETATM   11  H   UNL     1     -41.530  53.970 -52.719  1.00  0.00     0.162 HD
HETATM   12  O   UNL     1     -42.378  54.724 -55.719  1.00  0.00    -0.272 OA
BRANCH  10  13
HETATM   13  C   UNL     1     -40.537  53.052 -54.332  1.00  0.00     0.169 C 
BRANCH  13  14
HETATM   14  C   UNL     1     -40.141  52.062 -53.280  1.00  0.00     0.006 A 
HETATM   15  C   UNL     1     -39.833  50.713 -53.406  1.00  0.00    -0.047 A 
HETATM   16  C   UNL     1     -39.798  49.928 -54.677  1.00  0.00     0.049 C 
HETATM   17  C   UNL     1     -39.517  50.138 -52.129  1.00  0.00     0.015 A 
HETATM   18  C   UNL     1     -39.600  51.043 -51.098  1.00  0.00     0.051 A 
HETATM   19  S   UNL     1     -40.050  52.591 -51.647  1.00  0.00    -0.104 SA
ENDBRANCH  13  14
ENDBRANCH  10  13
ENDBRANCH   8   9
ENDBRANCH   1   8
BRANCH   3  20
HETATM   20  C   UNL     1     -42.311  58.481 -54.999  1.00  0.00     0.157 C 
BRANCH  20  21
HETATM   21  N   UNL     1     -42.337  58.009 -56.372  1.00  0.00    -0.341 N 
HETATM   22  C   UNL     1     -43.543  57.658 -56.954  1.00  0.00     0.320 C 
HETATM   23  N   UNL     1     -43.363  57.243 -58.250  1.00  0.00    -0.309 N 
HETATM   24  O   UNL     1     -44.581  57.696 -56.309  1.00  0.00    -0.247 OA
HETATM   25  H   UNL     1     -42.410  57.196 -58.581  1.00  0.00     0.170 HD
HETATM   26  H   UNL     1     -41.666  58.415 -57.013  1.00  0.00     0.164 HD
BRANCH  23  27
HETATM   27  C   UNL     1     -44.339  56.763 -59.147  1.00  0.00     0.036 A 
HETATM   28  C   UNL     1     -45.613  57.316 -59.284  1.00  0.00     0.029 A 
HETATM   29  C   UNL     1     -46.528  56.766 -60.189  1.00  0.00     0.002 A 
HETATM   30  C   UNL     1     -46.176  55.663 -60.963  1.00  0.00     0.000 A 
HETATM   31  C   UNL     1     -44.905  55.109 -60.838  1.00  0.00     0.002 A 
HETATM   32  C   UNL     1     -43.992  55.656 -59.933  1.00  0.00     0.029 A 
ENDBRANCH  23  27
ENDBRANCH  20  21
ENDBRANCH   3  20
TORSDOF 7
ENDMDL
MODEL 5
REMARK VINA RESULT:      -7.7      2.546      5.639
REMARK  7 active torsions:
REMARK  status: ('A' for Active; 'I' for Inactive)
REMARK    1  A    between atoms: C_3  and  C_4 
REMARK    2  A    between atoms: C_4  and  N_5 
REMARK       I    between atoms: N_5  and  C_6 
REMARK    3  A    between atoms: C_6  and  C_7 
REMARK    4  A    between atoms: C_7  and  N_8 
REMARK    5  A    between atoms: C_10  and  C_11 
REMARK    6  A    between atoms: C_11  and  N_12 
REMARK       I    between atoms: N_12  and  C_13 
REMARK       I    between atoms: C_13  and  N_14 
REMARK    7  A    between atoms: N_14  and  C_15 
ROOT
HETATM    1  N   UNL     1     -44.499  57.958 -57.988  1.00  0.00    -0.057 N 
HETATM    2  H   UNL     1     -44.372  58.961 -58.221  1.00  0.00     0.281 HD
HETATM    3  C   UNL     1     -43.122  57.536 -57.458  1.00  0.00     0.206 C 
HETATM    4  C   UNL     1     -42.108  57.784 -58.587  1.00  0.00     0.035 C 
HETATM    5  C   UNL     1     -42.488  57.073 -59.883  1.00  0.00     0.004 C 
HETATM    6  C   UNL     1     -43.886  57.473 -60.336  1.00  0.00     0.028 C 
HETATM    7  C   UNL     1     -44.933  57.271 -59.249  1.00  0.00     0.236 C 
ENDROOT
BRANCH   1   8
HETATM    8  C   UNL     1     -45.593  58.032 -56.916  1.00  0.00     0.337 C 
BRANCH   8   9
HETATM    9  C   UNL     1     -45.095  58.801 -55.692  1.00  0.00     0.243 C 
HETATM   10  N   UNL     1     -45.096  58.107 -54.516  1.00  0.00    -0.355 N 
HETATM   11  H   UNL     1     -45.311  57.117 -54.478  1.00  0.00     0.162 HD
HETATM   12  O   UNL     1     -44.763  59.980 -55.816  1.00  0.00    -0.272 OA
BRANCH  10  13
HETATM   13  C   UNL     1     -44.735  58.733 -53.257  1.00  0.00     0.169 C 
BRANCH  13  14
HETATM   14  C   UNL     1     -43.605  57.942 -52.671  1.00  0.00     0.006 A 
HETATM   15  C   UNL     1     -42.270  57.891 -53.051  1.00  0.00    -0.047 A 
HETATM   16  C   UNL     1     -41.634  58.670 -54.157  1.00  0.00     0.049 C 
HETATM   17  C   UNL     1     -41.533  56.986 -52.215  1.00  0.00     0.015 A 
HETATM   18  C   UNL     1     -42.313  56.388 -51.255  1.00  0.00     0.051 A 
HETATM   19  S   UNL     1     -43.933  56.907 -51.338  1.00  0.00    -0.104 SA
ENDBRANCH  13  14
ENDBRANCH  10  13
ENDBRANCH   8   9
ENDBRANCH   1   8
BRANCH   3  20
HETATM   20  C   UNL     1     -43.114  56.064 -56.938  1.00  0.00     0.157 C 
BRANCH  20  21
HETATM   21  N   UNL     1     -41.914  55.680 -56.215  1.00  0.00    -0.341 N 
HETATM   22  C   UNL     1     -41.931  54.554 -55.409  1.00  0.00     0.320 C 
HETATM   23  N   UNL     1     -40.709  54.354 -54.816  1.00  0.00    -0.309 N 
HETATM   24  O   UNL     1     -42.958  53.908 -55.262  1.00  0.00    -0.247 OA
HETATM   25  H   UNL     1     -40.003  55.053 -54.992  1.00  0.00     0.170 HD
HETATM   26  H   UNL     1     -41.026  55.858 -56.666  1.00  0.00     0.164 HD
BRANCH  23  27
HETATM   27  C   UNL     1     -40.350  53.348 -53.895  1.00  0.00     0.036 A 
HETATM   28  C   UNL     1     -40.292  53.539 -52.514  1.00  0.00     0.029 A 
HETATM   29  C   UNL     1     -39.910  52.488 -51.672  1.00  0.00     0.002 A 
HETATM   30  C   UNL     1     -39.585  51.242 -52.203  1.00  0.00     0.000 A 
HETATM   31  C   UNL     1     -39.646  51.042 -53.579  1.00  0.00     0.002 A 
HETATM   32  C   UNL     1     -40.025  52.090 -54.421  1.00  0.00     0.029 A 
ENDBRANCH  23  27
ENDBRANCH  20  21
ENDBRANCH   3  20
TORSDOF 7
ENDMDL
MODEL 6
REMARK VINA RESULT:      -7.6      3.856      6.953
REMARK  7 active torsions:
REMARK  status: ('A' for Active; 'I' for Inactive)
REMARK    1  A    between atoms: C_3  and  C_4 
REMARK    2  A    between atoms: C_4  and  N_5 
REMARK       I    between atoms: N_5  and  C_6 
REMARK    3  A    between atoms: C_6  and  C_7 
REMARK    4  A    between atoms: C_7  and  N_8 
REMARK    5  A    between atoms: C_10  and  C_11 
REMARK    6  A    between atoms: C_11  and  N_12 
REMARK       I    between atoms: N_12  and  C_13 
REMARK       I    between atoms: C_13  and  N_14 
REMARK    7  A    between atoms: N_14  and  C_15 
ROOT
HETATM    1  N   UNL     1     -43.331  58.363 -50.950  1.00  0.00    -0.057 N 
HETATM    2  H   UNL     1     -43.310  58.578 -49.934  1.00  0.00     0.281 HD
HETATM    3  C   UNL     1     -42.526  57.060 -51.055  1.00  0.00     0.206 C 
HETATM    4  C   UNL     1     -41.116  57.355 -50.515  1.00  0.00     0.035 C 
HETATM    5  C   UNL     1     -40.447  58.525 -51.230  1.00  0.00     0.004 C 
HETATM    6  C   UNL     1     -41.311  59.778 -51.156  1.00  0.00     0.028 C 
HETATM    7  C   UNL     1     -42.729  59.541 -51.657  1.00  0.00     0.236 C 
ENDROOT
BRANCH   1   8
HETATM    8  C   UNL     1     -44.835  58.197 -51.193  1.00  0.00     0.337 C 
BRANCH   8   9
HETATM    9  C   UNL     1     -45.610  59.370 -50.592  1.00  0.00     0.243 C 
HETATM   10  N   UNL     1     -45.091  59.896 -49.443  1.00  0.00    -0.355 N 
HETATM   11  H   UNL     1     -44.196  59.597 -49.074  1.00  0.00     0.162 HD
HETATM   12  O   UNL     1     -46.647  59.747 -51.136  1.00  0.00    -0.272 OA
BRANCH  10  13
HETATM   13  C   UNL     1     -45.765  60.953 -48.713  1.00  0.00     0.169 C 
BRANCH  13  14
HETATM   14  C   UNL     1     -44.934  62.193 -48.847  1.00  0.00     0.006 A 
HETATM   15  C   UNL     1     -44.705  63.207 -47.927  1.00  0.00    -0.047 A 
HETATM   16  C   UNL     1     -45.234  63.273 -46.531  1.00  0.00     0.049 C 
HETATM   17  C   UNL     1     -43.849  64.218 -48.481  1.00  0.00     0.015 A 
HETATM   18  C   UNL     1     -43.470  63.949 -49.774  1.00  0.00     0.051 A 
HETATM   19  S   UNL     1     -44.129  62.483 -50.338  1.00  0.00    -0.104 SA
ENDBRANCH  13  14
ENDBRANCH  10  13
ENDBRANCH   8   9
ENDBRANCH   1   8
BRANCH   3  20
HETATM   20  C   UNL     1     -42.519  56.485 -52.506  1.00  0.00     0.157 C 
BRANCH  20  21
HETATM   21  N   UNL     1     -41.394  55.619 -52.813  1.00  0.00    -0.341 N 
HETATM   22  C   UNL     1     -41.533  54.247 -52.698  1.00  0.00     0.320 C 
HETATM   23  N   UNL     1     -40.368  53.603 -53.035  1.00  0.00    -0.309 N 
HETATM   24  O   UNL     1     -42.578  53.757 -52.295  1.00  0.00    -0.247 OA
HETATM   25  H   UNL     1     -39.578  54.189 -53.260  1.00  0.00     0.170 HD
HETATM   26  H   UNL     1     -40.773  55.916 -53.556  1.00  0.00     0.164 HD
BRANCH  23  27
HETATM   27  C   UNL     1     -40.104  52.219 -52.996  1.00  0.00     0.036 A 
HETATM   28  C   UNL     1     -40.215  51.370 -54.099  1.00  0.00     0.029 A 
HETATM   29  C   UNL     1     -39.948  50.003 -53.968  1.00  0.00     0.002 A 
HETATM   30  C   UNL     1     -39.567  49.475 -52.737  1.00  0.00     0.000 A 
HETATM   31  C   UNL     1     -39.448  50.314 -51.633  1.00  0.00     0.002 A 
HETATM   32  C   UNL     1     -39.715  51.679 -51.762  1.00  0.00     0.029 A 
ENDBRANCH  23  27
ENDBRANCH  20  21
ENDBRANCH   3  20
TORSDOF 7
ENDMDL
MODEL 7
REMARK VINA RESULT:      -7.6      2.662      6.061
REMARK  7 active torsions:
REMARK  status: ('A' for Active; 'I' for Inactive)
REMARK    1  A    between atoms: C_3  and  C_4 
REMARK    2  A    between atoms: C_4  and  N_5 
REMARK       I    between atoms: N_5  and  C_6 
REMARK    3  A    between atoms: C_6  and  C_7 
REMARK    4  A    between atoms: C_7  and  N_8 
REMARK    5  A    between atoms: C_10  and  C_11 
REMARK    6  A    between atoms: C_11  and  N_12 
REMARK       I    between atoms: N_12  and  C_13 
REMARK       I    between atoms: C_13  and  N_14 
REMARK    7  A    between atoms: N_14  and  C_15 
ROOT
HETATM    1  N   UNL     1     -45.028  58.273 -56.732  1.00  0.00    -0.057 N 
HETATM    2  H   UNL     1     -45.035  59.290 -56.520  1.00  0.00     0.281 HD
HETATM    3  C   UNL     1     -43.596  58.020 -57.223  1.00  0.00     0.206 C 
HETATM    4  C   UNL     1     -43.378  58.909 -58.458  1.00  0.00     0.035 C 
HETATM    5  C   UNL     1     -44.426  58.677 -59.542  1.00  0.00     0.004 C 
HETATM    6  C   UNL     1     -45.834  58.876 -58.993  1.00  0.00     0.028 C 
HETATM    7  C   UNL     1     -46.102  58.036 -57.752  1.00  0.00     0.236 C 
ENDROOT
BRANCH   1   8
HETATM    8  C   UNL     1     -45.339  57.675 -55.355  1.00  0.00     0.337 C 
BRANCH   8   9
HETATM    9  C   UNL     1     -44.751  58.546 -54.245  1.00  0.00     0.243 C 
HETATM   10  N   UNL     1     -43.608  58.072 -53.664  1.00  0.00    -0.355 N 
HETATM   11  H   UNL     1     -43.126  57.255 -54.019  1.00  0.00     0.162 HD
HETATM   12  O   UNL     1     -45.335  59.577 -53.915  1.00  0.00    -0.272 OA
BRANCH  10  13
HETATM   13  C   UNL     1     -42.986  58.745 -52.539  1.00  0.00     0.169 C 
BRANCH  13  14
HETATM   14  C   UNL     1     -42.521  57.689 -51.584  1.00  0.00     0.006 A 
HETATM   15  C   UNL     1     -41.338  57.607 -50.863  1.00  0.00    -0.047 A 
HETATM   16  C   UNL     1     -40.233  58.614 -50.857  1.00  0.00     0.049 C 
HETATM   17  C   UNL     1     -41.300  56.409 -50.072  1.00  0.00     0.015 A 
HETATM   18  C   UNL     1     -42.425  55.634 -50.221  1.00  0.00     0.051 A 
HETATM   19  S   UNL     1     -43.541  56.333 -51.300  1.00  0.00    -0.104 SA
ENDBRANCH  13  14
ENDBRANCH  10  13
ENDBRANCH   8   9
ENDBRANCH   1   8
BRANCH   3  20
HETATM   20  C   UNL     1     -43.326  56.508 -57.500  1.00  0.00     0.157 C 
BRANCH  20  21
HETATM   21  N   UNL     1     -42.107  55.987 -56.906  1.00  0.00    -0.341 N 
HETATM   22  C   UNL     1     -42.186  55.085 -55.859  1.00  0.00     0.320 C 
HETATM   23  N   UNL     1     -40.935  54.707 -55.438  1.00  0.00    -0.309 N 
HETATM   24  O   UNL     1     -43.270  54.758 -55.397  1.00  0.00    -0.247 OA
HETATM   25  H   UNL     1     -40.153  55.158 -55.888  1.00  0.00     0.170 HD
HETATM   26  H   UNL     1     -41.317  55.844 -57.522  1.00  0.00     0.164 HD
BRANCH  23  27
HETATM   27  C   UNL     1     -40.606  53.847 -54.370  1.00  0.00     0.036 A 
HETATM   28  C   UNL     1     -40.636  54.224 -53.026  1.00  0.00     0.029 A 
HETATM   29  C   UNL     1     -40.278  53.310 -52.028  1.00  0.00     0.002 A 
HETATM   30  C   UNL     1     -39.891  52.016 -52.366  1.00  0.00     0.000 A 
HETATM   31  C   UNL     1     -39.864  51.629 -53.703  1.00  0.00     0.002 A 
HETATM   32  C   UNL     1     -40.219  52.541 -54.700  1.00  0.00     0.029 A 
ENDBRANCH  23  27
ENDBRANCH  20  21
ENDBRANCH   3  20
TORSDOF 7
ENDMDL
MODEL 8
REMARK VINA RESULT:      -7.6      2.091      2.423
REMARK  7 active torsions:
REMARK  status: ('A' for Active; 'I' for Inactive)
REMARK    1  A    between atoms: C_3  and  C_4 
REMARK    2  A    between atoms: C_4  and  N_5 
REMARK       I    between atoms: N_5  and  C_6 
REMARK    3  A    between atoms: C_6  and  C_7 
REMARK    4  A    between atoms: C_7  and  N_8 
REMARK    5  A    between atoms: C_10  and  C_11 
REMARK    6  A    between atoms: C_11  and  N_12 
REMARK       I    between atoms: N_12  and  C_13 
REMARK       I    between atoms: C_13  and  N_14 
REMARK    7  A    between atoms: N_14  and  C_15 
ROOT
HETATM    1  N   UNL     1     -43.119  58.192 -55.481  1.00  0.00    -0.057 N 
HETATM    2  H   UNL     1     -43.859  58.106 -56.204  1.00  0.00     0.281 HD
HETATM    3  C   UNL     1     -43.266  56.902 -54.663  1.00  0.00     0.206 C 
HETATM    4  C   UNL     1     -44.692  56.890 -54.088  1.00  0.00     0.035 C 
HETATM    5  C   UNL     1     -45.009  58.145 -53.279  1.00  0.00     0.004 C 
HETATM    6  C   UNL     1     -44.787  59.402 -54.110  1.00  0.00     0.028 C 
HETATM    7  C   UNL     1     -43.396  59.459 -54.726  1.00  0.00     0.236 C 
ENDROOT
BRANCH   1   8
HETATM    8  C   UNL     1     -41.856  58.251 -56.347  1.00  0.00     0.337 C 
BRANCH   8   9
HETATM    9  C   UNL     1     -42.222  58.303 -57.830  1.00  0.00     0.243 C 
HETATM   10  N   UNL     1     -42.506  57.100 -58.412  1.00  0.00    -0.355 N 
HETATM   11  H   UNL     1     -42.573  56.245 -57.871  1.00  0.00     0.162 HD
HETATM   12  O   UNL     1     -42.209  59.385 -58.416  1.00  0.00    -0.272 OA
BRANCH  10  13
HETATM   13  C   UNL     1     -42.783  56.983 -59.832  1.00  0.00     0.169 C 
BRANCH  13  14
HETATM   14  C   UNL     1     -44.267  56.850 -59.990  1.00  0.00     0.006 A 
HETATM   15  C   UNL     1     -45.058  55.709 -59.988  1.00  0.00    -0.047 A 
HETATM   16  C   UNL     1     -44.586  54.305 -59.788  1.00  0.00     0.049 C 
HETATM   17  C   UNL     1     -46.441  56.043 -60.186  1.00  0.00     0.015 A 
HETATM   18  C   UNL     1     -46.649  57.393 -60.335  1.00  0.00     0.051 A 
HETATM   19  S   UNL     1     -45.197  58.276 -60.235  1.00  0.00    -0.104 SA
ENDBRANCH  13  14
ENDBRANCH  10  13
ENDBRANCH   8   9
ENDBRANCH   1   8
BRANCH   3  20
HETATM   20  C   UNL     1     -42.162  56.767 -53.568  1.00  0.00     0.157 C 
BRANCH  20  21
HETATM   21  N   UNL     1     -41.160  55.750 -53.833  1.00  0.00    -0.341 N 
HETATM   22  C   UNL     1     -41.334  54.470 -53.336  1.00  0.00     0.320 C 
HETATM   23  N   UNL     1     -40.289  53.656 -53.694  1.00  0.00    -0.309 N 
HETATM   24  O   UNL     1     -42.298  54.199 -52.635  1.00  0.00    -0.247 OA
HETATM   25  H   UNL     1     -39.534  54.089 -54.205  1.00  0.00     0.170 HD
HETATM   26  H   UNL     1     -40.687  55.791 -54.727  1.00  0.00     0.164 HD
BRANCH  23  27
HETATM   27  C   UNL     1     -40.083  52.307 -53.339  1.00  0.00     0.036 A 
HETATM   28  C   UNL     1     -39.698  51.885 -52.065  1.00  0.00     0.029 A 
HETATM   29  C   UNL     1     -39.500  50.525 -51.801  1.00  0.00     0.002 A 
HETATM   30  C   UNL     1     -39.686  49.579 -52.806  1.00  0.00     0.000 A 
HETATM   31  C   UNL     1     -40.076  49.990 -54.078  1.00  0.00     0.002 A 
HETATM   32  C   UNL     1     -40.272  51.347 -54.342  1.00  0.00     0.029 A 
ENDBRANCH  23  27
ENDBRANCH  20  21
ENDBRANCH   3  20
TORSDOF 7
ENDMDL
MODEL 9
REMARK VINA RESULT:      -7.5      2.552      7.351
REMARK  7 active torsions:
REMARK  status: ('A' for Active; 'I' for Inactive)
REMARK    1  A    between atoms: C_3  and  C_4 
REMARK    2  A    between atoms: C_4  and  N_5 
REMARK       I    between atoms: N_5  and  C_6 
REMARK    3  A    between atoms: C_6  and  C_7 
REMARK    4  A    between atoms: C_7  and  N_8 
REMARK    5  A    between atoms: C_10  and  C_11 
REMARK    6  A    between atoms: C_11  and  N_12 
REMARK       I    between atoms: N_12  and  C_13 
REMARK       I    between atoms: C_13  and  N_14 
REMARK    7  A    between atoms: N_14  and  C_15 
ROOT
HETATM    1  N   UNL     1     -43.177  56.319 -51.055  1.00  0.00    -0.057 N 
HETATM    2  H   UNL     1     -42.610  56.798 -50.329  1.00  0.00     0.281 HD
HETATM    3  C   UNL     1     -42.367  56.536 -52.341  1.00  0.00     0.206 C 
HETATM    4  C   UNL     1     -42.251  58.054 -52.552  1.00  0.00     0.035 C 
HETATM    5  C   UNL     1     -43.609  58.749 -52.582  1.00  0.00     0.004 C 
HETATM    6  C   UNL     1     -44.403  58.453 -51.316  1.00  0.00     0.028 C 
HETATM    7  C   UNL     1     -44.533  56.961 -51.041  1.00  0.00     0.236 C 
ENDROOT
BRANCH   1   8
HETATM    8  C   UNL     1     -43.171  54.875 -50.541  1.00  0.00     0.337 C 
BRANCH   8   9
HETATM    9  C   UNL     1     -41.742  54.411 -50.258  1.00  0.00     0.243 C 
HETATM   10  N   UNL     1     -41.195  53.577 -51.192  1.00  0.00    -0.355 N 
HETATM   11  H   UNL     1     -41.666  53.367 -52.064  1.00  0.00     0.162 HD
HETATM   12  O   UNL     1     -41.187  54.770 -49.221  1.00  0.00    -0.272 OA
BRANCH  10  13
HETATM   13  C   UNL     1     -39.882  52.986 -51.015  1.00  0.00     0.169 C 
BRANCH  13  14
HETATM   14  C   UNL     1     -39.802  51.790 -51.913  1.00  0.00     0.006 A 
HETATM   15  C   UNL     1     -39.884  51.716 -53.297  1.00  0.00    -0.047 A 
HETATM   16  C   UNL     1     -40.047  52.868 -54.237  1.00  0.00     0.049 C 
HETATM   17  C   UNL     1     -39.769  50.358 -53.747  1.00  0.00     0.015 A 
HETATM   18  C   UNL     1     -39.614  49.464 -52.715  1.00  0.00     0.051 A 
HETATM   19  S   UNL     1     -39.598  50.239 -51.199  1.00  0.00    -0.104 SA
ENDBRANCH  13  14
ENDBRANCH  10  13
ENDBRANCH   8   9
ENDBRANCH   1   8
BRANCH   3  20
HETATM   20  C   UNL     1     -42.991  55.793 -53.565  1.00  0.00     0.157 C 
BRANCH  20  21
HETATM   21  N   UNL     1     -42.310  56.020 -54.827  1.00  0.00    -0.341 N 
HETATM   22  C   UNL     1     -42.936  56.750 -55.823  1.00  0.00     0.320 C 
HETATM   23  N   UNL     1     -42.136  56.859 -56.932  1.00  0.00    -0.309 N 
HETATM   24  O   UNL     1     -44.076  57.166 -55.668  1.00  0.00    -0.247 OA
HETATM   25  H   UNL     1     -41.255  56.367 -56.903  1.00  0.00     0.170 HD
HETATM   26  H   UNL     1     -41.305  56.132 -54.796  1.00  0.00     0.164 HD
BRANCH  23  27
HETATM   27  C   UNL     1     -42.441  57.481 -58.160  1.00  0.00     0.036 A 
HETATM   28  C   UNL     1     -41.974  58.743 -58.534  1.00  0.00     0.029 A 
HETATM   29  C   UNL     1     -42.339  59.294 -59.767  1.00  0.00     0.002 A 
HETATM   30  C   UNL     1     -43.170  58.589 -60.635  1.00  0.00     0.000 A 
HETATM   31  C   UNL     1     -43.636  57.328 -60.273  1.00  0.00     0.002 A 
HETATM   32  C   UNL     1     -43.273  56.778 -59.041  1.00  0.00     0.029 A 
ENDBRANCH  23  27
ENDBRANCH  20  21
ENDBRANCH   3  20
TORSDOF 7
ENDMDL
MODEL 10
REMARK VINA RESULT:      -7.4      2.298      5.653
REMARK  7 active torsions:
REMARK  status: ('A' for Active; 'I' for Inactive)
REMARK    1  A    between atoms: C_3  and  C_4 
REMARK    2  A    between atoms: C_4  and  N_5 
REMARK       I    between atoms: N_5  and  C_6 
REMARK    3  A    between atoms: C_6  and  C_7 
REMARK    4  A    between atoms: C_7  and  N_8 
REMARK    5  A    between atoms: C_10  and  C_11 
REMARK    6  A    between atoms: C_11  and  N_12 
REMARK       I    between atoms: N_12  and  C_13 
REMARK       I    between atoms: C_13  and  N_14 
REMARK    7  A    between atoms: N_14  and  C_15 
ROOT
HETATM    1  N   UNL     1     -43.134  57.358 -59.719  1.00  0.00    -0.057 N 
HETATM    2  H   UNL     1     -42.921  57.244 -60.729  1.00  0.00     0.281 HD
HETATM    3  C   UNL     1     -43.114  55.919 -59.186  1.00  0.00     0.206 C 
HETATM    4  C   UNL     1     -44.187  55.134 -59.959  1.00  0.00     0.035 C 
HETATM    5  C   UNL     1     -45.566  55.781 -59.869  1.00  0.00     0.004 C 
HETATM    6  C   UNL     1     -45.525  57.227 -60.349  1.00  0.00     0.028 C 
HETATM    7  C   UNL     1     -44.463  58.050 -59.633  1.00  0.00     0.236 C 
ENDROOT
BRANCH   1   8
HETATM    8  C   UNL     1     -41.955  58.221 -59.256  1.00  0.00     0.337 C 
BRANCH   8   9
HETATM    9  C   UNL     1     -42.396  59.190 -58.159  1.00  0.00     0.243 C 
HETATM   10  N   UNL     1     -42.158  58.782 -56.877  1.00  0.00    -0.355 N 
HETATM   11  H   UNL     1     -41.629  57.942 -56.672  1.00  0.00     0.162 HD
HETATM   12  O   UNL     1     -42.957  60.239 -58.473  1.00  0.00    -0.272 OA
BRANCH  10  13
HETATM   13  C   UNL     1     -42.601  59.556 -55.733  1.00  0.00     0.169 C 
BRANCH  13  14
HETATM   14  C   UNL     1     -43.046  58.588 -54.680  1.00  0.00     0.006 A 
HETATM   15  C   UNL     1     -42.292  57.888 -53.747  1.00  0.00    -0.047 A 
HETATM   16  C   UNL     1     -40.811  57.973 -53.561  1.00  0.00     0.049 C 
HETATM   17  C   UNL     1     -43.130  57.054 -52.932  1.00  0.00     0.015 A 
HETATM   18  C   UNL     1     -44.460  57.140 -53.268  1.00  0.00     0.051 A 
HETATM   19  S   UNL     1     -44.721  58.222 -54.556  1.00  0.00    -0.104 SA
ENDBRANCH  13  14
ENDBRANCH  10  13
ENDBRANCH   8   9
ENDBRANCH   1   8
BRANCH   3  20
HETATM   20  C   UNL     1     -43.308  55.860 -57.638  1.00  0.00     0.157 C 
BRANCH  20  21
HETATM   21  N   UNL     1     -42.101  55.577 -56.882  1.00  0.00    -0.341 N 
HETATM   22  C   UNL     1     -42.152  54.701 -55.811  1.00  0.00     0.320 C 
HETATM   23  N   UNL     1     -40.916  54.560 -55.230  1.00  0.00    -0.309 N 
HETATM   24  O   UNL     1     -43.212  54.201 -55.464  1.00  0.00    -0.247 OA
HETATM   25  H   UNL     1     -40.173  55.129 -55.607  1.00  0.00     0.170 HD
HETATM   26  H   UNL     1     -41.228  55.559 -57.395  1.00  0.00     0.164 HD
BRANCH  23  27
HETATM   27  C   UNL     1     -40.578  53.798 -54.093  1.00  0.00     0.036 A 
HETATM   28  C   UNL     1     -40.610  54.289 -52.786  1.00  0.00     0.029 A 
HETATM   29  C   UNL     1     -40.242  53.468 -51.714  1.00  0.00     0.002 A 
HETATM   30  C   UNL     1     -39.844  52.152 -51.940  1.00  0.00     0.000 A 
HETATM   31  C   UNL     1     -39.815  51.653 -53.239  1.00  0.00     0.002 A 
HETATM   32  C   UNL     1     -40.180  52.472 -54.310  1.00  0.00     0.029 A 
ENDBRANCH  23  27
ENDBRANCH  20  21
ENDBRANCH   3  20
TORSDOF 7
ENDMDL
