MODEL 1
REMARK VINA RESULT:      -8.1      0.000      0.000
REMARK  6 active torsions:
REMARK  status: ('A' for Active; 'I' for Inactive)
REMARK    1  A    between atoms: C_2  and  N_3 
REMARK    2  A    between atoms: C_4  and  S_5 
REMARK    3  A    between atoms: S_5  and  C_6 
REMARK    4  A    between atoms: C_6  and  C_7 
REMARK       I    between atoms: C_7  and  N_8 
REMARK    5  A    between atoms: N_8  and  C_9 
REMARK    6  A    between atoms: C_23  and  C_24 
ROOT
HETATM    1  C   UNL     1     -42.653  56.821 -54.538  1.00  0.00     0.231 C 
HETATM    2  N   UNL     1     -41.974  56.715 -55.742  1.00  0.00    -0.325 N 
HETATM    3  O   UNL     1     -43.869  56.964 -54.429  1.00  0.00    -0.272 OA
HETATM    4  H   UNL     1     -41.183  56.069 -55.725  1.00  0.00     0.169 HD
ENDROOT
BRANCH   2   5
HETATM    5  C   UNL     1     -42.611  56.862 -56.995  1.00  0.00     0.054 A 
HETATM    6  C   UNL     1     -42.854  58.126 -57.606  1.00  0.00     0.040 A 
HETATM    7 BR   UNL     1     -42.167  59.757 -56.894  1.00  0.00    -0.049 Br
HETATM    8  C   UNL     1     -43.488  58.219 -58.854  1.00  0.00     0.053 A 
HETATM    9  C   UNL     1     -43.844  57.037 -59.456  1.00  0.00     0.064 A 
HETATM   10  C   UNL     1     -43.578  55.798 -58.879  1.00  0.00     0.065 A 
HETATM   11  N   UNL     1     -44.473  56.816 -60.676  1.00  0.00    -0.306 N 
HETATM   12  N   UNL     1     -44.055  54.815 -59.740  1.00  0.00    -0.306 N 
HETATM   13  C   UNL     1     -42.947  55.674 -57.665  1.00  0.00     0.063 A 
HETATM   14  C   UNL     1     -44.617  55.434 -60.865  1.00  0.00     0.325 A 
HETATM   15  H   UNL     1     -44.023  53.817 -59.604  1.00  0.00     0.170 HD
HETATM   16  O   UNL     1     -45.129  54.880 -61.821  1.00  0.00    -0.247 OA
HETATM   17  H   UNL     1     -44.790  57.507 -61.336  1.00  0.00     0.170 HD
ENDBRANCH   2   5
BRANCH   1  18
HETATM   18  C   UNL     1     -41.757  56.781 -53.312  1.00  0.00     0.185 C 
BRANCH  18  19
HETATM   19  S   UNL     1     -42.314  55.575 -52.069  1.00  0.00    -0.081 SA
BRANCH  19  20
HETATM   20  C   UNL     1     -41.860  54.119 -52.874  1.00  0.00     0.192 A 
HETATM   21  N   UNL     1     -40.813  53.318 -52.517  1.00  0.00    -0.311 N 
HETATM   22  C   UNL     1     -40.640  52.465 -53.581  1.00  0.00     0.135 A 
HETATM   23  N   UNL     1     -41.582  52.692 -54.475  1.00  0.00    -0.134 NA
HETATM   24  N   UNL     1     -42.354  53.730 -54.025  1.00  0.00    -0.123 NA
BRANCH  21  25
HETATM   25  C   UNL     1     -40.019  53.368 -51.310  1.00  0.00     0.128 C 
HETATM   26  C   UNL     1     -40.511  52.406 -50.242  1.00  0.00     0.027 C 
ENDBRANCH  21  25
BRANCH  22  27
HETATM   27  C   UNL     1     -39.524  51.446 -53.767  1.00  0.00     0.057 A 
HETATM   28  C   UNL     1     -39.610  50.135 -53.016  1.00  0.00     0.013 A 
HETATM   29  C   UNL     1     -39.876  50.154 -54.481  1.00  0.00     0.013 A 
ENDBRANCH  22  27
ENDBRANCH  19  20
ENDBRANCH  18  19
ENDBRANCH   1  18
TORSDOF 6
ENDMDL
MODEL 2
REMARK VINA RESULT:      -8.0      1.802      2.463
REMARK  6 active torsions:
REMARK  status: ('A' for Active; 'I' for Inactive)
REMARK    1  A    between atoms: C_2  and  N_3 
REMARK    2  A    between atoms: C_4  and  S_5 
REMARK    3  A    between atoms: S_5  and  C_6 
REMARK    4  A    between atoms: C_6  and  C_7 
REMARK       I    between atoms: C_7  and  N_8 
REMARK    5  A    between atoms: N_8  and  C_9 
REMARK    6  A    between atoms: C_23  and  C_24 
ROOT
HETATM    1  C   UNL     1     -41.893  56.806 -53.036  1.00  0.00     0.231 C 
HETATM    2  N   UNL     1     -43.059  56.395 -53.663  1.00  0.00    -0.325 N 
HETATM    3  O   UNL     1     -41.099  57.623 -53.498  1.00  0.00    -0.272 OA
HETATM    4  H   UNL     1     -43.842  56.226 -53.029  1.00  0.00     0.169 HD
ENDROOT
BRANCH   2   5
HETATM    5  C   UNL     1     -43.411  56.805 -54.968  1.00  0.00     0.054 A 
HETATM    6  C   UNL     1     -44.274  57.908 -55.236  1.00  0.00     0.040 A 
HETATM    7 BR   UNL     1     -44.891  59.082 -53.865  1.00  0.00    -0.049 Br
HETATM    8  C   UNL     1     -44.591  58.278 -56.552  1.00  0.00     0.053 A 
HETATM    9  C   UNL     1     -44.019  57.538 -57.557  1.00  0.00     0.064 A 
HETATM   10  C   UNL     1     -43.149  56.481 -57.302  1.00  0.00     0.065 A 
HETATM   11  N   UNL     1     -44.143  57.668 -58.936  1.00  0.00    -0.306 N 
HETATM   12  N   UNL     1     -42.747  55.954 -58.524  1.00  0.00    -0.306 N 
HETATM   13  C   UNL     1     -42.808  56.103 -56.025  1.00  0.00     0.063 A 
HETATM   14  C   UNL     1     -43.359  56.683 -59.554  1.00  0.00     0.325 A 
HETATM   15  H   UNL     1     -42.127  55.175 -58.679  1.00  0.00     0.170 HD
HETATM   16  O   UNL     1     -43.233  56.498 -60.750  1.00  0.00    -0.247 OA
HETATM   17  H   UNL     1     -44.696  58.341 -59.441  1.00  0.00     0.170 HD
ENDBRANCH   2   5
BRANCH   1  18
HETATM   18  C   UNL     1     -41.632  56.130 -51.701  1.00  0.00     0.185 C 
BRANCH  18  19
HETATM   19  S   UNL     1     -42.532  54.560 -51.517  1.00  0.00    -0.081 SA
BRANCH  19  20
HETATM   20  C   UNL     1     -41.220  53.462 -51.738  1.00  0.00     0.192 A 
HETATM   21  N   UNL     1     -40.813  52.956 -52.938  1.00  0.00    -0.311 N 
HETATM   22  C   UNL     1     -39.964  51.924 -52.619  1.00  0.00     0.135 A 
HETATM   23  N   UNL     1     -39.811  51.878 -51.311  1.00  0.00    -0.134 NA
HETATM   24  N   UNL     1     -40.598  52.853 -50.757  1.00  0.00    -0.123 NA
BRANCH  21  25
HETATM   25  C   UNL     1     -41.211  53.370 -54.265  1.00  0.00     0.128 C 
HETATM   26  C   UNL     1     -40.115  54.125 -54.999  1.00  0.00     0.027 C 
ENDBRANCH  21  25
BRANCH  22  27
HETATM   27  C   UNL     1     -39.324  50.931 -53.581  1.00  0.00     0.057 A 
HETATM   28  C   UNL     1     -39.428  49.454 -53.269  1.00  0.00     0.013 A 
HETATM   29  C   UNL     1     -40.254  50.028 -54.367  1.00  0.00     0.013 A 
ENDBRANCH  22  27
ENDBRANCH  19  20
ENDBRANCH  18  19
ENDBRANCH   1  18
TORSDOF 6
ENDMDL
MODEL 3
REMARK VINA RESULT:      -7.9      3.193      7.483
REMARK  6 active torsions:
REMARK  status: ('A' for Active; 'I' for Inactive)
REMARK    1  A    between atoms: C_2  and  N_3 
REMARK    2  A    between atoms: C_4  and  S_5 
REMARK    3  A    between atoms: S_5  and  C_6 
REMARK    4  A    between atoms: C_6  and  C_7 
REMARK       I    between atoms: C_7  and  N_8 
REMARK    5  A    between atoms: N_8  and  C_9 
REMARK    6  A    between atoms: C_23  and  C_24 
ROOT
HETATM    1  C   UNL     1     -42.690  56.055 -52.530  1.00  0.00     0.231 C 
HETATM    2  N   UNL     1     -41.342  55.730 -52.570  1.00  0.00    -0.325 N 
HETATM    3  O   UNL     1     -43.584  55.295 -52.165  1.00  0.00    -0.272 OA
HETATM    4  H   UNL     1     -40.716  56.497 -52.321  1.00  0.00     0.169 HD
ENDROOT
BRANCH   2   5
HETATM    5  C   UNL     1     -40.860  54.434 -52.283  1.00  0.00     0.054 A 
HETATM    6  C   UNL     1     -40.555  53.986 -50.965  1.00  0.00     0.040 A 
HETATM    7 BR   UNL     1     -40.955  55.021 -49.413  1.00  0.00    -0.049 Br
HETATM    8  C   UNL     1     -40.080  52.686 -50.731  1.00  0.00     0.053 A 
HETATM    9  C   UNL     1     -39.941  51.872 -51.828  1.00  0.00     0.064 A 
HETATM   10  C   UNL     1     -40.270  52.294 -53.114  1.00  0.00     0.065 A 
HETATM   11  N   UNL     1     -39.504  50.555 -51.908  1.00  0.00    -0.306 N 
HETATM   12  N   UNL     1     -40.023  51.239 -53.986  1.00  0.00    -0.306 N 
HETATM   13  C   UNL     1     -40.750  53.555 -53.373  1.00  0.00     0.063 A 
HETATM   14  C   UNL     1     -39.544  50.146 -53.249  1.00  0.00     0.325 A 
HETATM   15  H   UNL     1     -40.150  51.229 -54.985  1.00  0.00     0.170 HD
HETATM   16  O   UNL     1     -39.225  49.056 -53.687  1.00  0.00    -0.247 OA
HETATM   17  H   UNL     1     -39.198  49.964 -51.152  1.00  0.00     0.170 HD
ENDBRANCH   2   5
BRANCH   1  18
HETATM   18  C   UNL     1     -43.006  57.458 -53.019  1.00  0.00     0.185 C 
BRANCH  18  19
HETATM   19  S   UNL     1     -41.848  58.040 -54.295  1.00  0.00    -0.081 SA
BRANCH  19  20
HETATM   20  C   UNL     1     -42.828  57.791 -55.692  1.00  0.00     0.192 A 
HETATM   21  N   UNL     1     -42.845  56.654 -56.448  1.00  0.00    -0.311 N 
HETATM   22  C   UNL     1     -43.518  57.000 -57.595  1.00  0.00     0.135 A 
HETATM   23  N   UNL     1     -43.948  58.241 -57.486  1.00  0.00    -0.134 NA
HETATM   24  N   UNL     1     -43.518  58.736 -56.284  1.00  0.00    -0.123 NA
BRANCH  21  25
HETATM   25  C   UNL     1     -42.251  55.370 -56.147  1.00  0.00     0.128 C 
HETATM   26  C   UNL     1     -43.267  54.354 -55.654  1.00  0.00     0.027 C 
ENDBRANCH  21  25
BRANCH  22  27
HETATM   27  C   UNL     1     -43.713  56.142 -58.839  1.00  0.00     0.057 A 
HETATM   28  C   UNL     1     -43.837  56.833 -60.179  1.00  0.00     0.013 A 
HETATM   29  C   UNL     1     -42.578  56.110 -59.845  1.00  0.00     0.013 A 
ENDBRANCH  22  27
ENDBRANCH  19  20
ENDBRANCH  18  19
ENDBRANCH   1  18
TORSDOF 6
ENDMDL
MODEL 4
REMARK VINA RESULT:      -7.7      3.513      7.264
REMARK  6 active torsions:
REMARK  status: ('A' for Active; 'I' for Inactive)
REMARK    1  A    between atoms: C_2  and  N_3 
REMARK    2  A    between atoms: C_4  and  S_5 
REMARK    3  A    between atoms: S_5  and  C_6 
REMARK    4  A    between atoms: C_6  and  C_7 
REMARK       I    between atoms: C_7  and  N_8 
REMARK    5  A    between atoms: N_8  and  C_9 
REMARK    6  A    between atoms: C_23  and  C_24 
ROOT
HETATM    1  C   UNL     1     -42.614  55.890 -51.258  1.00  0.00     0.231 C 
HETATM    2  N   UNL     1     -41.346  55.622 -51.749  1.00  0.00    -0.325 N 
HETATM    3  O   UNL     1     -43.385  55.044 -50.809  1.00  0.00    -0.272 OA
HETATM    4  H   UNL     1     -40.653  56.344 -51.544  1.00  0.00     0.169 HD
ENDROOT
BRANCH   2   5
HETATM    5  C   UNL     1     -40.837  54.310 -51.878  1.00  0.00     0.054 A 
HETATM    6  C   UNL     1     -40.231  53.596 -50.803  1.00  0.00     0.040 A 
HETATM    7 BR   UNL     1     -40.220  54.255 -49.013  1.00  0.00    -0.049 Br
HETATM    8  C   UNL     1     -39.743  52.293 -50.982  1.00  0.00     0.053 A 
HETATM    9  C   UNL     1     -39.892  51.743 -52.231  1.00  0.00     0.064 A 
HETATM   10  C   UNL     1     -40.513  52.423 -53.275  1.00  0.00     0.065 A 
HETATM   11  N   UNL     1     -39.516  50.489 -52.700  1.00  0.00    -0.306 N 
HETATM   12  N   UNL     1     -40.508  51.592 -54.390  1.00  0.00    -0.306 N 
HETATM   13  C   UNL     1     -41.014  53.694 -53.128  1.00  0.00     0.063 A 
HETATM   14  C   UNL     1     -39.888  50.381 -54.048  1.00  0.00     0.325 A 
HETATM   15  H   UNL     1     -40.873  51.796 -55.306  1.00  0.00     0.170 HD
HETATM   16  O   UNL     1     -39.710  49.423 -54.778  1.00  0.00    -0.247 OA
HETATM   17  H   UNL     1     -39.049  49.758 -52.189  1.00  0.00     0.170 HD
ENDBRANCH   2   5
BRANCH   1  18
HETATM   18  C   UNL     1     -43.020  57.351 -51.345  1.00  0.00     0.185 C 
BRANCH  18  19
HETATM   19  S   UNL     1     -44.405  57.632 -52.490  1.00  0.00    -0.081 SA
BRANCH  19  20
HETATM   20  C   UNL     1     -43.716  56.970 -53.925  1.00  0.00     0.192 A 
HETATM   21  N   UNL     1     -43.271  57.697 -54.991  1.00  0.00    -0.311 N 
HETATM   22  C   UNL     1     -43.093  56.778 -55.998  1.00  0.00     0.135 A 
HETATM   23  N   UNL     1     -43.336  55.570 -55.530  1.00  0.00    -0.134 NA
HETATM   24  N   UNL     1     -43.723  55.692 -54.221  1.00  0.00    -0.123 NA
BRANCH  21  25
HETATM   25  C   UNL     1     -43.066  59.125 -55.077  1.00  0.00     0.128 C 
HETATM   26  C   UNL     1     -41.757  59.571 -54.448  1.00  0.00     0.027 C 
ENDBRANCH  21  25
BRANCH  22  27
HETATM   27  C   UNL     1     -42.729  57.066 -57.449  1.00  0.00     0.057 A 
HETATM   28  C   UNL     1     -43.091  56.040 -58.500  1.00  0.00     0.013 A 
HETATM   29  C   UNL     1     -43.873  57.305 -58.416  1.00  0.00     0.013 A 
ENDBRANCH  22  27
ENDBRANCH  19  20
ENDBRANCH  18  19
ENDBRANCH   1  18
TORSDOF 6
ENDMDL
MODEL 5
REMARK VINA RESULT:      -7.7      3.454      7.306
REMARK  6 active torsions:
REMARK  status: ('A' for Active; 'I' for Inactive)
REMARK    1  A    between atoms: C_2  and  N_3 
REMARK    2  A    between atoms: C_4  and  S_5 
REMARK    3  A    between atoms: S_5  and  C_6 
REMARK    4  A    between atoms: C_6  and  C_7 
REMARK       I    between atoms: C_7  and  N_8 
REMARK    5  A    between atoms: N_8  and  C_9 
REMARK    6  A    between atoms: C_23  and  C_24 
ROOT
HETATM    1  C   UNL     1     -42.826  55.711 -54.985  1.00  0.00     0.231 C 
HETATM    2  N   UNL     1     -41.484  55.521 -54.694  1.00  0.00    -0.325 N 
HETATM    3  O   UNL     1     -43.741  55.008 -54.562  1.00  0.00    -0.272 OA
HETATM    4  H   UNL     1     -40.949  56.385 -54.589  1.00  0.00     0.169 HD
ENDROOT
BRANCH   2   5
HETATM    5  C   UNL     1     -41.012  54.419 -53.948  1.00  0.00     0.054 A 
HETATM    6  C   UNL     1     -40.769  54.469 -52.544  1.00  0.00     0.040 A 
HETATM    7 BR   UNL     1     -41.246  55.976 -51.476  1.00  0.00    -0.049 Br
HETATM    8  C   UNL     1     -40.302  53.344 -51.847  1.00  0.00     0.053 A 
HETATM    9  C   UNL     1     -40.109  52.199 -52.580  1.00  0.00     0.064 A 
HETATM   10  C   UNL     1     -40.377  52.135 -53.945  1.00  0.00     0.065 A 
HETATM   11  N   UNL     1     -39.664  50.947 -52.171  1.00  0.00    -0.306 N 
HETATM   12  N   UNL     1     -40.085  50.845 -54.377  1.00  0.00    -0.306 N 
HETATM   13  C   UNL     1     -40.847  53.215 -54.653  1.00  0.00     0.063 A 
HETATM   14  C   UNL     1     -39.638  50.092 -53.282  1.00  0.00     0.325 A 
HETATM   15  H   UNL     1     -40.164  50.483 -55.313  1.00  0.00     0.170 HD
HETATM   16  O   UNL     1     -39.296  48.924 -53.293  1.00  0.00    -0.247 OA
HETATM   17  H   UNL     1     -39.393  50.666 -51.243  1.00  0.00     0.170 HD
ENDBRANCH   2   5
BRANCH   1  18
HETATM   18  C   UNL     1     -43.101  56.872 -55.925  1.00  0.00     0.185 C 
BRANCH  18  19
HETATM   19  S   UNL     1     -43.817  58.314 -55.076  1.00  0.00    -0.081 SA
BRANCH  19  20
HETATM   20  C   UNL     1     -42.530  58.656 -53.980  1.00  0.00     0.192 A 
HETATM   21  N   UNL     1     -42.686  59.061 -52.686  1.00  0.00    -0.311 N 
HETATM   22  C   UNL     1     -41.442  59.497 -52.297  1.00  0.00     0.135 A 
HETATM   23  N   UNL     1     -40.584  59.282 -53.275  1.00  0.00    -0.134 NA
HETATM   24  N   UNL     1     -41.269  58.746 -54.332  1.00  0.00    -0.123 NA
BRANCH  21  25
HETATM   25  C   UNL     1     -43.895  59.079 -51.894  1.00  0.00     0.128 C 
HETATM   26  C   UNL     1     -44.301  57.697 -51.409  1.00  0.00     0.027 C 
ENDBRANCH  21  25
BRANCH  22  27
HETATM   27  C   UNL     1     -41.077  60.176 -50.984  1.00  0.00     0.057 A 
HETATM   28  C   UNL     1     -41.082  59.348 -49.718  1.00  0.00     0.013 A 
HETATM   29  C   UNL     1     -39.781  59.751 -50.320  1.00  0.00     0.013 A 
ENDBRANCH  22  27
ENDBRANCH  19  20
ENDBRANCH  18  19
ENDBRANCH   1  18
TORSDOF 6
ENDMDL
MODEL 6
REMARK VINA RESULT:      -7.7      3.289      4.145
REMARK  6 active torsions:
REMARK  status: ('A' for Active; 'I' for Inactive)
REMARK    1  A    between atoms: C_2  and  N_3 
REMARK    2  A    between atoms: C_4  and  S_5 
REMARK    3  A    between atoms: S_5  and  C_6 
REMARK    4  A    between atoms: C_6  and  C_7 
REMARK       I    between atoms: C_7  and  N_8 
REMARK    5  A    between atoms: N_8  and  C_9 
REMARK    6  A    between atoms: C_23  and  C_24 
ROOT
HETATM    1  C   UNL     1     -41.676  56.958 -51.415  1.00  0.00     0.231 C 
HETATM    2  N   UNL     1     -43.060  56.974 -51.489  1.00  0.00    -0.325 N 
HETATM    3  O   UNL     1     -40.929  57.635 -52.119  1.00  0.00    -0.272 OA
HETATM    4  H   UNL     1     -43.532  56.876 -50.588  1.00  0.00     0.169 HD
ENDROOT
BRANCH   2   5
HETATM    5  C   UNL     1     -43.766  57.710 -52.466  1.00  0.00     0.054 A 
HETATM    6  C   UNL     1     -44.089  59.091 -52.325  1.00  0.00     0.040 A 
HETATM    7 BR   UNL     1     -43.428  60.156 -50.887  1.00  0.00    -0.049 Br
HETATM    8  C   UNL     1     -44.790  59.779 -53.328  1.00  0.00     0.053 A 
HETATM    9  C   UNL     1     -45.131  59.061 -54.447  1.00  0.00     0.064 A 
HETATM   10  C   UNL     1     -44.789  57.720 -54.605  1.00  0.00     0.065 A 
HETATM   11  N   UNL     1     -45.814  59.466 -55.588  1.00  0.00    -0.306 N 
HETATM   12  N   UNL     1     -45.273  57.298 -55.839  1.00  0.00    -0.306 N 
HETATM   13  C   UNL     1     -44.092  57.023 -53.648  1.00  0.00     0.063 A 
HETATM   14  C   UNL     1     -45.915  58.376 -56.464  1.00  0.00     0.325 A 
HETATM   15  H   UNL     1     -45.197  56.379 -56.242  1.00  0.00     0.170 HD
HETATM   16  O   UNL     1     -46.455  58.367 -57.556  1.00  0.00    -0.247 OA
HETATM   17  H   UNL     1     -46.191  60.379 -55.785  1.00  0.00     0.170 HD
ENDBRANCH   2   5
BRANCH   1  18
HETATM   18  C   UNL     1     -41.118  55.986 -50.390  1.00  0.00     0.185 C 
BRANCH  18  19
HETATM   19  S   UNL     1     -42.031  54.414 -50.337  1.00  0.00    -0.081 SA
BRANCH  19  20
HETATM   20  C   UNL     1     -40.919  53.419 -51.202  1.00  0.00     0.192 A 
HETATM   21  N   UNL     1     -40.928  53.222 -52.553  1.00  0.00    -0.311 N 
HETATM   22  C   UNL     1     -40.087  52.155 -52.762  1.00  0.00     0.135 A 
HETATM   23  N   UNL     1     -39.548  51.798 -51.613  1.00  0.00    -0.134 NA
HETATM   24  N   UNL     1     -40.068  52.601 -50.632  1.00  0.00    -0.123 NA
BRANCH  21  25
HETATM   25  C   UNL     1     -41.682  53.938 -53.557  1.00  0.00     0.128 C 
HETATM   26  C   UNL     1     -40.824  54.894 -54.368  1.00  0.00     0.027 C 
ENDBRANCH  21  25
BRANCH  22  27
HETATM   27  C   UNL     1     -39.832  51.431 -54.077  1.00  0.00     0.057 A 
HETATM   28  C   UNL     1     -39.352  49.997 -54.030  1.00  0.00     0.013 A 
HETATM   29  C   UNL     1     -40.758  50.283 -54.429  1.00  0.00     0.013 A 
ENDBRANCH  22  27
ENDBRANCH  19  20
ENDBRANCH  18  19
ENDBRANCH   1  18
TORSDOF 6
ENDMDL
MODEL 7
REMARK VINA RESULT:      -7.7      5.613      8.811
REMARK  6 active torsions:
REMARK  status: ('A' for Active; 'I' for Inactive)
REMARK    1  A    between atoms: C_2  and  N_3 
REMARK    2  A    between atoms: C_4  and  S_5 
REMARK    3  A    between atoms: S_5  and  C_6 
REMARK    4  A    between atoms: C_6  and  C_7 
REMARK       I    between atoms: C_7  and  N_8 
REMARK    5  A    between atoms: N_8  and  C_9 
REMARK    6  A    between atoms: C_23  and  C_24 
ROOT
HETATM    1  C   UNL     1     -42.212  55.632 -50.911  1.00  0.00     0.231 C 
HETATM    2  N   UNL     1     -40.951  55.268 -51.359  1.00  0.00    -0.325 N 
HETATM    3  O   UNL     1     -43.096  54.842 -50.589  1.00  0.00    -0.272 OA
HETATM    4  H   UNL     1     -40.199  55.886 -51.047  1.00  0.00     0.169 HD
ENDROOT
BRANCH   2   5
HETATM    5  C   UNL     1     -40.579  53.925 -51.589  1.00  0.00     0.054 A 
HETATM    6  C   UNL     1     -40.205  53.027 -50.547  1.00  0.00     0.040 A 
HETATM    7 BR   UNL     1     -40.358  53.479 -48.701  1.00  0.00    -0.049 Br
HETATM    8  C   UNL     1     -39.847  51.699 -50.828  1.00  0.00     0.053 A 
HETATM    9  C   UNL     1     -39.889  51.313 -52.144  1.00  0.00     0.064 A 
HETATM   10  C   UNL     1     -40.287  52.176 -53.162  1.00  0.00     0.065 A 
HETATM   11  N   UNL     1     -39.597  50.080 -52.718  1.00  0.00    -0.306 N 
HETATM   12  N   UNL     1     -40.227  51.478 -54.363  1.00  0.00    -0.306 N 
HETATM   13  C   UNL     1     -40.657  53.477 -52.918  1.00  0.00     0.063 A 
HETATM   14  C   UNL     1     -39.797  50.168 -54.103  1.00  0.00     0.325 A 
HETATM   15  H   UNL     1     -40.442  51.826 -55.283  1.00  0.00     0.170 HD
HETATM   16  O   UNL     1     -39.632  49.281 -54.920  1.00  0.00    -0.247 OA
HETATM   17  H   UNL     1     -39.286  49.245 -52.250  1.00  0.00     0.170 HD
ENDBRANCH   2   5
BRANCH   1  18
HETATM   18  C   UNL     1     -42.452  57.132 -50.875  1.00  0.00     0.185 C 
BRANCH  18  19
HETATM   19  S   UNL     1     -43.585  57.697 -52.181  1.00  0.00    -0.081 SA
BRANCH  19  20
HETATM   20  C   UNL     1     -44.640  58.673 -51.227  1.00  0.00     0.192 A 
HETATM   21  N   UNL     1     -44.396  59.964 -50.858  1.00  0.00    -0.311 N 
HETATM   22  C   UNL     1     -45.327  60.237 -49.884  1.00  0.00     0.135 A 
HETATM   23  N   UNL     1     -46.127  59.199 -49.748  1.00  0.00    -0.134 NA
HETATM   24  N   UNL     1     -45.697  58.216 -50.600  1.00  0.00    -0.123 NA
BRANCH  21  25
HETATM   25  C   UNL     1     -43.363  60.853 -51.340  1.00  0.00     0.128 C 
HETATM   26  C   UNL     1     -42.114  60.828 -50.475  1.00  0.00     0.027 C 
ENDBRANCH  21  25
BRANCH  22  27
HETATM   27  C   UNL     1     -45.423  61.497 -49.034  1.00  0.00     0.057 A 
HETATM   28  C   UNL     1     -46.127  61.414 -47.697  1.00  0.00     0.013 A 
HETATM   29  C   UNL     1     -44.642  61.519 -47.734  1.00  0.00     0.013 A 
ENDBRANCH  22  27
ENDBRANCH  19  20
ENDBRANCH  18  19
ENDBRANCH   1  18
TORSDOF 6
ENDMDL
MODEL 8
REMARK VINA RESULT:      -7.7      3.290      8.347
REMARK  6 active torsions:
REMARK  status: ('A' for Active; 'I' for Inactive)
REMARK    1  A    between atoms: C_2  and  N_3 
REMARK    2  A    between atoms: C_4  and  S_5 
REMARK    3  A    between atoms: S_5  and  C_6 
REMARK    4  A    between atoms: C_6  and  C_7 
REMARK       I    between atoms: C_7  and  N_8 
REMARK    5  A    between atoms: N_8  and  C_9 
REMARK    6  A    between atoms: C_23  and  C_24 
ROOT
HETATM    1  C   UNL     1     -41.471  57.776 -54.011  1.00  0.00     0.231 C 
HETATM    2  N   UNL     1     -42.031  56.520 -53.830  1.00  0.00    -0.325 N 
HETATM    3  O   UNL     1     -40.462  58.182 -53.440  1.00  0.00    -0.272 OA
HETATM    4  H   UNL     1     -42.430  56.110 -54.677  1.00  0.00     0.169 HD
ENDROOT
BRANCH   2   5
HETATM    5  C   UNL     1     -41.544  55.596 -52.879  1.00  0.00     0.054 A 
HETATM    6  C   UNL     1     -40.831  54.412 -53.229  1.00  0.00     0.040 A 
HETATM    7 BR   UNL     1     -40.276  54.043 -55.016  1.00  0.00    -0.049 Br
HETATM    8  C   UNL     1     -40.365  53.527 -52.245  1.00  0.00     0.053 A 
HETATM    9  C   UNL     1     -40.619  53.866 -50.939  1.00  0.00     0.064 A 
HETATM   10  C   UNL     1     -41.285  55.038 -50.589  1.00  0.00     0.065 A 
HETATM   11  N   UNL     1     -40.283  53.198 -49.766  1.00  0.00    -0.306 N 
HETATM   12  N   UNL     1     -41.370  55.084 -49.202  1.00  0.00    -0.306 N 
HETATM   13  C   UNL     1     -41.741  55.932 -51.529  1.00  0.00     0.063 A 
HETATM   14  C   UNL     1     -40.749  53.943 -48.674  1.00  0.00     0.325 A 
HETATM   15  H   UNL     1     -41.802  55.799 -48.640  1.00  0.00     0.170 HD
HETATM   16  O   UNL     1     -40.637  53.655 -47.496  1.00  0.00    -0.247 OA
HETATM   17  H   UNL     1     -39.792  52.324 -49.679  1.00  0.00     0.170 HD
ENDBRANCH   2   5
BRANCH   1  18
HETATM   18  C   UNL     1     -42.238  58.665 -54.975  1.00  0.00     0.185 C 
BRANCH  18  19
HETATM   19  S   UNL     1     -43.927  58.070 -55.294  1.00  0.00    -0.081 SA
BRANCH  19  20
HETATM   20  C   UNL     1     -43.667  57.308 -56.819  1.00  0.00     0.192 A 
HETATM   21  N   UNL     1     -44.338  57.605 -57.970  1.00  0.00    -0.311 N 
HETATM   22  C   UNL     1     -44.035  56.579 -58.833  1.00  0.00     0.135 A 
HETATM   23  N   UNL     1     -43.169  55.770 -58.256  1.00  0.00    -0.134 NA
HETATM   24  N   UNL     1     -42.933  56.235 -56.989  1.00  0.00    -0.123 NA
BRANCH  21  25
HETATM   25  C   UNL     1     -45.215  58.724 -58.232  1.00  0.00     0.128 C 
HETATM   26  C   UNL     1     -46.667  58.423 -57.903  1.00  0.00     0.027 C 
ENDBRANCH  21  25
BRANCH  22  27
HETATM   27  C   UNL     1     -44.621  56.342 -60.219  1.00  0.00     0.057 A 
HETATM   28  C   UNL     1     -44.791  54.916 -60.696  1.00  0.00     0.013 A 
HETATM   29  C   UNL     1     -45.992  55.698 -60.291  1.00  0.00     0.013 A 
ENDBRANCH  22  27
ENDBRANCH  19  20
ENDBRANCH  18  19
ENDBRANCH   1  18
TORSDOF 6
ENDMDL
MODEL 9
REMARK VINA RESULT:      -7.6      2.911      7.640
REMARK  6 active torsions:
REMARK  status: ('A' for Active; 'I' for Inactive)
REMARK    1  A    between atoms: C_2  and  N_3 
REMARK    2  A    between atoms: C_4  and  S_5 
REMARK    3  A    between atoms: S_5  and  C_6 
REMARK    4  A    between atoms: C_6  and  C_7 
REMARK       I    between atoms: C_7  and  N_8 
REMARK    5  A    between atoms: N_8  and  C_9 
REMARK    6  A    between atoms: C_23  and  C_24 
ROOT
HETATM    1  C   UNL     1     -42.983  55.977 -53.331  1.00  0.00     0.231 C 
HETATM    2  N   UNL     1     -41.614  55.756 -53.333  1.00  0.00    -0.325 N 
HETATM    3  O   UNL     1     -43.821  55.182 -52.911  1.00  0.00    -0.272 OA
HETATM    4  H   UNL     1     -41.052  56.588 -53.144  1.00  0.00     0.169 HD
ENDROOT
BRANCH   2   5
HETATM    5  C   UNL     1     -41.037  54.529 -52.936  1.00  0.00     0.054 A 
HETATM    6  C   UNL     1     -40.586  54.269 -51.609  1.00  0.00     0.040 A 
HETATM    7 BR   UNL     1     -40.895  55.478 -50.167  1.00  0.00    -0.049 Br
HETATM    8  C   UNL     1     -40.023  53.031 -51.264  1.00  0.00     0.053 A 
HETATM    9  C   UNL     1     -39.943  52.089 -52.259  1.00  0.00     0.064 A 
HETATM   10  C   UNL     1     -40.413  52.326 -53.549  1.00  0.00     0.065 A 
HETATM   11  N   UNL     1     -39.443  50.792 -52.217  1.00  0.00    -0.306 N 
HETATM   12  N   UNL     1     -40.191  51.178 -54.302  1.00  0.00    -0.306 N 
HETATM   13  C   UNL     1     -40.983  53.522 -53.914  1.00  0.00     0.063 A 
HETATM   14  C   UNL     1     -39.587  50.212 -53.485  1.00  0.00     0.325 A 
HETATM   15  H   UNL     1     -40.410  51.035 -55.274  1.00  0.00     0.170 HD
HETATM   16  O   UNL     1     -39.252  49.088 -53.814  1.00  0.00    -0.247 OA
HETATM   17  H   UNL     1     -39.037  50.318 -51.428  1.00  0.00     0.170 HD
ENDBRANCH   2   5
BRANCH   1  18
HETATM   18  C   UNL     1     -43.400  57.307 -53.937  1.00  0.00     0.185 C 
BRANCH  18  19
HETATM   19  S   UNL     1     -42.145  57.996 -55.058  1.00  0.00    -0.081 SA
BRANCH  19  20
HETATM   20  C   UNL     1     -42.517  57.091 -56.479  1.00  0.00     0.192 A 
HETATM   21  N   UNL     1     -43.030  57.614 -57.631  1.00  0.00    -0.311 N 
HETATM   22  C   UNL     1     -43.441  56.525 -58.362  1.00  0.00     0.135 A 
HETATM   23  N   UNL     1     -43.113  55.423 -57.719  1.00  0.00    -0.134 NA
HETATM   24  N   UNL     1     -42.524  55.781 -56.535  1.00  0.00    -0.123 NA
BRANCH  21  25
HETATM   25  C   UNL     1     -43.163  59.005 -58.002  1.00  0.00     0.128 C 
HETATM   26  C   UNL     1     -41.844  59.630 -58.423  1.00  0.00     0.027 C 
ENDBRANCH  21  25
BRANCH  22  27
HETATM   27  C   UNL     1     -44.206  56.540 -59.680  1.00  0.00     0.057 A 
HETATM   28  C   UNL     1     -45.058  55.341 -60.033  1.00  0.00     0.013 A 
HETATM   29  C   UNL     1     -45.720  56.604 -59.603  1.00  0.00     0.013 A 
ENDBRANCH  22  27
ENDBRANCH  19  20
ENDBRANCH  18  19
ENDBRANCH   1  18
TORSDOF 6
ENDMDL
MODEL 10
REMARK VINA RESULT:      -7.3      5.006      8.439
REMARK  6 active torsions:
REMARK  status: ('A' for Active; 'I' for Inactive)
REMARK    1  A    between atoms: C_2  and  N_3 
REMARK    2  A    between atoms: C_4  and  S_5 
REMARK    3  A    between atoms: S_5  and  C_6 
REMARK    4  A    between atoms: C_6  and  C_7 
REMARK       I    between atoms: C_7  and  N_8 
REMARK    5  A    between atoms: N_8  and  C_9 
REMARK    6  A    between atoms: C_23  and  C_24 
ROOT
HETATM    1  C   UNL     1     -42.725  56.005 -52.168  1.00  0.00     0.231 C 
HETATM    2  N   UNL     1     -41.391  55.705 -52.400  1.00  0.00    -0.325 N 
HETATM    3  O   UNL     1     -43.572  55.193 -51.802  1.00  0.00    -0.272 OA
HETATM    4  H   UNL     1     -40.740  56.444 -52.128  1.00  0.00     0.169 HD
ENDROOT
BRANCH   2   5
HETATM    5  C   UNL     1     -40.880  54.390 -52.334  1.00  0.00     0.054 A 
HETATM    6  C   UNL     1     -40.385  53.801 -51.134  1.00  0.00     0.040 A 
HETATM    7 BR   UNL     1     -40.544  54.652 -49.435  1.00  0.00    -0.049 Br
HETATM    8  C   UNL     1     -39.890  52.488 -51.121  1.00  0.00     0.053 A 
HETATM    9  C   UNL     1     -39.921  51.804 -52.310  1.00  0.00     0.064 A 
HETATM   10  C   UNL     1     -40.434  52.362 -53.478  1.00  0.00     0.065 A 
HETATM   11  N   UNL     1     -39.509  50.508 -52.601  1.00  0.00    -0.306 N 
HETATM   12  N   UNL     1     -40.326  51.414 -54.489  1.00  0.00    -0.306 N 
HETATM   13  C   UNL     1     -40.939  53.640 -53.520  1.00  0.00     0.063 A 
HETATM   14  C   UNL     1     -39.750  50.251 -53.958  1.00  0.00     0.325 A 
HETATM   15  H   UNL     1     -40.600  51.515 -55.453  1.00  0.00     0.170 HD
HETATM   16  O   UNL     1     -39.508  49.220 -54.558  1.00  0.00    -0.247 OA
HETATM   17  H   UNL     1     -39.098  49.839 -51.969  1.00  0.00     0.170 HD
ENDBRANCH   2   5
BRANCH   1  18
HETATM   18  C   UNL     1     -43.094  57.454 -52.438  1.00  0.00     0.185 C 
BRANCH  18  19
HETATM   19  S   UNL     1     -41.757  58.384 -53.247  1.00  0.00    -0.081 SA
BRANCH  19  20
HETATM   20  C   UNL     1     -42.150  59.970 -52.694  1.00  0.00     0.192 A 
HETATM   21  N   UNL     1     -42.070  60.393 -51.399  1.00  0.00    -0.311 N 
HETATM   22  C   UNL     1     -42.747  61.589 -51.373  1.00  0.00     0.135 A 
HETATM   23  N   UNL     1     -43.130  61.895 -52.597  1.00  0.00    -0.134 NA
HETATM   24  N   UNL     1     -42.747  60.877 -53.429  1.00  0.00    -0.123 NA
BRANCH  21  25
HETATM   25  C   UNL     1     -41.451  59.725 -50.276  1.00  0.00     0.128 C 
HETATM   26  C   UNL     1     -39.934  59.720 -50.357  1.00  0.00     0.027 C 
ENDBRANCH  21  25
BRANCH  22  27
HETATM   27  C   UNL     1     -43.075  62.431 -50.148  1.00  0.00     0.057 A 
HETATM   28  C   UNL     1     -44.349  63.248 -50.154  1.00  0.00     0.013 A 
HETATM   29  C   UNL     1     -44.278  62.015 -49.322  1.00  0.00     0.013 A 
ENDBRANCH  22  27
ENDBRANCH  19  20
ENDBRANCH  18  19
ENDBRANCH   1  18
TORSDOF 6
ENDMDL
