MODEL 1
REMARK VINA RESULT:      -8.7      0.000      0.000
REMARK  5 active torsions:
REMARK  status: ('A' for Active; 'I' for Inactive)
REMARK    1  A    between atoms: C_2  and  O_3 
REMARK    2  A    between atoms: O_3  and  C_4 
REMARK    3  A    between atoms: C_5  and  N_6 
REMARK       I    between atoms: N_6  and  C_7 
REMARK    4  A    between atoms: C_7  and  C_8 
REMARK    5  A    between atoms: C_9  and  C_10 
ROOT
HETATM    1  N   UNL     1     -42.153  56.441 -57.442  1.00  0.00    -0.321 N 
HETATM    2  C   UNL     1     -42.939  56.290 -56.319  1.00  0.00     0.245 C 
HETATM    3  O   UNL     1     -43.896  56.964 -55.968  1.00  0.00    -0.268 OA
HETATM    4  H   UNL     1     -41.606  55.637 -57.717  1.00  0.00     0.169 HD
ENDROOT
BRANCH   1   5
HETATM    5  C   UNL     1     -42.139  57.518 -58.361  1.00  0.00     0.071 A 
HETATM    6  C   UNL     1     -42.351  57.420 -59.755  1.00  0.00     0.096 A 
HETATM    7  C   UNL     1     -42.272  58.550 -60.587  1.00  0.00     0.049 A 
HETATM    8  C   UNL     1     -42.077  59.784 -60.000  1.00  0.00    -0.020 A 
HETATM    9  C   UNL     1     -41.938  59.895 -58.630  1.00  0.00     0.078 A 
HETATM   10  C   UNL     1     -41.939  61.119 -60.621  1.00  0.00     0.073 C 
HETATM   11  C   UNL     1     -41.959  58.793 -57.797  1.00  0.00     0.069 A 
HETATM   12  O   UNL     1     -41.771  61.184 -58.195  1.00  0.00    -0.345 OA
HETATM   13  C   UNL     1     -42.061  61.996 -59.364  1.00  0.00     0.129 C 
HETATM   14  C   UNL     1     -43.454  62.601 -59.200  1.00  0.00     0.040 C 
BRANCH   6  15
HETATM   15  O   UNL     1     -42.666  56.227 -60.347  1.00  0.00    -0.349 OA
BRANCH  15  16
HETATM   16  C   UNL     1     -44.079  56.000 -60.395  1.00  0.00     0.171 C 
HETATM   17  C   UNL     1     -44.393  54.688 -59.698  1.00  0.00     0.034 C 
ENDBRANCH  15  16
ENDBRANCH   6  15
ENDBRANCH   1   5
BRANCH   2  18
HETATM   18  C   UNL     1     -42.536  55.088 -55.534  1.00  0.00     0.077 C 
HETATM   19  C   UNL     1     -41.292  55.008 -55.040  1.00  0.00     0.043 C 
BRANCH  19  20
HETATM   20  C   UNL     1     -40.870  53.859 -54.316  1.00  0.00     0.077 A 
HETATM   21  O   UNL     1     -40.696  52.611 -54.877  1.00  0.00    -0.310 OA
HETATM   22  C   UNL     1     -40.283  51.757 -53.907  1.00  0.00     0.086 A 
HETATM   23  C   UNL     1     -40.175  52.420 -52.696  1.00  0.00     0.000 A 
HETATM   24  C   UNL     1     -40.000  50.405 -54.086  1.00  0.00     0.038 A 
HETATM   25  C   UNL     1     -40.557  53.759 -52.964  1.00  0.00     0.051 A 
HETATM   26  C   UNL     1     -39.751  51.698 -51.566  1.00  0.00     0.014 A 
HETATM   27  C   UNL     1     -39.456  50.336 -51.713  1.00  0.00     0.001 A 
HETATM   28  C   UNL     1     -39.580  49.701 -52.952  1.00  0.00     0.003 A 
ENDBRANCH  19  20
ENDBRANCH   2  18
TORSDOF 5
ENDMDL
MODEL 2
REMARK VINA RESULT:      -7.9      1.899      2.441
REMARK  5 active torsions:
REMARK  status: ('A' for Active; 'I' for Inactive)
REMARK    1  A    between atoms: C_2  and  O_3 
REMARK    2  A    between atoms: O_3  and  C_4 
REMARK    3  A    between atoms: C_5  and  N_6 
REMARK       I    between atoms: N_6  and  C_7 
REMARK    4  A    between atoms: C_7  and  C_8 
REMARK    5  A    between atoms: C_9  and  C_10 
ROOT
HETATM    1  N   UNL     1     -42.891  56.297 -57.824  1.00  0.00    -0.321 N 
HETATM    2  C   UNL     1     -42.500  56.456 -56.511  1.00  0.00     0.245 C 
HETATM    3  O   UNL     1     -42.511  57.475 -55.835  1.00  0.00    -0.268 OA
HETATM    4  H   UNL     1     -43.088  55.352 -58.121  1.00  0.00     0.169 HD
ENDROOT
BRANCH   1   5
HETATM    5  C   UNL     1     -43.220  57.302 -58.766  1.00  0.00     0.071 A 
HETATM    6  C   UNL     1     -44.506  57.851 -58.976  1.00  0.00     0.096 A 
HETATM    7  C   UNL     1     -44.733  58.817 -59.971  1.00  0.00     0.049 A 
HETATM    8  C   UNL     1     -43.650  59.293 -60.682  1.00  0.00    -0.020 A 
HETATM    9  C   UNL     1     -42.381  58.810 -60.434  1.00  0.00     0.078 A 
HETATM   10  C   UNL     1     -43.598  60.282 -61.781  1.00  0.00     0.073 C 
HETATM   11  C   UNL     1     -42.140  57.823 -59.497  1.00  0.00     0.069 A 
HETATM   12  O   UNL     1     -41.408  59.393 -61.204  1.00  0.00    -0.345 OA
HETATM   13  C   UNL     1     -42.078  60.514 -61.839  1.00  0.00     0.129 C 
HETATM   14  C   UNL     1     -41.651  61.798 -61.130  1.00  0.00     0.040 C 
BRANCH   6  15
HETATM   15  O   UNL     1     -45.573  57.485 -58.202  1.00  0.00    -0.349 OA
BRANCH  15  16
HETATM   16  C   UNL     1     -46.023  58.548 -57.356  1.00  0.00     0.171 C 
HETATM   17  C   UNL     1     -47.462  58.882 -57.703  1.00  0.00     0.034 C 
ENDBRANCH  15  16
ENDBRANCH   6  15
ENDBRANCH   1   5
BRANCH   2  18
HETATM   18  C   UNL     1     -42.094  55.156 -55.906  1.00  0.00     0.077 C 
HETATM   19  C   UNL     1     -41.262  55.146 -54.855  1.00  0.00     0.043 C 
BRANCH  19  20
HETATM   20  C   UNL     1     -40.833  53.919 -54.279  1.00  0.00     0.077 A 
HETATM   21  O   UNL     1     -40.552  53.750 -52.939  1.00  0.00    -0.310 OA
HETATM   22  C   UNL     1     -40.181  52.460 -52.737  1.00  0.00     0.086 A 
HETATM   23  C   UNL     1     -40.212  51.758 -53.929  1.00  0.00     0.000 A 
HETATM   24  C   UNL     1     -39.820  51.905 -51.511  1.00  0.00     0.038 A 
HETATM   25  C   UNL     1     -40.624  52.696 -54.909  1.00  0.00     0.051 A 
HETATM   26  C   UNL     1     -39.865  50.395 -53.919  1.00  0.00     0.014 A 
HETATM   27  C   UNL     1     -39.499  49.805 -52.701  1.00  0.00     0.001 A 
HETATM   28  C   UNL     1     -39.477  50.549 -51.519  1.00  0.00     0.003 A 
ENDBRANCH  19  20
ENDBRANCH   2  18
TORSDOF 5
ENDMDL
MODEL 3
REMARK VINA RESULT:      -7.8     15.687     18.989
REMARK  5 active torsions:
REMARK  status: ('A' for Active; 'I' for Inactive)
REMARK    1  A    between atoms: C_2  and  O_3 
REMARK    2  A    between atoms: O_3  and  C_4 
REMARK    3  A    between atoms: C_5  and  N_6 
REMARK       I    between atoms: N_6  and  C_7 
REMARK    4  A    between atoms: C_7  and  C_8 
REMARK    5  A    between atoms: C_9  and  C_10 
ROOT
HETATM    1  N   UNL     1     -33.590  40.800 -52.604  1.00  0.00    -0.321 N 
HETATM    2  C   UNL     1     -33.728  39.661 -51.839  1.00  0.00     0.245 C 
HETATM    3  O   UNL     1     -34.137  38.562 -52.182  1.00  0.00    -0.268 OA
HETATM    4  H   UNL     1     -32.975  41.513 -52.239  1.00  0.00     0.169 HD
ENDROOT
BRANCH   1   5
HETATM    5  C   UNL     1     -34.062  41.031 -53.919  1.00  0.00     0.071 A 
HETATM    6  C   UNL     1     -33.314  40.872 -55.108  1.00  0.00     0.096 A 
HETATM    7  C   UNL     1     -33.867  41.172 -56.364  1.00  0.00     0.049 A 
HETATM    8  C   UNL     1     -35.197  41.539 -56.424  1.00  0.00    -0.020 A 
HETATM    9  C   UNL     1     -35.953  41.630 -55.272  1.00  0.00     0.078 A 
HETATM   10  C   UNL     1     -36.024  41.921 -57.590  1.00  0.00     0.073 C 
HETATM   11  C   UNL     1     -35.417  41.390 -54.021  1.00  0.00     0.069 A 
HETATM   12  O   UNL     1     -37.258  41.983 -55.494  1.00  0.00    -0.345 OA
HETATM   13  C   UNL     1     -37.415  41.885 -56.935  1.00  0.00     0.129 C 
HETATM   14  C   UNL     1     -38.182  40.603 -57.253  1.00  0.00     0.040 C 
BRANCH   6  15
HETATM   15  O   UNL     1     -32.032  40.394 -55.085  1.00  0.00    -0.349 OA
BRANCH  15  16
HETATM   16  C   UNL     1     -31.812  39.377 -56.068  1.00  0.00     0.171 C 
HETATM   17  C   UNL     1     -30.386  39.479 -56.576  1.00  0.00     0.034 C 
ENDBRANCH  15  16
ENDBRANCH   6  15
ENDBRANCH   1   5
BRANCH   2  18
HETATM   18  C   UNL     1     -33.225  39.878 -50.452  1.00  0.00     0.077 C 
HETATM   19  C   UNL     1     -32.324  39.030 -49.935  1.00  0.00     0.043 C 
BRANCH  19  20
HETATM   20  C   UNL     1     -31.852  39.194 -48.604  1.00  0.00     0.077 A 
HETATM   21  O   UNL     1     -30.963  40.175 -48.215  1.00  0.00    -0.310 OA
HETATM   22  C   UNL     1     -30.737  40.046 -46.882  1.00  0.00     0.086 A 
HETATM   23  C   UNL     1     -31.469  38.987 -46.370  1.00  0.00     0.000 A 
HETATM   24  C   UNL     1     -29.895  40.854 -46.122  1.00  0.00     0.038 A 
HETATM   25  C   UNL     1     -32.173  38.447 -47.476  1.00  0.00     0.051 A 
HETATM   26  C   UNL     1     -31.371  38.700 -44.997  1.00  0.00     0.014 A 
HETATM   27  C   UNL     1     -30.534  39.497 -44.204  1.00  0.00     0.001 A 
HETATM   28  C   UNL     1     -29.808  40.555 -44.758  1.00  0.00     0.003 A 
ENDBRANCH  19  20
ENDBRANCH   2  18
TORSDOF 5
ENDMDL
MODEL 4
REMARK VINA RESULT:      -7.8      3.050      4.929
REMARK  5 active torsions:
REMARK  status: ('A' for Active; 'I' for Inactive)
REMARK    1  A    between atoms: C_2  and  O_3 
REMARK    2  A    between atoms: O_3  and  C_4 
REMARK    3  A    between atoms: C_5  and  N_6 
REMARK       I    between atoms: N_6  and  C_7 
REMARK    4  A    between atoms: C_7  and  C_8 
REMARK    5  A    between atoms: C_9  and  C_10 
ROOT
HETATM    1  N   UNL     1     -44.735  56.585 -58.672  1.00  0.00    -0.321 N 
HETATM    2  C   UNL     1     -43.572  55.922 -59.004  1.00  0.00     0.245 C 
HETATM    3  O   UNL     1     -42.989  55.907 -60.078  1.00  0.00    -0.268 OA
HETATM    4  H   UNL     1     -44.907  56.721 -57.686  1.00  0.00     0.169 HD
ENDROOT
BRANCH   1   5
HETATM    5  C   UNL     1     -45.636  57.255 -59.535  1.00  0.00     0.071 A 
HETATM    6  C   UNL     1     -45.607  58.631 -59.857  1.00  0.00     0.096 A 
HETATM    7  C   UNL     1     -46.578  59.206 -60.694  1.00  0.00     0.049 A 
HETATM    8  C   UNL     1     -47.516  58.376 -61.276  1.00  0.00    -0.020 A 
HETATM    9  C   UNL     1     -47.508  57.019 -61.019  1.00  0.00     0.078 A 
HETATM   10  C   UNL     1     -48.647  58.704 -62.171  1.00  0.00     0.073 C 
HETATM   11  C   UNL     1     -46.595  56.439 -60.159  1.00  0.00     0.069 A 
HETATM   12  O   UNL     1     -48.485  56.326 -61.684  1.00  0.00    -0.345 OA
HETATM   13  C   UNL     1     -49.023  57.286 -62.633  1.00  0.00     0.129 C 
HETATM   14  C   UNL     1     -48.475  56.955 -64.020  1.00  0.00     0.040 C 
BRANCH   6  15
HETATM   15  O   UNL     1     -44.616  59.452 -59.390  1.00  0.00    -0.349 OA
BRANCH  15  16
HETATM   16  C   UNL     1     -43.550  59.609 -60.332  1.00  0.00     0.171 C 
HETATM   17  C   UNL     1     -42.226  59.385 -59.624  1.00  0.00     0.034 C 
ENDBRANCH  15  16
ENDBRANCH   6  15
ENDBRANCH   1   5
BRANCH   2  18
HETATM   18  C   UNL     1     -42.995  55.219 -57.823  1.00  0.00     0.077 C 
HETATM   19  C   UNL     1     -43.098  55.775 -56.607  1.00  0.00     0.043 C 
BRANCH  19  20
HETATM   20  C   UNL     1     -42.529  55.142 -55.468  1.00  0.00     0.077 A 
HETATM   21  O   UNL     1     -43.067  55.205 -54.199  1.00  0.00    -0.310 OA
HETATM   22  C   UNL     1     -42.277  54.486 -53.362  1.00  0.00     0.086 A 
HETATM   23  C   UNL     1     -41.212  53.938 -54.056  1.00  0.00     0.000 A 
HETATM   24  C   UNL     1     -42.492  54.312 -51.997  1.00  0.00     0.038 A 
HETATM   25  C   UNL     1     -41.377  54.365 -55.398  1.00  0.00     0.051 A 
HETATM   26  C   UNL     1     -40.282  53.149 -53.355  1.00  0.00     0.014 A 
HETATM   27  C   UNL     1     -40.472  52.952 -51.980  1.00  0.00     0.001 A 
HETATM   28  C   UNL     1     -41.558  53.525 -51.313  1.00  0.00     0.003 A 
ENDBRANCH  19  20
ENDBRANCH   2  18
TORSDOF 5
ENDMDL
MODEL 5
REMARK VINA RESULT:      -7.7      5.042      6.290
REMARK  5 active torsions:
REMARK  status: ('A' for Active; 'I' for Inactive)
REMARK    1  A    between atoms: C_2  and  O_3 
REMARK    2  A    between atoms: O_3  and  C_4 
REMARK    3  A    between atoms: C_5  and  N_6 
REMARK       I    between atoms: N_6  and  C_7 
REMARK    4  A    between atoms: C_7  and  C_8 
REMARK    5  A    between atoms: C_9  and  C_10 
ROOT
HETATM    1  N   UNL     1     -42.673  58.023 -52.022  1.00  0.00    -0.321 N 
HETATM    2  C   UNL     1     -41.689  57.374 -51.304  1.00  0.00     0.245 C 
HETATM    3  O   UNL     1     -41.104  57.759 -50.303  1.00  0.00    -0.268 OA
HETATM    4  H   UNL     1     -43.237  57.446 -52.630  1.00  0.00     0.169 HD
ENDROOT
BRANCH   1   5
HETATM    5  C   UNL     1     -43.111  59.363 -51.890  1.00  0.00     0.071 A 
HETATM    6  C   UNL     1     -42.611  60.472 -52.609  1.00  0.00     0.096 A 
HETATM    7  C   UNL     1     -43.088  61.772 -52.370  1.00  0.00     0.049 A 
HETATM    8  C   UNL     1     -44.129  61.935 -51.478  1.00  0.00    -0.020 A 
HETATM    9  C   UNL     1     -44.669  60.845 -50.823  1.00  0.00     0.078 A 
HETATM   10  C   UNL     1     -44.809  63.169 -51.028  1.00  0.00     0.073 C 
HETATM   11  C   UNL     1     -44.182  59.564 -51.003  1.00  0.00     0.069 A 
HETATM   12  O   UNL     1     -45.708  61.162 -49.988  1.00  0.00    -0.345 OA
HETATM   13  C   UNL     1     -46.017  62.545 -50.309  1.00  0.00     0.129 C 
HETATM   14  C   UNL     1     -47.286  62.573 -51.159  1.00  0.00     0.040 C 
BRANCH   6  15
HETATM   15  O   UNL     1     -41.664  60.322 -53.585  1.00  0.00    -0.349 OA
BRANCH  15  16
HETATM   16  C   UNL     1     -42.233  60.300 -54.898  1.00  0.00     0.171 C 
HETATM   17  C   UNL     1     -42.064  58.912 -55.488  1.00  0.00     0.034 C 
ENDBRANCH  15  16
ENDBRANCH   6  15
ENDBRANCH   1   5
BRANCH   2  18
HETATM   18  C   UNL     1     -41.425  56.015 -51.857  1.00  0.00     0.077 C 
HETATM   19  C   UNL     1     -40.824  55.094 -51.089  1.00  0.00     0.043 C 
BRANCH  19  20
HETATM   20  C   UNL     1     -40.531  53.801 -51.599  1.00  0.00     0.077 A 
HETATM   21  O   UNL     1     -40.629  53.454 -52.931  1.00  0.00    -0.310 OA
HETATM   22  C   UNL     1     -40.269  52.152 -53.064  1.00  0.00     0.086 A 
HETATM   23  C   UNL     1     -39.927  51.619 -51.833  1.00  0.00     0.000 A 
HETATM   24  C   UNL     1     -40.240  51.439 -54.261  1.00  0.00     0.038 A 
HETATM   25  C   UNL     1     -40.102  52.675 -50.904  1.00  0.00     0.051 A 
HETATM   26  C   UNL     1     -39.518  50.275 -51.770  1.00  0.00     0.014 A 
HETATM   27  C   UNL     1     -39.474  49.531 -52.957  1.00  0.00     0.001 A 
HETATM   28  C   UNL     1     -39.831  50.104 -54.180  1.00  0.00     0.003 A 
ENDBRANCH  19  20
ENDBRANCH   2  18
TORSDOF 5
ENDMDL
MODEL 6
REMARK VINA RESULT:      -7.6      1.735      3.039
REMARK  5 active torsions:
REMARK  status: ('A' for Active; 'I' for Inactive)
REMARK    1  A    between atoms: C_2  and  O_3 
REMARK    2  A    between atoms: O_3  and  C_4 
REMARK    3  A    between atoms: C_5  and  N_6 
REMARK       I    between atoms: N_6  and  C_7 
REMARK    4  A    between atoms: C_7  and  C_8 
REMARK    5  A    between atoms: C_9  and  C_10 
ROOT
HETATM    1  N   UNL     1     -42.443  56.843 -56.120  1.00  0.00    -0.321 N 
HETATM    2  C   UNL     1     -43.289  56.388 -55.130  1.00  0.00     0.245 C 
HETATM    3  O   UNL     1     -44.350  56.868 -54.761  1.00  0.00    -0.268 OA
HETATM    4  H   UNL     1     -41.777  56.174 -56.483  1.00  0.00     0.169 HD
ENDROOT
BRANCH   1   5
HETATM    5  C   UNL     1     -42.497  58.073 -56.819  1.00  0.00     0.071 A 
HETATM    6  C   UNL     1     -42.080  59.328 -56.320  1.00  0.00     0.096 A 
HETATM    7  C   UNL     1     -42.219  60.500 -57.084  1.00  0.00     0.049 A 
HETATM    8  C   UNL     1     -42.687  60.388 -58.377  1.00  0.00    -0.020 A 
HETATM    9  C   UNL     1     -43.031  59.154 -58.895  1.00  0.00     0.078 A 
HETATM   10  C   UNL     1     -42.944  61.438 -59.387  1.00  0.00     0.073 C 
HETATM   11  C   UNL     1     -42.953  57.996 -58.146  1.00  0.00     0.069 A 
HETATM   12  O   UNL     1     -43.458  59.201 -60.196  1.00  0.00    -0.345 OA
HETATM   13  C   UNL     1     -43.139  60.551 -60.629  1.00  0.00     0.129 C 
HETATM   14  C   UNL     1     -41.895  60.495 -61.514  1.00  0.00     0.040 C 
BRANCH   6  15
HETATM   15  O   UNL     1     -41.501  59.449 -55.086  1.00  0.00    -0.349 OA
BRANCH  15  16
HETATM   16  C   UNL     1     -42.262  60.282 -54.206  1.00  0.00     0.171 C 
HETATM   17  C   UNL     1     -42.739  59.453 -53.027  1.00  0.00     0.034 C 
ENDBRANCH  15  16
ENDBRANCH   6  15
ENDBRANCH   1   5
BRANCH   2  18
HETATM   18  C   UNL     1     -42.796  55.109 -54.544  1.00  0.00     0.077 C 
HETATM   19  C   UNL     1     -41.482  54.938 -54.341  1.00  0.00     0.043 C 
BRANCH  19  20
HETATM   20  C   UNL     1     -40.981  53.717 -53.813  1.00  0.00     0.077 A 
HETATM   21  O   UNL     1     -40.844  52.555 -54.545  1.00  0.00    -0.310 OA
HETATM   22  C   UNL     1     -40.332  51.594 -53.735  1.00  0.00     0.086 A 
HETATM   23  C   UNL     1     -40.121  52.099 -52.463  1.00  0.00     0.000 A 
HETATM   24  C   UNL     1     -40.052  50.283 -54.112  1.00  0.00     0.038 A 
HETATM   25  C   UNL     1     -40.542  53.451 -52.520  1.00  0.00     0.051 A 
HETATM   26  C   UNL     1     -39.585  51.249 -51.480  1.00  0.00     0.014 A 
HETATM   27  C   UNL     1     -39.288  49.923 -51.828  1.00  0.00     0.001 A 
HETATM   28  C   UNL     1     -39.520  49.450 -53.122  1.00  0.00     0.003 A 
ENDBRANCH  19  20
ENDBRANCH   2  18
TORSDOF 5
ENDMDL
MODEL 7
REMARK VINA RESULT:      -7.6     16.204     18.393
REMARK  5 active torsions:
REMARK  status: ('A' for Active; 'I' for Inactive)
REMARK    1  A    between atoms: C_2  and  O_3 
REMARK    2  A    between atoms: O_3  and  C_4 
REMARK    3  A    between atoms: C_5  and  N_6 
REMARK       I    between atoms: N_6  and  C_7 
REMARK    4  A    between atoms: C_7  and  C_8 
REMARK    5  A    between atoms: C_9  and  C_10 
ROOT
HETATM    1  N   UNL     1     -34.804  40.823 -53.395  1.00  0.00    -0.321 N 
HETATM    2  C   UNL     1     -34.959  41.772 -52.406  1.00  0.00     0.245 C 
HETATM    3  O   UNL     1     -35.559  42.835 -52.463  1.00  0.00    -0.268 OA
HETATM    4  H   UNL     1     -34.537  39.897 -53.089  1.00  0.00     0.169 HD
ENDROOT
BRANCH   1   5
HETATM    5  C   UNL     1     -35.138  40.928 -54.767  1.00  0.00     0.071 A 
HETATM    6  C   UNL     1     -34.225  41.121 -55.829  1.00  0.00     0.096 A 
HETATM    7  C   UNL     1     -34.667  41.256 -57.156  1.00  0.00     0.049 A 
HETATM    8  C   UNL     1     -36.014  41.100 -57.417  1.00  0.00    -0.020 A 
HETATM    9  C   UNL     1     -36.903  40.843 -56.392  1.00  0.00     0.078 A 
HETATM   10  C   UNL     1     -36.750  41.204 -58.696  1.00  0.00     0.073 C 
HETATM   11  C   UNL     1     -36.499  40.758 -55.073  1.00  0.00     0.069 A 
HETATM   12  O   UNL     1     -38.199  40.693 -56.810  1.00  0.00    -0.345 OA
HETATM   13  C   UNL     1     -38.102  40.616 -58.257  1.00  0.00     0.129 C 
HETATM   14  C   UNL     1     -38.275  39.158 -58.678  1.00  0.00     0.040 C 
BRANCH   6  15
HETATM   15  O   UNL     1     -32.875  41.157 -55.611  1.00  0.00    -0.349 OA
BRANCH  15  16
HETATM   16  C   UNL     1     -32.264  39.872 -55.761  1.00  0.00     0.171 C 
HETATM   17  C   UNL     1     -31.577  39.496 -54.461  1.00  0.00     0.034 C 
ENDBRANCH  15  16
ENDBRANCH   6  15
ENDBRANCH   1   5
BRANCH   2  18
HETATM   18  C   UNL     1     -34.339  41.325 -51.126  1.00  0.00     0.077 C 
HETATM   19  C   UNL     1     -33.803  40.099 -51.044  1.00  0.00     0.043 C 
BRANCH  19  20
HETATM   20  C   UNL     1     -33.234  39.634 -49.826  1.00  0.00     0.077 A 
HETATM   21  O   UNL     1     -33.819  38.688 -49.011  1.00  0.00    -0.310 OA
HETATM   22  C   UNL     1     -33.005  38.477 -47.945  1.00  0.00     0.086 A 
HETATM   23  C   UNL     1     -31.876  39.273 -48.037  1.00  0.00     0.000 A 
HETATM   24  C   UNL     1     -33.253  37.589 -46.901  1.00  0.00     0.038 A 
HETATM   25  C   UNL     1     -32.032  40.012 -49.236  1.00  0.00     0.051 A 
HETATM   26  C   UNL     1     -30.906  39.189 -47.022  1.00  0.00     0.014 A 
HETATM   27  C   UNL     1     -31.125  38.303 -45.957  1.00  0.00     0.001 A 
HETATM   28  C   UNL     1     -32.280  37.518 -45.898  1.00  0.00     0.003 A 
ENDBRANCH  19  20
ENDBRANCH   2  18
TORSDOF 5
ENDMDL
MODEL 8
REMARK VINA RESULT:      -7.5      2.029      9.666
REMARK  5 active torsions:
REMARK  status: ('A' for Active; 'I' for Inactive)
REMARK    1  A    between atoms: C_2  and  O_3 
REMARK    2  A    between atoms: O_3  and  C_4 
REMARK    3  A    between atoms: C_5  and  N_6 
REMARK       I    between atoms: N_6  and  C_7 
REMARK    4  A    between atoms: C_7  and  C_8 
REMARK    5  A    between atoms: C_9  and  C_10 
ROOT
HETATM    1  N   UNL     1     -41.915  55.080 -54.849  1.00  0.00    -0.321 N 
HETATM    2  C   UNL     1     -42.810  54.753 -55.847  1.00  0.00     0.245 C 
HETATM    3  O   UNL     1     -43.625  53.843 -55.865  1.00  0.00    -0.268 OA
HETATM    4  H   UNL     1     -41.535  56.016 -54.878  1.00  0.00     0.169 HD
ENDROOT
BRANCH   1   5
HETATM    5  C   UNL     1     -41.588  54.336 -53.690  1.00  0.00     0.071 A 
HETATM    6  C   UNL     1     -42.255  54.407 -52.445  1.00  0.00     0.096 A 
HETATM    7  C   UNL     1     -41.821  53.654 -51.341  1.00  0.00     0.049 A 
HETATM    8  C   UNL     1     -40.780  52.765 -51.522  1.00  0.00    -0.020 A 
HETATM    9  C   UNL     1     -40.170  52.641 -52.754  1.00  0.00     0.078 A 
HETATM   10  C   UNL     1     -40.117  51.870 -50.548  1.00  0.00     0.073 C 
HETATM   11  C   UNL     1     -40.545  53.407 -53.841  1.00  0.00     0.069 A 
HETATM   12  O   UNL     1     -39.170  51.704 -52.783  1.00  0.00    -0.345 OA
HETATM   13  C   UNL     1     -39.303  50.999 -51.520  1.00  0.00     0.129 C 
HETATM   14  C   UNL     1     -39.960  49.646 -51.788  1.00  0.00     0.040 C 
BRANCH   6  15
HETATM   15  O   UNL     1     -43.364  55.190 -52.273  1.00  0.00    -0.349 OA
BRANCH  15  16
HETATM   16  C   UNL     1     -43.119  56.296 -51.398  1.00  0.00     0.171 C 
HETATM   17  C   UNL     1     -44.430  57.013 -51.129  1.00  0.00     0.034 C 
ENDBRANCH  15  16
ENDBRANCH   6  15
ENDBRANCH   1   5
BRANCH   2  18
HETATM   18  C   UNL     1     -42.747  55.730 -56.971  1.00  0.00     0.077 C 
HETATM   19  C   UNL     1     -42.360  56.992 -56.730  1.00  0.00     0.043 C 
BRANCH  19  20
HETATM   20  C   UNL     1     -42.321  57.952 -57.777  1.00  0.00     0.077 A 
HETATM   21  O   UNL     1     -42.560  59.300 -57.600  1.00  0.00    -0.310 OA
HETATM   22  C   UNL     1     -42.433  59.920 -58.800  1.00  0.00     0.086 A 
HETATM   23  C   UNL     1     -42.108  59.002 -59.785  1.00  0.00     0.000 A 
HETATM   24  C   UNL     1     -42.599  61.284 -59.027  1.00  0.00     0.038 A 
HETATM   25  C   UNL     1     -42.044  57.749 -59.125  1.00  0.00     0.051 A 
HETATM   26  C   UNL     1     -41.927  59.461 -61.102  1.00  0.00     0.014 A 
HETATM   27  C   UNL     1     -42.084  60.829 -61.363  1.00  0.00     0.001 A 
HETATM   28  C   UNL     1     -42.416  61.724 -60.343  1.00  0.00     0.003 A 
ENDBRANCH  19  20
ENDBRANCH   2  18
TORSDOF 5
ENDMDL
MODEL 9
REMARK VINA RESULT:      -7.5      2.715      9.583
REMARK  5 active torsions:
REMARK  status: ('A' for Active; 'I' for Inactive)
REMARK    1  A    between atoms: C_2  and  O_3 
REMARK    2  A    between atoms: O_3  and  C_4 
REMARK    3  A    between atoms: C_5  and  N_6 
REMARK       I    between atoms: N_6  and  C_7 
REMARK    4  A    between atoms: C_7  and  C_8 
REMARK    5  A    between atoms: C_9  and  C_10 
ROOT
HETATM    1  N   UNL     1     -42.979  55.314 -55.220  1.00  0.00    -0.321 N 
HETATM    2  C   UNL     1     -42.857  56.652 -55.531  1.00  0.00     0.245 C 
HETATM    3  O   UNL     1     -41.997  57.439 -55.163  1.00  0.00    -0.268 OA
HETATM    4  H   UNL     1     -43.565  54.764 -55.833  1.00  0.00     0.169 HD
ENDROOT
BRANCH   1   5
HETATM    5  C   UNL     1     -42.256  54.570 -54.257  1.00  0.00     0.071 A 
HETATM    6  C   UNL     1     -42.468  54.597 -52.859  1.00  0.00     0.096 A 
HETATM    7  C   UNL     1     -41.661  53.850 -51.985  1.00  0.00     0.049 A 
HETATM    8  C   UNL     1     -40.710  53.009 -52.527  1.00  0.00    -0.020 A 
HETATM    9  C   UNL     1     -40.544  52.926 -53.895  1.00  0.00     0.078 A 
HETATM   10  C   UNL     1     -39.725  52.131 -51.855  1.00  0.00     0.073 C 
HETATM   11  C   UNL     1     -41.290  53.689 -54.773  1.00  0.00     0.069 A 
HETATM   12  O   UNL     1     -39.578  52.034 -54.282  1.00  0.00    -0.345 OA
HETATM   13  C   UNL     1     -39.254  51.308 -53.066  1.00  0.00     0.129 C 
HETATM   14  C   UNL     1     -39.912  49.932 -53.134  1.00  0.00     0.040 C 
BRANCH   6  15
HETATM   15  O   UNL     1     -43.483  55.329 -52.306  1.00  0.00    -0.349 OA
BRANCH  15  16
HETATM   16  C   UNL     1     -43.017  56.549 -51.720  1.00  0.00     0.171 C 
HETATM   17  C   UNL     1     -43.998  57.660 -52.047  1.00  0.00     0.034 C 
ENDBRANCH  15  16
ENDBRANCH   6  15
ENDBRANCH   1   5
BRANCH   2  18
HETATM   18  C   UNL     1     -43.911  57.082 -56.492  1.00  0.00     0.077 C 
HETATM   19  C   UNL     1     -43.818  56.722 -57.781  1.00  0.00     0.043 C 
BRANCH  19  20
HETATM   20  C   UNL     1     -44.792  57.145 -58.726  1.00  0.00     0.077 A 
HETATM   21  O   UNL     1     -45.618  56.287 -59.422  1.00  0.00    -0.310 OA
HETATM   22  C   UNL     1     -46.424  57.025 -60.227  1.00  0.00     0.086 A 
HETATM   23  C   UNL     1     -46.150  58.374 -60.077  1.00  0.00     0.000 A 
HETATM   24  C   UNL     1     -47.396  56.515 -61.086  1.00  0.00     0.038 A 
HETATM   25  C   UNL     1     -45.104  58.441 -59.122  1.00  0.00     0.051 A 
HETATM   26  C   UNL     1     -46.893  59.301 -60.828  1.00  0.00     0.014 A 
HETATM   27  C   UNL     1     -47.881  58.821 -61.700  1.00  0.00     0.001 A 
HETATM   28  C   UNL     1     -48.126  57.451 -61.826  1.00  0.00     0.003 A 
ENDBRANCH  19  20
ENDBRANCH   2  18
TORSDOF 5
ENDMDL
MODEL 10
REMARK VINA RESULT:      -7.4      1.653      2.531
REMARK  5 active torsions:
REMARK  status: ('A' for Active; 'I' for Inactive)
REMARK    1  A    between atoms: C_2  and  O_3 
REMARK    2  A    between atoms: O_3  and  C_4 
REMARK    3  A    between atoms: C_5  and  N_6 
REMARK       I    between atoms: N_6  and  C_7 
REMARK    4  A    between atoms: C_7  and  C_8 
REMARK    5  A    between atoms: C_9  and  C_10 
ROOT
HETATM    1  N   UNL     1     -42.456  57.206 -57.388  1.00  0.00    -0.321 N 
HETATM    2  C   UNL     1     -43.007  55.955 -57.572  1.00  0.00     0.245 C 
HETATM    3  O   UNL     1     -43.702  55.562 -58.497  1.00  0.00    -0.268 OA
HETATM    4  H   UNL     1     -41.686  57.265 -56.736  1.00  0.00     0.169 HD
ENDROOT
BRANCH   1   5
HETATM    5  C   UNL     1     -42.712  58.391 -58.121  1.00  0.00     0.071 A 
HETATM    6  C   UNL     1     -43.494  59.484 -57.682  1.00  0.00     0.096 A 
HETATM    7  C   UNL     1     -43.721  60.597 -58.509  1.00  0.00     0.049 A 
HETATM    8  C   UNL     1     -43.085  60.646 -59.733  1.00  0.00    -0.020 A 
HETATM    9  C   UNL     1     -42.265  59.612 -60.139  1.00  0.00     0.078 A 
HETATM   10  C   UNL     1     -43.153  61.671 -60.797  1.00  0.00     0.073 C 
HETATM   11  C   UNL     1     -42.067  58.484 -59.366  1.00  0.00     0.069 A 
HETATM   12  O   UNL     1     -41.688  59.813 -61.366  1.00  0.00    -0.345 OA
HETATM   13  C   UNL     1     -41.979  61.203 -61.673  1.00  0.00     0.129 C 
HETATM   14  C   UNL     1     -40.711  62.025 -61.446  1.00  0.00     0.040 C 
BRANCH   6  15
HETATM   15  O   UNL     1     -44.036  59.514 -56.426  1.00  0.00    -0.349 OA
BRANCH  15  16
HETATM   16  C   UNL     1     -45.329  58.902 -56.376  1.00  0.00     0.171 C 
HETATM   17  C   UNL     1     -45.352  57.883 -55.251  1.00  0.00     0.034 C 
ENDBRANCH  15  16
ENDBRANCH   6  15
ENDBRANCH   1   5
BRANCH   2  18
HETATM   18  C   UNL     1     -42.590  55.017 -56.492  1.00  0.00     0.077 C 
HETATM   19  C   UNL     1     -41.637  55.388 -55.625  1.00  0.00     0.043 C 
BRANCH  19  20
HETATM   20  C   UNL     1     -41.197  54.502 -54.604  1.00  0.00     0.077 A 
HETATM   21  O   UNL     1     -40.599  53.282 -54.844  1.00  0.00    -0.310 OA
HETATM   22  C   UNL     1     -40.303  52.706 -53.651  1.00  0.00     0.086 A 
HETATM   23  C   UNL     1     -40.694  53.530 -52.609  1.00  0.00     0.000 A 
HETATM   24  C   UNL     1     -39.690  51.467 -53.480  1.00  0.00     0.038 A 
HETATM   25  C   UNL     1     -41.268  54.670 -53.225  1.00  0.00     0.051 A 
HETATM   26  C   UNL     1     -40.461  53.105 -51.289  1.00  0.00     0.014 A 
HETATM   27  C   UNL     1     -39.844  51.864 -51.083  1.00  0.00     0.001 A 
HETATM   28  C   UNL     1     -39.466  51.059 -52.161  1.00  0.00     0.003 A 
ENDBRANCH  19  20
ENDBRANCH   2  18
TORSDOF 5
ENDMDL
