MODEL 1
REMARK VINA RESULT:      -8.2      0.000      0.000
REMARK  9 active torsions:
REMARK  status: ('A' for Active; 'I' for Inactive)
REMARK    1  A    between atoms: C_2  and  N_3 
REMARK    2  A    between atoms: C_6  and  C_7 
REMARK    3  A    between atoms: C_7  and  O_8 
REMARK    4  A    between atoms: O_8  and  C_9 
REMARK    5  A    between atoms: C_12  and  C_13 
REMARK    6  A    between atoms: C_14  and  C_15 
REMARK       I    between atoms: C_15  and  N_16 
REMARK    7  A    between atoms: N_16  and  C_17 
REMARK    8  A    between atoms: C_18  and  C_19 
REMARK       I    between atoms: C_19  and  N_20 
REMARK    9  A    between atoms: N_20  and  C_21 
ROOT
HETATM    1  C   UNL     1     -41.706  53.853 -54.960  1.00  0.00     0.245 C 
HETATM    2  N   UNL     1     -40.433  53.350 -54.742  1.00  0.00    -0.323 N 
HETATM    3  O   UNL     1     -42.758  53.337 -54.611  1.00  0.00    -0.268 OA
HETATM    4  H   UNL     1     -39.702  54.053 -54.746  1.00  0.00     0.169 HD
ENDROOT
BRANCH   1   5
HETATM    5  C   UNL     1     -41.660  55.205 -55.570  1.00  0.00     0.075 C 
HETATM    6  C   UNL     1     -42.718  55.612 -56.287  1.00  0.00     0.020 C 
BRANCH   6   7
HETATM    7  C   UNL     1     -42.856  56.875 -56.945  1.00  0.00     0.005 A 
HETATM    8  C   UNL     1     -42.938  57.078 -58.363  1.00  0.00     0.073 A 
HETATM    9  C   UNL     1     -43.149  58.446 -58.548  1.00  0.00     0.025 A 
HETATM   10  N   UNL     1     -43.231  59.042 -57.306  1.00  0.00    -0.353 N 
HETATM   11  C   UNL     1     -43.299  59.186 -59.840  1.00  0.00     0.069 C 
HETATM   12  C   UNL     1     -43.016  58.100 -56.315  1.00  0.00     0.019 A 
HETATM   13  C   UNL     1     -43.052  58.459 -54.866  1.00  0.00     0.069 C 
BRANCH   8  14
HETATM   14  C   UNL     1     -42.840  56.100 -59.458  1.00  0.00     0.296 C 
HETATM   15  O   UNL     1     -41.940  56.104 -60.293  1.00  0.00    -0.259 OA
BRANCH  14  16
HETATM   16  O   UNL     1     -43.860  55.196 -59.458  1.00  0.00    -0.318 OA
BRANCH  16  17
HETATM   17  C   UNL     1     -44.744  55.224 -60.585  1.00  0.00     0.174 C 
HETATM   18  C   UNL     1     -45.985  56.032 -60.256  1.00  0.00     0.034 C 
ENDBRANCH  16  17
ENDBRANCH  14  16
ENDBRANCH   8  14
BRANCH  10  19
HETATM   19  C   UNL     1     -43.572  60.442 -57.068  1.00  0.00     0.124 C 
HETATM   20  C   UNL     1     -42.353  61.348 -57.056  1.00  0.00     0.027 C 
ENDBRANCH  10  19
ENDBRANCH   6   7
ENDBRANCH   1   5
BRANCH   2  21
HETATM   21  C   UNL     1     -40.201  52.222 -53.911  1.00  0.00     0.050 A 
HETATM   22  C   UNL     1     -39.946  52.257 -52.526  1.00  0.00     0.058 A 
HETATM   23  C   UNL     1     -39.588  51.064 -51.867  1.00  0.00     0.019 A 
HETATM   24  C   UNL     1     -39.527  49.851 -52.552  1.00  0.00     0.001 A 
HETATM   25  C   UNL     1     -39.846  49.808 -53.904  1.00  0.00     0.002 A 
HETATM   26  C   UNL     1     -40.192  50.983 -54.575  1.00  0.00     0.030 A 
BRANCH  22  27
HETATM   27  C   UNL     1     -40.156  53.432 -51.626  1.00  0.00     0.254 C 
HETATM   28  N   UNL     1     -39.768  53.274 -50.308  1.00  0.00    -0.352 N 
HETATM   29  H   UNL     1     -39.435  52.369 -50.005  1.00  0.00     0.163 HD
HETATM   30  O   UNL     1     -40.539  54.504 -52.090  1.00  0.00    -0.268 OA
BRANCH  28  31
HETATM   31  C   UNL     1     -39.860  54.334 -49.359  1.00  0.00     0.084 A 
HETATM   32  C   UNL     1     -41.202  54.814 -48.881  1.00  0.00     0.027 A 
HETATM   33  C   UNL     1     -40.297  54.070 -47.944  1.00  0.00     0.027 A 
ENDBRANCH  28  31
ENDBRANCH  22  27
ENDBRANCH   2  21
TORSDOF 9
ENDMDL
MODEL 2
REMARK VINA RESULT:      -8.1      2.079      3.835
REMARK  9 active torsions:
REMARK  status: ('A' for Active; 'I' for Inactive)
REMARK    1  A    between atoms: C_2  and  N_3 
REMARK    2  A    between atoms: C_6  and  C_7 
REMARK    3  A    between atoms: C_7  and  O_8 
REMARK    4  A    between atoms: O_8  and  C_9 
REMARK    5  A    between atoms: C_12  and  C_13 
REMARK    6  A    between atoms: C_14  and  C_15 
REMARK       I    between atoms: C_15  and  N_16 
REMARK    7  A    between atoms: N_16  and  C_17 
REMARK    8  A    between atoms: C_18  and  C_19 
REMARK       I    between atoms: C_19  and  N_20 
REMARK    9  A    between atoms: N_20  and  C_21 
ROOT
HETATM    1  C   UNL     1     -41.478  53.914 -54.678  1.00  0.00     0.245 C 
HETATM    2  N   UNL     1     -40.250  53.298 -54.502  1.00  0.00    -0.323 N 
HETATM    3  O   UNL     1     -42.559  53.502 -54.284  1.00  0.00    -0.268 OA
HETATM    4  H   UNL     1     -39.458  53.930 -54.542  1.00  0.00     0.169 HD
ENDROOT
BRANCH   1   5
HETATM    5  C   UNL     1     -41.331  55.252 -55.306  1.00  0.00     0.075 C 
HETATM    6  C   UNL     1     -42.419  55.819 -55.848  1.00  0.00     0.020 C 
BRANCH   6   7
HETATM    7  C   UNL     1     -42.472  57.095 -56.493  1.00  0.00     0.005 A 
HETATM    8  C   UNL     1     -42.357  58.370 -55.845  1.00  0.00     0.073 A 
HETATM    9  C   UNL     1     -42.380  59.327 -56.861  1.00  0.00     0.025 A 
HETATM   10  N   UNL     1     -42.464  58.669 -58.071  1.00  0.00    -0.353 N 
HETATM   11  C   UNL     1     -42.298  60.815 -56.724  1.00  0.00     0.069 C 
HETATM   12  C   UNL     1     -42.559  57.304 -57.861  1.00  0.00     0.019 A 
HETATM   13  C   UNL     1     -42.657  56.337 -58.996  1.00  0.00     0.069 C 
BRANCH   8  14
HETATM   14  C   UNL     1     -42.229  58.685 -54.412  1.00  0.00     0.296 C 
HETATM   15  O   UNL     1     -43.146  58.561 -53.606  1.00  0.00    -0.259 OA
BRANCH  14  16
HETATM   16  O   UNL     1     -40.990  59.143 -54.076  1.00  0.00    -0.318 OA
BRANCH  16  17
HETATM   17  C   UNL     1     -40.267  58.384 -53.100  1.00  0.00     0.174 C 
HETATM   18  C   UNL     1     -40.256  59.117 -51.772  1.00  0.00     0.034 C 
ENDBRANCH  16  17
ENDBRANCH  14  16
ENDBRANCH   8  14
BRANCH  10  19
HETATM   19  C   UNL     1     -42.385  59.309 -59.381  1.00  0.00     0.124 C 
HETATM   20  C   UNL     1     -43.748  59.695 -59.928  1.00  0.00     0.027 C 
ENDBRANCH  10  19
ENDBRANCH   6   7
ENDBRANCH   1   5
BRANCH   2  21
HETATM   21  C   UNL     1     -40.091  52.161 -53.666  1.00  0.00     0.050 A 
HETATM   22  C   UNL     1     -40.025  52.175 -52.259  1.00  0.00     0.058 A 
HETATM   23  C   UNL     1     -39.716  50.980 -51.578  1.00  0.00     0.019 A 
HETATM   24  C   UNL     1     -39.521  49.785 -52.269  1.00  0.00     0.001 A 
HETATM   25  C   UNL     1     -39.654  49.761 -53.652  1.00  0.00     0.002 A 
HETATM   26  C   UNL     1     -39.948  50.937 -54.344  1.00  0.00     0.030 A 
BRANCH  22  27
HETATM   27  C   UNL     1     -40.396  53.323 -51.376  1.00  0.00     0.254 C 
HETATM   28  N   UNL     1     -41.740  53.642 -51.316  1.00  0.00    -0.352 N 
HETATM   29  H   UNL     1     -42.386  53.143 -51.913  1.00  0.00     0.163 HD
HETATM   30  O   UNL     1     -39.547  53.852 -50.663  1.00  0.00    -0.268 OA
BRANCH  28  31
HETATM   31  C   UNL     1     -42.236  54.677 -50.470  1.00  0.00     0.084 A 
HETATM   32  C   UNL     1     -42.474  56.058 -51.015  1.00  0.00     0.027 A 
HETATM   33  C   UNL     1     -43.638  55.197 -50.623  1.00  0.00     0.027 A 
ENDBRANCH  28  31
ENDBRANCH  22  27
ENDBRANCH   2  21
TORSDOF 9
ENDMDL
MODEL 3
REMARK VINA RESULT:      -7.9      2.008      3.498
REMARK  9 active torsions:
REMARK  status: ('A' for Active; 'I' for Inactive)
REMARK    1  A    between atoms: C_2  and  N_3 
REMARK    2  A    between atoms: C_6  and  C_7 
REMARK    3  A    between atoms: C_7  and  O_8 
REMARK    4  A    between atoms: O_8  and  C_9 
REMARK    5  A    between atoms: C_12  and  C_13 
REMARK    6  A    between atoms: C_14  and  C_15 
REMARK       I    between atoms: C_15  and  N_16 
REMARK    7  A    between atoms: N_16  and  C_17 
REMARK    8  A    between atoms: C_18  and  C_19 
REMARK       I    between atoms: C_19  and  N_20 
REMARK    9  A    between atoms: N_20  and  C_21 
ROOT
HETATM    1  C   UNL     1     -41.580  54.225 -55.240  1.00  0.00     0.245 C 
HETATM    2  N   UNL     1     -41.987  53.247 -54.347  1.00  0.00    -0.323 N 
HETATM    3  O   UNL     1     -40.428  54.484 -55.556  1.00  0.00    -0.268 OA
HETATM    4  H   UNL     1     -42.935  52.920 -54.491  1.00  0.00     0.169 HD
ENDROOT
BRANCH   1   5
HETATM    5  C   UNL     1     -42.739  54.869 -55.908  1.00  0.00     0.075 C 
HETATM    6  C   UNL     1     -42.554  56.065 -56.484  1.00  0.00     0.020 C 
BRANCH   6   7
HETATM    7  C   UNL     1     -43.546  56.834 -57.171  1.00  0.00     0.005 A 
HETATM    8  C   UNL     1     -44.279  57.939 -56.623  1.00  0.00     0.073 A 
HETATM    9  C   UNL     1     -45.068  58.436 -57.662  1.00  0.00     0.025 A 
HETATM   10  N   UNL     1     -44.800  57.698 -58.798  1.00  0.00    -0.353 N 
HETATM   11  C   UNL     1     -46.028  59.583 -57.620  1.00  0.00     0.069 C 
HETATM   12  C   UNL     1     -43.899  56.690 -58.504  1.00  0.00     0.019 A 
HETATM   13  C   UNL     1     -43.419  55.734 -59.546  1.00  0.00     0.069 C 
BRANCH   8  14
HETATM   14  C   UNL     1     -44.254  58.499 -55.262  1.00  0.00     0.296 C 
HETATM   15  O   UNL     1     -43.663  59.532 -54.964  1.00  0.00    -0.259 OA
BRANCH  14  16
HETATM   16  O   UNL     1     -44.944  57.743 -54.362  1.00  0.00    -0.318 OA
BRANCH  16  17
HETATM   17  C   UNL     1     -44.189  57.178 -53.283  1.00  0.00     0.174 C 
HETATM   18  C   UNL     1     -44.724  57.680 -51.954  1.00  0.00     0.034 C 
ENDBRANCH  16  17
ENDBRANCH  14  16
ENDBRANCH   8  14
BRANCH  10  19
HETATM   19  C   UNL     1     -45.329  57.985 -60.128  1.00  0.00     0.124 C 
HETATM   20  C   UNL     1     -46.648  57.284 -60.399  1.00  0.00     0.027 C 
ENDBRANCH  10  19
ENDBRANCH   6   7
ENDBRANCH   1   5
BRANCH   2  21
HETATM   21  C   UNL     1     -41.081  52.294 -53.811  1.00  0.00     0.050 A 
HETATM   22  C   UNL     1     -40.244  52.488 -52.694  1.00  0.00     0.058 A 
HETATM   23  C   UNL     1     -39.291  51.499 -52.374  1.00  0.00     0.019 A 
HETATM   24  C   UNL     1     -39.198  50.321 -53.113  1.00  0.00     0.001 A 
HETATM   25  C   UNL     1     -40.072  50.101 -54.172  1.00  0.00     0.002 A 
HETATM   26  C   UNL     1     -41.013  51.075 -54.510  1.00  0.00     0.030 A 
BRANCH  22  27
HETATM   27  C   UNL     1     -40.354  53.599 -51.701  1.00  0.00     0.254 C 
HETATM   28  N   UNL     1     -39.865  53.340 -50.434  1.00  0.00    -0.352 N 
HETATM   29  H   UNL     1     -39.530  52.410 -50.222  1.00  0.00     0.163 HD
HETATM   30  O   UNL     1     -40.747  54.708 -52.056  1.00  0.00    -0.268 OA
BRANCH  28  31
HETATM   31  C   UNL     1     -39.856  54.331 -49.408  1.00  0.00     0.084 A 
HETATM   32  C   UNL     1     -41.147  54.867 -48.856  1.00  0.00     0.027 A 
HETATM   33  C   UNL     1     -40.274  53.995 -48.003  1.00  0.00     0.027 A 
ENDBRANCH  28  31
ENDBRANCH  22  27
ENDBRANCH   2  21
TORSDOF 9
ENDMDL
MODEL 4
REMARK VINA RESULT:      -7.8      2.197      9.290
REMARK  9 active torsions:
REMARK  status: ('A' for Active; 'I' for Inactive)
REMARK    1  A    between atoms: C_2  and  N_3 
REMARK    2  A    between atoms: C_6  and  C_7 
REMARK    3  A    between atoms: C_7  and  O_8 
REMARK    4  A    between atoms: O_8  and  C_9 
REMARK    5  A    between atoms: C_12  and  C_13 
REMARK    6  A    between atoms: C_14  and  C_15 
REMARK       I    between atoms: C_15  and  N_16 
REMARK    7  A    between atoms: N_16  and  C_17 
REMARK    8  A    between atoms: C_18  and  C_19 
REMARK       I    between atoms: C_19  and  N_20 
REMARK    9  A    between atoms: N_20  and  C_21 
ROOT
HETATM    1  C   UNL     1     -42.720  56.180 -56.162  1.00  0.00     0.245 C 
HETATM    2  N   UNL     1     -42.263  55.843 -57.426  1.00  0.00    -0.323 N 
HETATM    3  O   UNL     1     -43.819  56.639 -55.888  1.00  0.00    -0.268 OA
HETATM    4  H   UNL     1     -41.524  55.149 -57.430  1.00  0.00     0.169 HD
ENDROOT
BRANCH   1   5
HETATM    5  C   UNL     1     -41.750  55.787 -55.110  1.00  0.00     0.075 C 
HETATM    6  C   UNL     1     -42.075  54.771 -54.297  1.00  0.00     0.020 C 
BRANCH   6   7
HETATM    7  C   UNL     1     -41.273  54.253 -53.231  1.00  0.00     0.005 A 
HETATM    8  C   UNL     1     -41.152  54.820 -51.919  1.00  0.00     0.073 A 
HETATM    9  C   UNL     1     -40.342  53.946 -51.191  1.00  0.00     0.025 A 
HETATM   10  N   UNL     1     -40.018  52.880 -52.005  1.00  0.00    -0.353 N 
HETATM   11  C   UNL     1     -39.898  54.075 -49.768  1.00  0.00     0.069 C 
HETATM   12  C   UNL     1     -40.549  53.071 -53.269  1.00  0.00     0.019 A 
HETATM   13  C   UNL     1     -40.363  52.070 -54.361  1.00  0.00     0.069 C 
BRANCH   8  14
HETATM   14  C   UNL     1     -41.737  56.056 -51.373  1.00  0.00     0.296 C 
HETATM   15  O   UNL     1     -42.796  56.089 -50.754  1.00  0.00    -0.259 OA
BRANCH  14  16
HETATM   16  O   UNL     1     -40.987  57.162 -51.640  1.00  0.00    -0.318 OA
BRANCH  16  17
HETATM   17  C   UNL     1     -40.916  58.154 -50.608  1.00  0.00     0.174 C 
HETATM   18  C   UNL     1     -39.783  59.123 -50.894  1.00  0.00     0.034 C 
ENDBRANCH  16  17
ENDBRANCH  14  16
ENDBRANCH   8  14
BRANCH  10  19
HETATM   19  C   UNL     1     -39.289  51.689 -51.576  1.00  0.00     0.124 C 
HETATM   20  C   UNL     1     -40.127  50.770 -50.706  1.00  0.00     0.027 C 
ENDBRANCH  10  19
ENDBRANCH   6   7
ENDBRANCH   1   5
BRANCH   2  21
HETATM   21  C   UNL     1     -43.119  55.840 -58.560  1.00  0.00     0.050 A 
HETATM   22  C   UNL     1     -43.393  56.945 -59.390  1.00  0.00     0.058 A 
HETATM   23  C   UNL     1     -44.380  56.820 -60.388  1.00  0.00     0.019 A 
HETATM   24  C   UNL     1     -45.051  55.615 -60.594  1.00  0.00     0.001 A 
HETATM   25  C   UNL     1     -44.729  54.508 -59.820  1.00  0.00     0.002 A 
HETATM   26  C   UNL     1     -43.762  54.616 -58.818  1.00  0.00     0.030 A 
BRANCH  22  27
HETATM   27  C   UNL     1     -42.630  58.229 -59.417  1.00  0.00     0.254 C 
HETATM   28  N   UNL     1     -43.180  59.254 -60.166  1.00  0.00    -0.352 N 
HETATM   29  H   UNL     1     -44.014  59.068 -60.706  1.00  0.00     0.163 HD
HETATM   30  O   UNL     1     -41.640  58.374 -58.705  1.00  0.00    -0.268 OA
BRANCH  28  31
HETATM   31  C   UNL     1     -42.584  60.548 -60.232  1.00  0.00     0.084 A 
HETATM   32  C   UNL     1     -41.706  60.925 -61.392  1.00  0.00     0.027 A 
HETATM   33  C   UNL     1     -43.053  61.566 -61.234  1.00  0.00     0.027 A 
ENDBRANCH  28  31
ENDBRANCH  22  27
ENDBRANCH   2  21
TORSDOF 9
ENDMDL
MODEL 5
REMARK VINA RESULT:      -7.5      2.222      4.795
REMARK  9 active torsions:
REMARK  status: ('A' for Active; 'I' for Inactive)
REMARK    1  A    between atoms: C_2  and  N_3 
REMARK    2  A    between atoms: C_6  and  C_7 
REMARK    3  A    between atoms: C_7  and  O_8 
REMARK    4  A    between atoms: O_8  and  C_9 
REMARK    5  A    between atoms: C_12  and  C_13 
REMARK    6  A    between atoms: C_14  and  C_15 
REMARK       I    between atoms: C_15  and  N_16 
REMARK    7  A    between atoms: N_16  and  C_17 
REMARK    8  A    between atoms: C_18  and  C_19 
REMARK       I    between atoms: C_19  and  N_20 
REMARK    9  A    between atoms: N_20  and  C_21 
ROOT
HETATM    1  C   UNL     1     -41.731  57.161 -53.460  1.00  0.00     0.245 C 
HETATM    2  N   UNL     1     -42.349  56.150 -52.741  1.00  0.00    -0.323 N 
HETATM    3  O   UNL     1     -40.626  57.634 -53.241  1.00  0.00    -0.268 OA
HETATM    4  H   UNL     1     -43.050  55.637 -53.263  1.00  0.00     0.169 HD
ENDROOT
BRANCH   1   5
HETATM    5  C   UNL     1     -42.523  57.540 -54.657  1.00  0.00     0.075 C 
HETATM    6  C   UNL     1     -42.028  57.235 -55.866  1.00  0.00     0.020 C 
BRANCH   6   7
HETATM    7  C   UNL     1     -42.644  57.518 -57.126  1.00  0.00     0.005 A 
HETATM    8  C   UNL     1     -42.719  58.805 -57.754  1.00  0.00     0.073 A 
HETATM    9  C   UNL     1     -43.325  58.598 -58.994  1.00  0.00     0.025 A 
HETATM   10  N   UNL     1     -43.571  57.247 -59.135  1.00  0.00    -0.353 N 
HETATM   11  C   UNL     1     -43.647  59.618 -60.042  1.00  0.00     0.069 C 
HETATM   12  C   UNL     1     -43.194  56.577 -57.983  1.00  0.00     0.019 A 
HETATM   13  C   UNL     1     -43.339  55.096 -57.851  1.00  0.00     0.069 C 
BRANCH   8  14
HETATM   14  C   UNL     1     -42.267  60.117 -57.261  1.00  0.00     0.296 C 
HETATM   15  O   UNL     1     -42.918  60.811 -56.486  1.00  0.00    -0.259 OA
BRANCH  14  16
HETATM   16  O   UNL     1     -41.057  60.487 -57.766  1.00  0.00    -0.318 OA
BRANCH  16  17
HETATM   17  C   UNL     1     -40.923  61.851 -58.182  1.00  0.00     0.174 C 
HETATM   18  C   UNL     1     -40.934  61.937 -59.697  1.00  0.00     0.034 C 
ENDBRANCH  16  17
ENDBRANCH  14  16
ENDBRANCH   8  14
BRANCH  10  19
HETATM   19  C   UNL     1     -44.080  56.609 -60.345  1.00  0.00     0.124 C 
HETATM   20  C   UNL     1     -45.590  56.455 -60.337  1.00  0.00     0.027 C 
ENDBRANCH  10  19
ENDBRANCH   6   7
ENDBRANCH   1   5
BRANCH   2  21
HETATM   21  C   UNL     1     -41.665  55.414 -51.738  1.00  0.00     0.050 A 
HETATM   22  C   UNL     1     -41.132  54.118 -51.884  1.00  0.00     0.058 A 
HETATM   23  C   UNL     1     -40.612  53.461 -50.751  1.00  0.00     0.019 A 
HETATM   24  C   UNL     1     -40.575  54.088 -49.506  1.00  0.00     0.001 A 
HETATM   25  C   UNL     1     -41.039  55.392 -49.380  1.00  0.00     0.002 A 
HETATM   26  C   UNL     1     -41.568  56.054 -50.489  1.00  0.00     0.030 A 
BRANCH  22  27
HETATM   27  C   UNL     1     -40.926  53.397 -53.178  1.00  0.00     0.254 C 
HETATM   28  N   UNL     1     -40.224  52.208 -53.112  1.00  0.00    -0.352 N 
HETATM   29  H   UNL     1     -39.829  51.924 -52.226  1.00  0.00     0.163 HD
HETATM   30  O   UNL     1     -41.469  53.802 -54.203  1.00  0.00    -0.268 OA
BRANCH  28  31
HETATM   31  C   UNL     1     -40.006  51.392 -54.262  1.00  0.00     0.084 A 
HETATM   32  C   UNL     1     -39.306  50.068 -54.136  1.00  0.00     0.027 A 
HETATM   33  C   UNL     1     -40.771  50.112 -54.459  1.00  0.00     0.027 A 
ENDBRANCH  28  31
ENDBRANCH  22  27
ENDBRANCH   2  21
TORSDOF 9
ENDMDL
MODEL 6
REMARK VINA RESULT:      -7.5      1.870      2.367
REMARK  9 active torsions:
REMARK  status: ('A' for Active; 'I' for Inactive)
REMARK    1  A    between atoms: C_2  and  N_3 
REMARK    2  A    between atoms: C_6  and  C_7 
REMARK    3  A    between atoms: C_7  and  O_8 
REMARK    4  A    between atoms: O_8  and  C_9 
REMARK    5  A    between atoms: C_12  and  C_13 
REMARK    6  A    between atoms: C_14  and  C_15 
REMARK       I    between atoms: C_15  and  N_16 
REMARK    7  A    between atoms: N_16  and  C_17 
REMARK    8  A    between atoms: C_18  and  C_19 
REMARK       I    between atoms: C_19  and  N_20 
REMARK    9  A    between atoms: N_20  and  C_21 
ROOT
HETATM    1  C   UNL     1     -42.965  55.008 -54.711  1.00  0.00     0.245 C 
HETATM    2  N   UNL     1     -41.600  54.859 -54.523  1.00  0.00    -0.323 N 
HETATM    3  O   UNL     1     -43.846  54.373 -54.151  1.00  0.00    -0.268 OA
HETATM    4  H   UNL     1     -41.056  55.682 -54.754  1.00  0.00     0.169 HD
ENDROOT
BRANCH   1   5
HETATM    5  C   UNL     1     -43.269  56.158 -55.599  1.00  0.00     0.075 C 
HETATM    6  C   UNL     1     -42.258  56.718 -56.278  1.00  0.00     0.020 C 
BRANCH   6   7
HETATM    7  C   UNL     1     -42.357  57.827 -57.177  1.00  0.00     0.005 A 
HETATM    8  C   UNL     1     -42.627  57.747 -58.584  1.00  0.00     0.073 A 
HETATM    9  C   UNL     1     -42.716  59.064 -59.038  1.00  0.00     0.025 A 
HETATM   10  N   UNL     1     -42.550  59.906 -57.957  1.00  0.00    -0.353 N 
HETATM   11  C   UNL     1     -42.977  59.539 -60.433  1.00  0.00     0.069 C 
HETATM   12  C   UNL     1     -42.291  59.164 -56.817  1.00  0.00     0.019 A 
HETATM   13  C   UNL     1     -42.074  59.812 -55.488  1.00  0.00     0.069 C 
BRANCH   8  14
HETATM   14  C   UNL     1     -42.796  56.562 -59.440  1.00  0.00     0.296 C 
HETATM   15  O   UNL     1     -42.016  56.256 -60.337  1.00  0.00    -0.259 OA
BRANCH  14  16
HETATM   16  O   UNL     1     -43.917  55.846 -59.143  1.00  0.00    -0.318 OA
BRANCH  16  17
HETATM   17  C   UNL     1     -44.835  55.613 -60.219  1.00  0.00     0.174 C 
HETATM   18  C   UNL     1     -45.849  56.740 -60.292  1.00  0.00     0.034 C 
ENDBRANCH  16  17
ENDBRANCH  14  16
ENDBRANCH   8  14
BRANCH  10  19
HETATM   19  C   UNL     1     -42.701  61.358 -57.993  1.00  0.00     0.124 C 
HETATM   20  C   UNL     1     -41.387  62.078 -58.240  1.00  0.00     0.027 C 
ENDBRANCH  10  19
ENDBRANCH   6   7
ENDBRANCH   1   5
BRANCH   2  21
HETATM   21  C   UNL     1     -41.067  54.035 -53.497  1.00  0.00     0.050 A 
HETATM   22  C   UNL     1     -40.949  54.383 -52.137  1.00  0.00     0.058 A 
HETATM   23  C   UNL     1     -40.262  53.514 -51.266  1.00  0.00     0.019 A 
HETATM   24  C   UNL     1     -39.740  52.302 -51.719  1.00  0.00     0.001 A 
HETATM   25  C   UNL     1     -39.918  51.930 -53.046  1.00  0.00     0.002 A 
HETATM   26  C   UNL     1     -40.586  52.784 -53.925  1.00  0.00     0.030 A 
BRANCH  22  27
HETATM   27  C   UNL     1     -41.616  55.543 -51.469  1.00  0.00     0.254 C 
HETATM   28  N   UNL     1     -40.916  56.736 -51.470  1.00  0.00    -0.352 N 
HETATM   29  H   UNL     1     -39.979  56.750 -51.848  1.00  0.00     0.163 HD
HETATM   30  O   UNL     1     -42.771  55.441 -51.063  1.00  0.00    -0.268 OA
BRANCH  28  31
HETATM   31  C   UNL     1     -41.460  57.933 -50.918  1.00  0.00     0.084 A 
HETATM   32  C   UNL     1     -40.572  59.110 -50.627  1.00  0.00     0.027 A 
HETATM   33  C   UNL     1     -41.571  59.185 -51.744  1.00  0.00     0.027 A 
ENDBRANCH  28  31
ENDBRANCH  22  27
ENDBRANCH   2  21
TORSDOF 9
ENDMDL
MODEL 7
REMARK VINA RESULT:      -7.5      2.102      2.730
REMARK  9 active torsions:
REMARK  status: ('A' for Active; 'I' for Inactive)
REMARK    1  A    between atoms: C_2  and  N_3 
REMARK    2  A    between atoms: C_6  and  C_7 
REMARK    3  A    between atoms: C_7  and  O_8 
REMARK    4  A    between atoms: O_8  and  C_9 
REMARK    5  A    between atoms: C_12  and  C_13 
REMARK    6  A    between atoms: C_14  and  C_15 
REMARK       I    between atoms: C_15  and  N_16 
REMARK    7  A    between atoms: N_16  and  C_17 
REMARK    8  A    between atoms: C_18  and  C_19 
REMARK       I    between atoms: C_19  and  N_20 
REMARK    9  A    between atoms: N_20  and  C_21 
ROOT
HETATM    1  C   UNL     1     -41.803  54.937 -55.035  1.00  0.00     0.245 C 
HETATM    2  N   UNL     1     -42.220  53.899 -54.217  1.00  0.00    -0.323 N 
HETATM    3  O   UNL     1     -40.660  55.353 -55.151  1.00  0.00    -0.268 OA
HETATM    4  H   UNL     1     -43.077  53.451 -54.519  1.00  0.00     0.169 HD
ENDROOT
BRANCH   1   5
HETATM    5  C   UNL     1     -42.908  55.431 -55.894  1.00  0.00     0.075 C 
HETATM    6  C   UNL     1     -42.854  56.698 -56.330  1.00  0.00     0.020 C 
BRANCH   6   7
HETATM    7  C   UNL     1     -43.820  57.346 -57.162  1.00  0.00     0.005 A 
HETATM    8  C   UNL     1     -43.778  57.425 -58.594  1.00  0.00     0.073 A 
HETATM    9  C   UNL     1     -44.954  58.068 -58.983  1.00  0.00     0.025 A 
HETATM   10  N   UNL     1     -45.696  58.334 -57.850  1.00  0.00    -0.353 N 
HETATM   11  C   UNL     1     -45.400  58.409 -60.371  1.00  0.00     0.069 C 
HETATM   12  C   UNL     1     -44.998  57.932 -56.724  1.00  0.00     0.019 A 
HETATM   13  C   UNL     1     -45.562  58.089 -55.350  1.00  0.00     0.069 C 
BRANCH   8  14
HETATM   14  C   UNL     1     -42.749  56.943 -59.530  1.00  0.00     0.296 C 
HETATM   15  O   UNL     1     -42.814  55.866 -60.115  1.00  0.00    -0.259 OA
BRANCH  14  16
HETATM   16  O   UNL     1     -41.708  57.812 -59.669  1.00  0.00    -0.318 OA
BRANCH  16  17
HETATM   17  C   UNL     1     -41.799  58.759 -60.740  1.00  0.00     0.174 C 
HETATM   18  C   UNL     1     -41.996  60.157 -60.185  1.00  0.00     0.034 C 
ENDBRANCH  16  17
ENDBRANCH  14  16
ENDBRANCH   8  14
BRANCH  10  19
HETATM   19  C   UNL     1     -47.048  58.884 -57.842  1.00  0.00     0.124 C 
HETATM   20  C   UNL     1     -47.064  60.402 -57.787  1.00  0.00     0.027 C 
ENDBRANCH  10  19
ENDBRANCH   6   7
ENDBRANCH   1   5
BRANCH   2  21
HETATM   21  C   UNL     1     -41.298  53.067 -53.528  1.00  0.00     0.050 A 
HETATM   22  C   UNL     1     -40.796  53.291 -52.231  1.00  0.00     0.058 A 
HETATM   23  C   UNL     1     -39.773  52.453 -51.741  1.00  0.00     0.019 A 
HETATM   24  C   UNL     1     -39.288  51.388 -52.498  1.00  0.00     0.001 A 
HETATM   25  C   UNL     1     -39.834  51.128 -53.749  1.00  0.00     0.002 A 
HETATM   26  C   UNL     1     -40.839  51.954 -54.255  1.00  0.00     0.030 A 
BRANCH  22  27
HETATM   27  C   UNL     1     -41.343  54.262 -51.235  1.00  0.00     0.254 C 
HETATM   28  N   UNL     1     -41.071  55.598 -51.468  1.00  0.00    -0.352 N 
HETATM   29  H   UNL     1     -40.468  55.844 -52.241  1.00  0.00     0.163 HD
HETATM   30  O   UNL     1     -42.092  53.874 -50.342  1.00  0.00    -0.268 OA
BRANCH  28  31
HETATM   31  C   UNL     1     -41.581  56.632 -50.628  1.00  0.00     0.084 A 
HETATM   32  C   UNL     1     -40.923  57.983 -50.598  1.00  0.00     0.027 A 
HETATM   33  C   UNL     1     -42.283  57.827 -51.212  1.00  0.00     0.027 A 
ENDBRANCH  28  31
ENDBRANCH  22  27
ENDBRANCH   2  21
TORSDOF 9
ENDMDL
MODEL 8
REMARK VINA RESULT:      -7.4      2.516      3.882
REMARK  9 active torsions:
REMARK  status: ('A' for Active; 'I' for Inactive)
REMARK    1  A    between atoms: C_2  and  N_3 
REMARK    2  A    between atoms: C_6  and  C_7 
REMARK    3  A    between atoms: C_7  and  O_8 
REMARK    4  A    between atoms: O_8  and  C_9 
REMARK    5  A    between atoms: C_12  and  C_13 
REMARK    6  A    between atoms: C_14  and  C_15 
REMARK       I    between atoms: C_15  and  N_16 
REMARK    7  A    between atoms: N_16  and  C_17 
REMARK    8  A    between atoms: C_18  and  C_19 
REMARK       I    between atoms: C_19  and  N_20 
REMARK    9  A    between atoms: N_20  and  C_21 
ROOT
HETATM    1  C   UNL     1     -42.683  54.595 -55.878  1.00  0.00     0.245 C 
HETATM    2  N   UNL     1     -41.420  54.713 -55.319  1.00  0.00    -0.323 N 
HETATM    3  O   UNL     1     -43.511  53.733 -55.623  1.00  0.00    -0.268 OA
HETATM    4  H   UNL     1     -41.039  55.652 -55.346  1.00  0.00     0.169 HD
ENDROOT
BRANCH   1   5
HETATM    5  C   UNL     1     -42.997  55.747 -56.760  1.00  0.00     0.075 C 
HETATM    6  C   UNL     1     -42.137  56.776 -56.787  1.00  0.00     0.020 C 
BRANCH   6   7
HETATM    7  C   UNL     1     -42.269  57.966 -57.571  1.00  0.00     0.005 A 
HETATM    8  C   UNL     1     -42.362  59.303 -57.058  1.00  0.00     0.073 A 
HETATM    9  C   UNL     1     -42.392  60.145 -58.171  1.00  0.00     0.025 A 
HETATM   10  N   UNL     1     -42.282  59.366 -59.305  1.00  0.00    -0.353 N 
HETATM   11  C   UNL     1     -42.492  61.638 -58.192  1.00  0.00     0.069 C 
HETATM   12  C   UNL     1     -42.244  58.026 -58.956  1.00  0.00     0.019 A 
HETATM   13  C   UNL     1     -42.121  56.948 -59.981  1.00  0.00     0.069 C 
BRANCH   8  14
HETATM   14  C   UNL     1     -42.412  59.771 -55.663  1.00  0.00     0.296 C 
HETATM   15  O   UNL     1     -41.415  59.930 -54.965  1.00  0.00    -0.259 OA
BRANCH  14  16
HETATM   16  O   UNL     1     -43.682  59.998 -55.223  1.00  0.00    -0.318 OA
BRANCH  16  17
HETATM   17  C   UNL     1     -44.209  59.064 -54.272  1.00  0.00     0.174 C 
HETATM   18  C   UNL     1     -45.366  59.688 -53.514  1.00  0.00     0.034 C 
ENDBRANCH  16  17
ENDBRANCH  14  16
ENDBRANCH   8  14
BRANCH  10  19
HETATM   19  C   UNL     1     -42.148  59.878 -60.666  1.00  0.00     0.124 C 
HETATM   20  C   UNL     1     -43.488  60.110 -61.341  1.00  0.00     0.027 C 
ENDBRANCH  10  19
ENDBRANCH   6   7
ENDBRANCH   1   5
BRANCH   2  21
HETATM   21  C   UNL     1     -41.004  53.910 -54.224  1.00  0.00     0.050 A 
HETATM   22  C   UNL     1     -41.078  54.267 -52.863  1.00  0.00     0.058 A 
HETATM   23  C   UNL     1     -40.487  53.422 -51.902  1.00  0.00     0.019 A 
HETATM   24  C   UNL     1     -39.876  52.225 -52.272  1.00  0.00     0.001 A 
HETATM   25  C   UNL     1     -39.865  51.842 -53.608  1.00  0.00     0.002 A 
HETATM   26  C   UNL     1     -40.435  52.672 -54.574  1.00  0.00     0.030 A 
BRANCH  22  27
HETATM   27  C   UNL     1     -41.860  55.409 -52.300  1.00  0.00     0.254 C 
HETATM   28  N   UNL     1     -41.141  56.355 -51.592  1.00  0.00    -0.352 N 
HETATM   29  H   UNL     1     -40.156  56.196 -51.431  1.00  0.00     0.163 HD
HETATM   30  O   UNL     1     -43.051  55.536 -52.573  1.00  0.00    -0.268 OA
BRANCH  28  31
HETATM   31  C   UNL     1     -41.754  57.524 -51.051  1.00  0.00     0.084 A 
HETATM   32  C   UNL     1     -40.926  58.562 -50.347  1.00  0.00     0.027 A 
HETATM   33  C   UNL     1     -41.540  58.872 -51.680  1.00  0.00     0.027 A 
ENDBRANCH  28  31
ENDBRANCH  22  27
ENDBRANCH   2  21
TORSDOF 9
ENDMDL
MODEL 9
REMARK VINA RESULT:      -7.4      2.331      4.616
REMARK  9 active torsions:
REMARK  status: ('A' for Active; 'I' for Inactive)
REMARK    1  A    between atoms: C_2  and  N_3 
REMARK    2  A    between atoms: C_6  and  C_7 
REMARK    3  A    between atoms: C_7  and  O_8 
REMARK    4  A    between atoms: O_8  and  C_9 
REMARK    5  A    between atoms: C_12  and  C_13 
REMARK    6  A    between atoms: C_14  and  C_15 
REMARK       I    between atoms: C_15  and  N_16 
REMARK    7  A    between atoms: N_16  and  C_17 
REMARK    8  A    between atoms: C_18  and  C_19 
REMARK       I    between atoms: C_19  and  N_20 
REMARK    9  A    between atoms: N_20  and  C_21 
ROOT
HETATM    1  C   UNL     1     -43.018  55.341 -53.497  1.00  0.00     0.245 C 
HETATM    2  N   UNL     1     -41.818  55.740 -52.931  1.00  0.00    -0.323 N 
HETATM    3  O   UNL     1     -43.695  54.382 -53.158  1.00  0.00    -0.268 OA
HETATM    4  H   UNL     1     -41.603  56.722 -53.060  1.00  0.00     0.169 HD
ENDROOT
BRANCH   1   5
HETATM    5  C   UNL     1     -43.490  56.315 -54.513  1.00  0.00     0.075 C 
HETATM    6  C   UNL     1     -42.646  56.666 -55.494  1.00  0.00     0.020 C 
BRANCH   6   7
HETATM    7  C   UNL     1     -42.921  57.584 -56.556  1.00  0.00     0.005 A 
HETATM    8  C   UNL     1     -42.851  59.014 -56.469  1.00  0.00     0.073 A 
HETATM    9  C   UNL     1     -43.113  59.495 -57.753  1.00  0.00     0.025 A 
HETATM   10  N   UNL     1     -43.295  58.413 -58.591  1.00  0.00    -0.353 N 
HETATM   11  C   UNL     1     -43.170  60.920 -58.207  1.00  0.00     0.069 C 
HETATM   12  C   UNL     1     -43.217  57.236 -57.865  1.00  0.00     0.019 A 
HETATM   13  C   UNL     1     -43.369  55.900 -58.514  1.00  0.00     0.069 C 
BRANCH   8  14
HETATM   14  C   UNL     1     -42.560  59.870 -55.307  1.00  0.00     0.296 C 
HETATM   15  O   UNL     1     -41.460  59.927 -54.766  1.00  0.00    -0.259 OA
BRANCH  14  16
HETATM   16  O   UNL     1     -43.643  60.582 -54.886  1.00  0.00    -0.318 OA
BRANCH  16  17
HETATM   17  C   UNL     1     -44.836  59.838 -54.612  1.00  0.00     0.174 C 
HETATM   18  C   UNL     1     -44.944  59.555 -53.125  1.00  0.00     0.034 C 
ENDBRANCH  16  17
ENDBRANCH  14  16
ENDBRANCH   8  14
BRANCH  10  19
HETATM   19  C   UNL     1     -43.465  58.492 -60.039  1.00  0.00     0.124 C 
HETATM   20  C   UNL     1     -44.914  58.691 -60.449  1.00  0.00     0.027 C 
ENDBRANCH  10  19
ENDBRANCH   6   7
ENDBRANCH   1   5
BRANCH   2  21
HETATM   21  C   UNL     1     -41.313  55.150 -51.742  1.00  0.00     0.050 A 
HETATM   22  C   UNL     1     -40.669  53.900 -51.650  1.00  0.00     0.058 A 
HETATM   23  C   UNL     1     -40.358  53.384 -50.376  1.00  0.00     0.019 A 
HETATM   24  C   UNL     1     -40.634  54.108 -49.217  1.00  0.00     0.001 A 
HETATM   25  C   UNL     1     -41.205  55.371 -49.314  1.00  0.00     0.002 A 
HETATM   26  C   UNL     1     -41.531  55.892 -50.567  1.00  0.00     0.030 A 
BRANCH  22  27
HETATM   27  C   UNL     1     -40.141  53.101 -52.798  1.00  0.00     0.254 C 
HETATM   28  N   UNL     1     -39.849  51.774 -52.539  1.00  0.00    -0.352 N 
HETATM   29  H   UNL     1     -39.936  51.433 -51.592  1.00  0.00     0.163 HD
HETATM   30  O   UNL     1     -40.097  53.592 -53.923  1.00  0.00    -0.268 OA
BRANCH  28  31
HETATM   31  C   UNL     1     -39.393  50.887 -53.558  1.00  0.00     0.084 A 
HETATM   32  C   UNL     1     -39.438  49.399 -53.349  1.00  0.00     0.027 A 
HETATM   33  C   UNL     1     -40.361  50.044 -54.341  1.00  0.00     0.027 A 
ENDBRANCH  28  31
ENDBRANCH  22  27
ENDBRANCH   2  21
TORSDOF 9
ENDMDL
MODEL 10
REMARK VINA RESULT:      -7.3      2.756      5.596
REMARK  9 active torsions:
REMARK  status: ('A' for Active; 'I' for Inactive)
REMARK    1  A    between atoms: C_2  and  N_3 
REMARK    2  A    between atoms: C_6  and  C_7 
REMARK    3  A    between atoms: C_7  and  O_8 
REMARK    4  A    between atoms: O_8  and  C_9 
REMARK    5  A    between atoms: C_12  and  C_13 
REMARK    6  A    between atoms: C_14  and  C_15 
REMARK       I    between atoms: C_15  and  N_16 
REMARK    7  A    between atoms: N_16  and  C_17 
REMARK    8  A    between atoms: C_18  and  C_19 
REMARK       I    between atoms: C_19  and  N_20 
REMARK    9  A    between atoms: N_20  and  C_21 
ROOT
HETATM    1  C   UNL     1     -43.073  55.952 -52.223  1.00  0.00     0.245 C 
HETATM    2  N   UNL     1     -41.728  55.967 -51.888  1.00  0.00    -0.323 N 
HETATM    3  O   UNL     1     -43.898  55.122 -51.871  1.00  0.00    -0.268 OA
HETATM    4  H   UNL     1     -41.298  56.884 -51.933  1.00  0.00     0.169 HD
ENDROOT
BRANCH   1   5
HETATM    5  C   UNL     1     -43.459  57.172 -52.976  1.00  0.00     0.075 C 
HETATM    6  C   UNL     1     -42.580  57.680 -53.852  1.00  0.00     0.020 C 
BRANCH   6   7
HETATM    7  C   UNL     1     -42.774  58.842 -54.665  1.00  0.00     0.005 A 
HETATM    8  C   UNL     1     -42.944  60.183 -54.185  1.00  0.00     0.073 A 
HETATM    9  C   UNL     1     -43.013  60.995 -55.318  1.00  0.00     0.025 A 
HETATM   10  N   UNL     1     -42.854  60.196 -56.432  1.00  0.00    -0.353 N 
HETATM   11  C   UNL     1     -43.196  62.480 -55.375  1.00  0.00     0.069 C 
HETATM   12  C   UNL     1     -42.744  58.870 -56.051  1.00  0.00     0.019 A 
HETATM   13  C   UNL     1     -42.554  57.776 -57.050  1.00  0.00     0.069 C 
BRANCH   8  14
HETATM   14  C   UNL     1     -43.028  60.681 -52.802  1.00  0.00     0.296 C 
HETATM   15  O   UNL     1     -44.060  61.115 -52.300  1.00  0.00    -0.259 OA
BRANCH  14  16
HETATM   16  O   UNL     1     -41.837  60.622 -52.142  1.00  0.00    -0.318 OA
BRANCH  16  17
HETATM   17  C   UNL     1     -41.820  59.888 -50.911  1.00  0.00     0.174 C 
HETATM   18  C   UNL     1     -40.483  59.191 -50.739  1.00  0.00     0.034 C 
ENDBRANCH  16  17
ENDBRANCH  14  16
ENDBRANCH   8  14
BRANCH  10  19
HETATM   19  C   UNL     1     -42.740  60.683 -57.804  1.00  0.00     0.124 C 
HETATM   20  C   UNL     1     -41.317  61.063 -58.176  1.00  0.00     0.027 C 
ENDBRANCH  10  19
ENDBRANCH   6   7
ENDBRANCH   1   5
BRANCH   2  21
HETATM   21  C   UNL     1     -41.182  55.076 -50.926  1.00  0.00     0.050 A 
HETATM   22  C   UNL     1     -40.657  53.796 -51.191  1.00  0.00     0.058 A 
HETATM   23  C   UNL     1     -40.288  52.972 -50.109  1.00  0.00     0.019 A 
HETATM   24  C   UNL     1     -40.392  53.419 -48.792  1.00  0.00     0.001 A 
HETATM   25  C   UNL     1     -40.845  54.708 -48.537  1.00  0.00     0.002 A 
HETATM   26  C   UNL     1     -41.226  55.534 -49.596  1.00  0.00     0.030 A 
BRANCH  22  27
HETATM   27  C   UNL     1     -40.309  53.255 -52.540  1.00  0.00     0.254 C 
HETATM   28  N   UNL     1     -39.969  51.916 -52.595  1.00  0.00    -0.352 N 
HETATM   29  H   UNL     1     -39.903  51.395 -51.731  1.00  0.00     0.163 HD
HETATM   30  O   UNL     1     -40.447  53.955 -53.540  1.00  0.00    -0.268 OA
BRANCH  28  31
HETATM   31  C   UNL     1     -39.671  51.260 -53.826  1.00  0.00     0.084 A 
HETATM   32  C   UNL     1     -39.347  49.792 -53.848  1.00  0.00     0.027 A 
HETATM   33  C   UNL     1     -40.637  50.283 -54.436  1.00  0.00     0.027 A 
ENDBRANCH  28  31
ENDBRANCH  22  27
ENDBRANCH   2  21
TORSDOF 9
ENDMDL
