MODEL 1
REMARK VINA RESULT:      -9.1      0.000      0.000
REMARK  7 active torsions:
REMARK  status: ('A' for Active; 'I' for Inactive)
REMARK    1  A    between atoms: C_2  and  N_3 
REMARK    2  A    between atoms: C_2  and  C_25 
REMARK       I    between atoms: N_3  and  C_4 
REMARK    3  A    between atoms: C_4  and  C_5 
REMARK    4  A    between atoms: C_8  and  C_9 
REMARK       I    between atoms: C_9  and  N_10 
REMARK    5  A    between atoms: N_10  and  C_11 
REMARK    6  A    between atoms: N_19  and  C_20 
REMARK    7  A    between atoms: C_33  and  O_34 
ROOT
HETATM    1  C   UNL     1     -43.498  57.632 -57.065  1.00  0.00     0.098 A 
HETATM    2  C   UNL     1     -43.488  58.970 -57.734  1.00  0.00     0.206 A 
HETATM    3  O   UNL     1     -43.408  60.006 -57.070  1.00  0.00    -0.286 OA
HETATM    4  C   UNL     1     -43.559  59.025 -59.225  1.00  0.00     0.098 A 
HETATM    5  C   UNL     1     -43.734  57.856 -59.865  1.00  0.00     0.112 A 
HETATM    6  N   UNL     1     -43.844  56.637 -59.226  1.00  0.00    -0.360 N 
HETATM    7  C   UNL     1     -43.666  56.560 -57.859  1.00  0.00     0.112 A 
ENDROOT
BRANCH   1   8
HETATM    8  C   UNL     1     -43.327  57.421 -55.600  1.00  0.00     0.257 C 
HETATM    9  N   UNL     1     -42.053  57.598 -55.134  1.00  0.00    -0.348 N 
HETATM   10  H   UNL     1     -41.321  57.843 -55.801  1.00  0.00     0.163 HD
HETATM   11  O   UNL     1     -44.268  57.106 -54.877  1.00  0.00    -0.267 OA
BRANCH   9  12
HETATM   12  C   UNL     1     -41.664  57.412 -53.748  1.00  0.00     0.114 C 
HETATM   13  C   UNL     1     -40.647  58.465 -53.301  1.00  0.00     0.037 C 
BRANCH  12  14
HETATM   14  C   UNL     1     -41.141  55.997 -53.570  1.00  0.00    -0.035 A 
HETATM   15  C   UNL     1     -41.087  55.424 -52.289  1.00  0.00     0.021 A 
HETATM   16  C   UNL     1     -40.663  54.096 -52.099  1.00  0.00    -0.025 A 
HETATM   17  C   UNL     1     -40.289  53.320 -53.217  1.00  0.00    -0.023 A 
HETATM   18  C   UNL     1     -40.612  53.516 -50.822  1.00  0.00     0.015 A 
HETATM   19  C   UNL     1     -40.342  53.893 -54.496  1.00  0.00     0.013 A 
HETATM   20  C   UNL     1     -39.880  51.991 -53.027  1.00  0.00     0.049 A 
HETATM   21  C   UNL     1     -40.764  55.212 -54.671  1.00  0.00     0.010 A 
HETATM   22  C   UNL     1     -39.837  51.420 -51.752  1.00  0.00     0.069 A 
HETATM   23  C   UNL     1     -40.202  52.188 -50.649  1.00  0.00     0.037 A 
BRANCH  22  24
HETATM   24  O   UNL     1     -39.425  50.116 -51.723  1.00  0.00    -0.356 OA
HETATM   25  C   UNL     1     -39.566  49.371 -52.925  1.00  0.00     0.210 C 
ENDBRANCH  22  24
ENDBRANCH  12  14
ENDBRANCH   9  12
ENDBRANCH   1   8
BRANCH   4  26
HETATM   26  C   UNL     1     -43.424  60.272 -60.030  1.00  0.00     0.257 C 
HETATM   27  N   UNL     1     -42.327  61.039 -59.730  1.00  0.00    -0.352 N 
HETATM   28  H   UNL     1     -41.777  60.784 -58.910  1.00  0.00     0.163 HD
HETATM   29  O   UNL     1     -44.233  60.564 -60.905  1.00  0.00    -0.267 OA
BRANCH  27  30
HETATM   30  C   UNL     1     -42.055  62.325 -60.359  1.00  0.00     0.084 C 
HETATM   31  C   UNL     1     -42.555  63.483 -59.484  1.00  0.00     0.025 C 
HETATM   32  C   UNL     1     -41.705  63.679 -58.230  1.00  0.00     0.002 C 
HETATM   33  C   UNL     1     -40.226  63.842 -58.571  1.00  0.00     0.000 C 
HETATM   34  C   UNL     1     -39.708  62.680 -59.412  1.00  0.00     0.002 C 
HETATM   35  C   UNL     1     -40.558  62.467 -60.666  1.00  0.00     0.025 C 
ENDBRANCH  27  30
ENDBRANCH   4  26
BRANCH   6  36
HETATM   36  C   UNL     1     -43.865  55.406 -60.026  1.00  0.00     0.089 A 
HETATM   37  C   UNL     1     -44.987  54.403 -59.926  1.00  0.00     0.028 A 
HETATM   38  C   UNL     1     -44.835  55.230 -61.166  1.00  0.00     0.028 A 
ENDBRANCH   6  36
TORSDOF 7
ENDMDL
MODEL 2
REMARK VINA RESULT:      -9.0      2.866      4.892
REMARK  7 active torsions:
REMARK  status: ('A' for Active; 'I' for Inactive)
REMARK    1  A    between atoms: C_2  and  N_3 
REMARK    2  A    between atoms: C_2  and  C_25 
REMARK       I    between atoms: N_3  and  C_4 
REMARK    3  A    between atoms: C_4  and  C_5 
REMARK    4  A    between atoms: C_8  and  C_9 
REMARK       I    between atoms: C_9  and  N_10 
REMARK    5  A    between atoms: N_10  and  C_11 
REMARK    6  A    between atoms: N_19  and  C_20 
REMARK    7  A    between atoms: C_33  and  O_34 
ROOT
HETATM    1  C   UNL     1     -44.548  58.543 -53.376  1.00  0.00     0.098 A 
HETATM    2  C   UNL     1     -44.714  57.954 -54.740  1.00  0.00     0.206 A 
HETATM    3  O   UNL     1     -44.297  56.821 -54.993  1.00  0.00    -0.286 OA
HETATM    4  C   UNL     1     -45.410  58.759 -55.788  1.00  0.00     0.098 A 
HETATM    5  C   UNL     1     -45.753  60.016 -55.456  1.00  0.00     0.112 A 
HETATM    6  N   UNL     1     -45.501  60.581 -54.221  1.00  0.00    -0.360 N 
HETATM    7  C   UNL     1     -44.961  59.811 -53.211  1.00  0.00     0.112 A 
ENDROOT
BRANCH   1   8
HETATM    8  C   UNL     1     -43.971  57.817 -52.209  1.00  0.00     0.257 C 
HETATM    9  N   UNL     1     -42.617  57.630 -52.255  1.00  0.00    -0.348 N 
HETATM   10  H   UNL     1     -42.105  57.976 -53.067  1.00  0.00     0.163 HD
HETATM   11  O   UNL     1     -44.672  57.419 -51.284  1.00  0.00    -0.267 OA
BRANCH   9  12
HETATM   12  C   UNL     1     -41.862  56.921 -51.238  1.00  0.00     0.114 C 
HETATM   13  C   UNL     1     -40.738  57.788 -50.663  1.00  0.00     0.037 C 
BRANCH  12  14
HETATM   14  C   UNL     1     -41.340  55.622 -51.827  1.00  0.00    -0.035 A 
HETATM   15  C   UNL     1     -40.983  54.560 -50.981  1.00  0.00     0.021 A 
HETATM   16  C   UNL     1     -40.553  53.325 -51.499  1.00  0.00    -0.025 A 
HETATM   17  C   UNL     1     -40.483  53.146 -52.897  1.00  0.00    -0.023 A 
HETATM   18  C   UNL     1     -40.200  52.258 -50.659  1.00  0.00     0.015 A 
HETATM   19  C   UNL     1     -40.838  54.207 -53.742  1.00  0.00     0.013 A 
HETATM   20  C   UNL     1     -40.066  51.908 -53.412  1.00  0.00     0.049 A 
HETATM   21  C   UNL     1     -41.263  55.428 -53.215  1.00  0.00     0.010 A 
HETATM   22  C   UNL     1     -39.722  50.849 -52.567  1.00  0.00     0.069 A 
HETATM   23  C   UNL     1     -39.787  51.029 -51.188  1.00  0.00     0.037 A 
BRANCH  22  24
HETATM   24  O   UNL     1     -39.342  49.704 -53.213  1.00  0.00    -0.356 OA
HETATM   25  C   UNL     1     -39.525  49.669 -54.621  1.00  0.00     0.210 C 
ENDBRANCH  22  24
ENDBRANCH  12  14
ENDBRANCH   9  12
ENDBRANCH   1   8
BRANCH   4  26
HETATM   26  C   UNL     1     -45.765  58.253 -57.144  1.00  0.00     0.257 C 
HETATM   27  N   UNL     1     -44.772  57.549 -57.777  1.00  0.00    -0.352 N 
HETATM   28  H   UNL     1     -43.847  57.541 -57.350  1.00  0.00     0.163 HD
HETATM   29  O   UNL     1     -46.873  58.446 -57.634  1.00  0.00    -0.267 OA
BRANCH  27  30
HETATM   30  C   UNL     1     -44.901  57.030 -59.133  1.00  0.00     0.084 C 
HETATM   31  C   UNL     1     -44.436  58.066 -60.166  1.00  0.00     0.025 C 
HETATM   32  C   UNL     1     -42.920  58.261 -60.158  1.00  0.00     0.002 C 
HETATM   33  C   UNL     1     -42.181  56.937 -60.331  1.00  0.00     0.000 C 
HETATM   34  C   UNL     1     -42.610  55.909 -59.290  1.00  0.00     0.002 C 
HETATM   35  C   UNL     1     -44.126  55.713 -59.280  1.00  0.00     0.025 C 
ENDBRANCH  27  30
ENDBRANCH   4  26
BRANCH   6  36
HETATM   36  C   UNL     1     -46.064  61.901 -53.907  1.00  0.00     0.089 A 
HETATM   37  C   UNL     1     -45.305  63.178 -54.163  1.00  0.00     0.028 A 
HETATM   38  C   UNL     1     -46.503  62.844 -54.998  1.00  0.00     0.028 A 
ENDBRANCH   6  36
TORSDOF 7
ENDMDL
MODEL 3
REMARK VINA RESULT:      -8.9      2.914      5.078
REMARK  7 active torsions:
REMARK  status: ('A' for Active; 'I' for Inactive)
REMARK    1  A    between atoms: C_2  and  N_3 
REMARK    2  A    between atoms: C_2  and  C_25 
REMARK       I    between atoms: N_3  and  C_4 
REMARK    3  A    between atoms: C_4  and  C_5 
REMARK    4  A    between atoms: C_8  and  C_9 
REMARK       I    between atoms: C_9  and  N_10 
REMARK    5  A    between atoms: N_10  and  C_11 
REMARK    6  A    between atoms: N_19  and  C_20 
REMARK    7  A    between atoms: C_33  and  O_34 
ROOT
HETATM    1  C   UNL     1     -44.579  58.700 -53.279  1.00  0.00     0.098 A 
HETATM    2  C   UNL     1     -44.748  57.993 -54.586  1.00  0.00     0.206 A 
HETATM    3  O   UNL     1     -44.352  56.834 -54.733  1.00  0.00    -0.286 OA
HETATM    4  C   UNL     1     -45.422  58.714 -55.707  1.00  0.00     0.098 A 
HETATM    5  C   UNL     1     -45.741  60.002 -55.492  1.00  0.00     0.112 A 
HETATM    6  N   UNL     1     -45.486  60.671 -54.311  1.00  0.00    -0.360 N 
HETATM    7  C   UNL     1     -44.968  59.985 -53.231  1.00  0.00     0.112 A 
ENDROOT
BRANCH   1   8
HETATM    8  C   UNL     1     -44.024  58.071 -52.047  1.00  0.00     0.257 C 
HETATM    9  N   UNL     1     -42.659  58.003 -51.995  1.00  0.00    -0.348 N 
HETATM   10  H   UNL     1     -42.124  58.364 -52.785  1.00  0.00     0.163 HD
HETATM   11  O   UNL     1     -44.751  57.645 -51.154  1.00  0.00    -0.267 OA
BRANCH   9  12
HETATM   12  C   UNL     1     -41.918  57.403 -50.901  1.00  0.00     0.114 C 
HETATM   13  C   UNL     1     -40.719  58.263 -50.491  1.00  0.00     0.037 C 
BRANCH  12  14
HETATM   14  C   UNL     1     -41.505  55.996 -51.300  1.00  0.00    -0.035 A 
HETATM   15  C   UNL     1     -41.274  55.688 -52.651  1.00  0.00     0.021 A 
HETATM   16  C   UNL     1     -40.833  54.412 -53.045  1.00  0.00    -0.025 A 
HETATM   17  C   UNL     1     -40.614  53.421 -52.065  1.00  0.00    -0.023 A 
HETATM   18  C   UNL     1     -40.596  54.100 -54.392  1.00  0.00     0.015 A 
HETATM   19  C   UNL     1     -40.846  53.728 -50.716  1.00  0.00     0.013 A 
HETATM   20  C   UNL     1     -40.162  52.151 -52.459  1.00  0.00     0.049 A 
HETATM   21  C   UNL     1     -41.284  54.999 -50.339  1.00  0.00     0.010 A 
HETATM   22  C   UNL     1     -39.922  51.851 -53.803  1.00  0.00     0.069 A 
HETATM   23  C   UNL     1     -40.144  52.829 -54.770  1.00  0.00     0.037 A 
BRANCH  22  24
HETATM   24  O   UNL     1     -39.478  50.578 -54.034  1.00  0.00    -0.356 OA
HETATM   25  C   UNL     1     -39.623  49.645 -52.971  1.00  0.00     0.210 C 
ENDBRANCH  22  24
ENDBRANCH  12  14
ENDBRANCH   9  12
ENDBRANCH   1   8
BRANCH   4  26
HETATM   26  C   UNL     1     -45.778  58.095 -57.015  1.00  0.00     0.257 C 
HETATM   27  N   UNL     1     -44.726  57.538 -57.698  1.00  0.00    -0.352 N 
HETATM   28  H   UNL     1     -43.785  57.705 -57.342  1.00  0.00     0.163 HD
HETATM   29  O   UNL     1     -46.934  58.076 -57.426  1.00  0.00    -0.267 OA
BRANCH  27  30
HETATM   30  C   UNL     1     -44.857  56.945 -59.023  1.00  0.00     0.084 C 
HETATM   31  C   UNL     1     -44.526  57.966 -60.120  1.00  0.00     0.025 C 
HETATM   32  C   UNL     1     -43.035  58.294 -60.184  1.00  0.00     0.002 C 
HETATM   33  C   UNL     1     -42.187  57.033 -60.327  1.00  0.00     0.000 C 
HETATM   34  C   UNL     1     -42.482  56.024 -59.223  1.00  0.00     0.002 C 
HETATM   35  C   UNL     1     -43.973  55.695 -59.141  1.00  0.00     0.025 C 
ENDBRANCH  27  30
ENDBRANCH   4  26
BRANCH   6  36
HETATM   36  C   UNL     1     -46.025  62.024 -54.122  1.00  0.00     0.089 A 
HETATM   37  C   UNL     1     -45.365  63.241 -54.721  1.00  0.00     0.028 A 
HETATM   38  C   UNL     1     -46.684  62.770 -55.255  1.00  0.00     0.028 A 
ENDBRANCH   6  36
TORSDOF 7
ENDMDL
MODEL 4
REMARK VINA RESULT:      -8.2      3.785      5.058
REMARK  7 active torsions:
REMARK  status: ('A' for Active; 'I' for Inactive)
REMARK    1  A    between atoms: C_2  and  N_3 
REMARK    2  A    between atoms: C_2  and  C_25 
REMARK       I    between atoms: N_3  and  C_4 
REMARK    3  A    between atoms: C_4  and  C_5 
REMARK    4  A    between atoms: C_8  and  C_9 
REMARK       I    between atoms: C_9  and  N_10 
REMARK    5  A    between atoms: N_10  and  C_11 
REMARK    6  A    between atoms: N_19  and  C_20 
REMARK    7  A    between atoms: C_33  and  O_34 
ROOT
HETATM    1  C   UNL     1     -44.415  58.474 -54.074  1.00  0.00     0.098 A 
HETATM    2  C   UNL     1     -45.220  59.713 -54.304  1.00  0.00     0.206 A 
HETATM    3  O   UNL     1     -45.619  60.392 -53.355  1.00  0.00    -0.286 OA
HETATM    4  C   UNL     1     -45.517  60.123 -55.709  1.00  0.00     0.098 A 
HETATM    5  C   UNL     1     -45.122  59.282 -56.681  1.00  0.00     0.112 A 
HETATM    6  N   UNL     1     -44.468  58.089 -56.446  1.00  0.00    -0.360 N 
HETATM    7  C   UNL     1     -44.088  57.755 -55.161  1.00  0.00     0.112 A 
ENDROOT
BRANCH   1   8
HETATM    8  C   UNL     1     -43.955  58.004 -52.737  1.00  0.00     0.257 C 
HETATM    9  N   UNL     1     -42.619  58.168 -52.493  1.00  0.00    -0.348 N 
HETATM   10  H   UNL     1     -42.038  58.577 -53.225  1.00  0.00     0.163 HD
HETATM   11  O   UNL     1     -44.729  57.503 -51.925  1.00  0.00    -0.267 OA
BRANCH   9  12
HETATM   12  C   UNL     1     -41.962  57.750 -51.268  1.00  0.00     0.114 C 
HETATM   13  C   UNL     1     -40.820  58.697 -50.889  1.00  0.00     0.037 C 
BRANCH  12  14
HETATM   14  C   UNL     1     -41.489  56.316 -51.428  1.00  0.00    -0.035 A 
HETATM   15  C   UNL     1     -41.384  55.749 -52.708  1.00  0.00     0.021 A 
HETATM   16  C   UNL     1     -40.893  54.444 -52.893  1.00  0.00    -0.025 A 
HETATM   17  C   UNL     1     -40.493  53.688 -51.770  1.00  0.00    -0.023 A 
HETATM   18  C   UNL     1     -40.781  53.874 -54.171  1.00  0.00     0.015 A 
HETATM   19  C   UNL     1     -40.600  54.253 -50.491  1.00  0.00     0.013 A 
HETATM   20  C   UNL     1     -39.991  52.391 -51.957  1.00  0.00     0.049 A 
HETATM   21  C   UNL     1     -41.089  55.550 -50.322  1.00  0.00     0.010 A 
HETATM   22  C   UNL     1     -39.878  51.833 -53.234  1.00  0.00     0.069 A 
HETATM   23  C   UNL     1     -40.277  52.579 -54.341  1.00  0.00     0.037 A 
BRANCH  22  24
HETATM   24  O   UNL     1     -39.366  50.565 -53.261  1.00  0.00    -0.356 OA
HETATM   25  C   UNL     1     -39.627  49.790 -54.423  1.00  0.00     0.210 C 
ENDBRANCH  22  24
ENDBRANCH  12  14
ENDBRANCH   9  12
ENDBRANCH   1   8
BRANCH   4  26
HETATM   26  C   UNL     1     -46.187  61.398 -56.093  1.00  0.00     0.257 C 
HETATM   27  N   UNL     1     -47.515  61.477 -55.757  1.00  0.00    -0.352 N 
HETATM   28  H   UNL     1     -47.970  60.634 -55.408  1.00  0.00     0.163 HD
HETATM   29  O   UNL     1     -45.577  62.305 -56.649  1.00  0.00    -0.267 OA
BRANCH  27  30
HETATM   30  C   UNL     1     -48.361  62.612 -56.104  1.00  0.00     0.084 C 
HETATM   31  C   UNL     1     -49.438  62.207 -57.119  1.00  0.00     0.025 C 
HETATM   32  C   UNL     1     -50.520  61.320 -56.502  1.00  0.00     0.002 C 
HETATM   33  C   UNL     1     -51.139  61.965 -55.266  1.00  0.00     0.000 C 
HETATM   34  C   UNL     1     -50.081  62.343 -54.234  1.00  0.00     0.002 C 
HETATM   35  C   UNL     1     -48.987  63.221 -54.842  1.00  0.00     0.025 C 
ENDBRANCH  27  30
ENDBRANCH   4  26
BRANCH   6  36
HETATM   36  C   UNL     1     -43.934  57.326 -57.583  1.00  0.00     0.089 A 
HETATM   37  C   UNL     1     -42.529  57.523 -58.091  1.00  0.00     0.028 A 
HETATM   38  C   UNL     1     -42.896  56.252 -57.387  1.00  0.00     0.028 A 
ENDBRANCH   6  36
TORSDOF 7
ENDMDL
MODEL 5
REMARK VINA RESULT:      -8.0      2.484      4.967
REMARK  7 active torsions:
REMARK  status: ('A' for Active; 'I' for Inactive)
REMARK    1  A    between atoms: C_2  and  N_3 
REMARK    2  A    between atoms: C_2  and  C_25 
REMARK       I    between atoms: N_3  and  C_4 
REMARK    3  A    between atoms: C_4  and  C_5 
REMARK    4  A    between atoms: C_8  and  C_9 
REMARK       I    between atoms: C_9  and  N_10 
REMARK    5  A    between atoms: N_10  and  C_11 
REMARK    6  A    between atoms: N_19  and  C_20 
REMARK    7  A    between atoms: C_33  and  O_34 
ROOT
HETATM    1  C   UNL     1     -42.200  60.226 -54.267  1.00  0.00     0.098 A 
HETATM    2  C   UNL     1     -42.190  59.926 -55.732  1.00  0.00     0.206 A 
HETATM    3  O   UNL     1     -41.572  58.954 -56.172  1.00  0.00    -0.286 OA
HETATM    4  C   UNL     1     -42.959  60.818 -56.650  1.00  0.00     0.098 A 
HETATM    5  C   UNL     1     -43.530  61.904 -56.101  1.00  0.00     0.112 A 
HETATM    6  N   UNL     1     -43.444  62.222 -54.760  1.00  0.00    -0.360 N 
HETATM    7  C   UNL     1     -42.834  61.348 -53.884  1.00  0.00     0.112 A 
ENDROOT
BRANCH   1   8
HETATM    8  C   UNL     1     -41.569  59.367 -53.226  1.00  0.00     0.257 C 
HETATM    9  N   UNL     1     -42.430  58.546 -52.552  1.00  0.00    -0.348 N 
HETATM   10  H   UNL     1     -43.422  58.582 -52.788  1.00  0.00     0.163 HD
HETATM   11  O   UNL     1     -40.363  59.407 -52.997  1.00  0.00    -0.267 OA
BRANCH   9  12
HETATM   12  C   UNL     1     -42.027  57.653 -51.480  1.00  0.00     0.114 C 
HETATM   13  C   UNL     1     -40.975  58.298 -50.574  1.00  0.00     0.037 C 
BRANCH  12  14
HETATM   14  C   UNL     1     -41.540  56.347 -52.085  1.00  0.00    -0.035 A 
HETATM   15  C   UNL     1     -40.983  55.356 -51.261  1.00  0.00     0.021 A 
HETATM   16  C   UNL     1     -40.578  54.114 -51.783  1.00  0.00    -0.025 A 
HETATM   17  C   UNL     1     -40.738  53.855 -53.160  1.00  0.00    -0.023 A 
HETATM   18  C   UNL     1     -40.025  53.118 -50.963  1.00  0.00     0.015 A 
HETATM   19  C   UNL     1     -41.293  54.845 -53.984  1.00  0.00     0.013 A 
HETATM   20  C   UNL     1     -40.346  52.610 -53.677  1.00  0.00     0.049 A 
HETATM   21  C   UNL     1     -41.691  56.074 -53.453  1.00  0.00     0.010 A 
HETATM   22  C   UNL     1     -39.801  51.621 -52.852  1.00  0.00     0.069 A 
HETATM   23  C   UNL     1     -39.639  51.880 -51.493  1.00  0.00     0.037 A 
BRANCH  22  24
HETATM   24  O   UNL     1     -39.472  50.458 -53.494  1.00  0.00    -0.356 OA
HETATM   25  C   UNL     1     -40.331  50.041 -54.547  1.00  0.00     0.210 C 
ENDBRANCH  22  24
ENDBRANCH  12  14
ENDBRANCH   9  12
ENDBRANCH   1   8
BRANCH   4  26
HETATM   26  C   UNL     1     -43.149  60.566 -58.107  1.00  0.00     0.257 C 
HETATM   27  N   UNL     1     -43.566  59.298 -58.426  1.00  0.00    -0.352 N 
HETATM   28  H   UNL     1     -43.579  58.600 -57.683  1.00  0.00     0.163 HD
HETATM   29  O   UNL     1     -42.962  61.445 -58.943  1.00  0.00    -0.267 OA
BRANCH  27  30
HETATM   30  C   UNL     1     -43.744  58.837 -59.797  1.00  0.00     0.084 C 
HETATM   31  C   UNL     1     -42.424  58.315 -60.379  1.00  0.00     0.025 C 
HETATM   32  C   UNL     1     -41.999  56.982 -59.763  1.00  0.00     0.002 C 
HETATM   33  C   UNL     1     -43.103  55.934 -59.869  1.00  0.00     0.000 C 
HETATM   34  C   UNL     1     -44.412  56.429 -59.264  1.00  0.00     0.002 C 
HETATM   35  C   UNL     1     -44.843  57.767 -59.865  1.00  0.00     0.025 C 
ENDBRANCH  27  30
ENDBRANCH   4  26
BRANCH   6  36
HETATM   36  C   UNL     1     -44.242  63.339 -54.235  1.00  0.00     0.089 A 
HETATM   37  C   UNL     1     -43.607  64.552 -53.606  1.00  0.00     0.028 A 
HETATM   38  C   UNL     1     -44.281  64.672 -54.938  1.00  0.00     0.028 A 
ENDBRANCH   6  36
TORSDOF 7
ENDMDL
MODEL 6
REMARK VINA RESULT:      -8.0      2.599      3.810
REMARK  7 active torsions:
REMARK  status: ('A' for Active; 'I' for Inactive)
REMARK    1  A    between atoms: C_2  and  N_3 
REMARK    2  A    between atoms: C_2  and  C_25 
REMARK       I    between atoms: N_3  and  C_4 
REMARK    3  A    between atoms: C_4  and  C_5 
REMARK    4  A    between atoms: C_8  and  C_9 
REMARK       I    between atoms: C_9  and  N_10 
REMARK    5  A    between atoms: N_10  and  C_11 
REMARK    6  A    between atoms: N_19  and  C_20 
REMARK    7  A    between atoms: C_33  and  O_34 
ROOT
HETATM    1  C   UNL     1     -43.904  58.100 -56.078  1.00  0.00     0.098 A 
HETATM    2  C   UNL     1     -44.558  59.275 -56.730  1.00  0.00     0.206 A 
HETATM    3  O   UNL     1     -44.908  60.253 -56.065  1.00  0.00    -0.286 OA
HETATM    4  C   UNL     1     -44.764  59.250 -58.210  1.00  0.00     0.098 A 
HETATM    5  C   UNL     1     -44.436  58.112 -58.846  1.00  0.00     0.112 A 
HETATM    6  N   UNL     1     -43.926  56.996 -58.212  1.00  0.00    -0.360 N 
HETATM    7  C   UNL     1     -43.626  57.048 -56.866  1.00  0.00     0.112 A 
ENDROOT
BRANCH   1   8
HETATM    8  C   UNL     1     -43.540  58.032 -54.634  1.00  0.00     0.257 C 
HETATM    9  N   UNL     1     -42.197  58.002 -54.376  1.00  0.00    -0.348 N 
HETATM   10  H   UNL     1     -41.550  58.014 -55.164  1.00  0.00     0.163 HD
HETATM   11  O   UNL     1     -44.394  58.001 -53.752  1.00  0.00    -0.267 OA
BRANCH   9  12
HETATM   12  C   UNL     1     -41.631  57.905 -53.043  1.00  0.00     0.114 C 
HETATM   13  C   UNL     1     -40.410  58.816 -52.880  1.00  0.00     0.037 C 
BRANCH  12  14
HETATM   14  C   UNL     1     -41.304  56.450 -52.751  1.00  0.00    -0.035 A 
HETATM   15  C   UNL     1     -40.998  55.575 -53.805  1.00  0.00     0.021 A 
HETATM   16  C   UNL     1     -40.633  54.238 -53.563  1.00  0.00    -0.025 A 
HETATM   17  C   UNL     1     -40.569  53.766 -52.235  1.00  0.00    -0.023 A 
HETATM   18  C   UNL     1     -40.320  53.359 -54.612  1.00  0.00     0.015 A 
HETATM   19  C   UNL     1     -40.878  54.640 -51.182  1.00  0.00     0.013 A 
HETATM   20  C   UNL     1     -40.193  52.435 -51.994  1.00  0.00     0.049 A 
HETATM   21  C   UNL     1     -41.238  55.965 -51.436  1.00  0.00     0.010 A 
HETATM   22  C   UNL     1     -39.878  51.569 -53.044  1.00  0.00     0.069 A 
HETATM   23  C   UNL     1     -39.945  52.035 -54.355  1.00  0.00     0.037 A 
BRANCH  22  24
HETATM   24  O   UNL     1     -39.522  50.306 -52.656  1.00  0.00    -0.356 OA
HETATM   25  C   UNL     1     -39.536  50.035 -51.261  1.00  0.00     0.210 C 
ENDBRANCH  22  24
ENDBRANCH  12  14
ENDBRANCH   9  12
ENDBRANCH   1   8
BRANCH   4  26
HETATM   26  C   UNL     1     -45.277  60.397 -59.010  1.00  0.00     0.257 C 
HETATM   27  N   UNL     1     -46.597  60.706 -58.800  1.00  0.00    -0.352 N 
HETATM   28  H   UNL     1     -47.153  60.064 -58.236  1.00  0.00     0.163 HD
HETATM   29  O   UNL     1     -44.553  61.020 -59.781  1.00  0.00    -0.267 OA
BRANCH  27  30
HETATM   30  C   UNL     1     -47.300  61.750 -59.534  1.00  0.00     0.084 C 
HETATM   31  C   UNL     1     -47.788  61.234 -60.895  1.00  0.00     0.025 C 
HETATM   32  C   UNL     1     -48.950  60.250 -60.765  1.00  0.00     0.002 C 
HETATM   33  C   UNL     1     -50.100  60.839 -59.953  1.00  0.00     0.000 C 
HETATM   34  C   UNL     1     -49.634  61.325 -58.584  1.00  0.00     0.002 C 
HETATM   35  C   UNL     1     -48.465  62.303 -58.699  1.00  0.00     0.025 C 
ENDBRANCH  27  30
ENDBRANCH   4  26
BRANCH   6  36
HETATM   36  C   UNL     1     -43.446  55.868 -59.021  1.00  0.00     0.089 A 
HETATM   37  C   UNL     1     -44.293  54.648 -59.279  1.00  0.00     0.028 A 
HETATM   38  C   UNL     1     -43.998  55.600 -60.398  1.00  0.00     0.028 A 
ENDBRANCH   6  36
TORSDOF 7
ENDMDL
MODEL 7
REMARK VINA RESULT:      -8.0      3.442      4.392
REMARK  7 active torsions:
REMARK  status: ('A' for Active; 'I' for Inactive)
REMARK    1  A    between atoms: C_2  and  N_3 
REMARK    2  A    between atoms: C_2  and  C_25 
REMARK       I    between atoms: N_3  and  C_4 
REMARK    3  A    between atoms: C_4  and  C_5 
REMARK    4  A    between atoms: C_8  and  C_9 
REMARK       I    between atoms: C_9  and  N_10 
REMARK    5  A    between atoms: N_10  and  C_11 
REMARK    6  A    between atoms: N_19  and  C_20 
REMARK    7  A    between atoms: C_33  and  O_34 
ROOT
HETATM    1  C   UNL     1     -44.469  58.089 -55.989  1.00  0.00     0.098 A 
HETATM    2  C   UNL     1     -45.405  59.243 -56.159  1.00  0.00     0.206 A 
HETATM    3  O   UNL     1     -45.761  59.915 -55.189  1.00  0.00    -0.286 OA
HETATM    4  C   UNL     1     -45.887  59.576 -57.533  1.00  0.00     0.098 A 
HETATM    5  C   UNL     1     -45.523  58.740 -58.521  1.00  0.00     0.112 A 
HETATM    6  N   UNL     1     -44.739  57.619 -58.330  1.00  0.00    -0.360 N 
HETATM    7  C   UNL     1     -44.196  57.365 -57.087  1.00  0.00     0.112 A 
ENDROOT
BRANCH   1   8
HETATM    8  C   UNL     1     -43.827  57.708 -54.699  1.00  0.00     0.257 C 
HETATM    9  N   UNL     1     -42.473  57.896 -54.648  1.00  0.00    -0.348 N 
HETATM   10  H   UNL     1     -42.002  58.260 -55.475  1.00  0.00     0.163 HD
HETATM   11  O   UNL     1     -44.478  57.256 -53.761  1.00  0.00    -0.267 OA
BRANCH   9  12
HETATM   12  C   UNL     1     -41.652  57.561 -53.499  1.00  0.00     0.114 C 
HETATM   13  C   UNL     1     -40.495  58.549 -53.325  1.00  0.00     0.037 C 
BRANCH  12  14
HETATM   14  C   UNL     1     -41.167  56.128 -53.641  1.00  0.00    -0.035 A 
HETATM   15  C   UNL     1     -40.943  55.346 -52.497  1.00  0.00     0.021 A 
HETATM   16  C   UNL     1     -40.552  53.998 -52.598  1.00  0.00    -0.025 A 
HETATM   17  C   UNL     1     -40.385  53.418 -53.873  1.00  0.00    -0.023 A 
HETATM   18  C   UNL     1     -40.331  53.210 -51.458  1.00  0.00     0.015 A 
HETATM   19  C   UNL     1     -40.607  54.200 -55.016  1.00  0.00     0.013 A 
HETATM   20  C   UNL     1     -40.007  52.069 -53.971  1.00  0.00     0.049 A 
HETATM   21  C   UNL     1     -40.996  55.536 -54.902  1.00  0.00     0.010 A 
HETATM   22  C   UNL     1     -39.795  51.290 -52.831  1.00  0.00     0.069 A 
HETATM   23  C   UNL     1     -39.955  51.866 -51.573  1.00  0.00     0.037 A 
BRANCH  22  24
HETATM   24  O   UNL     1     -39.438  49.993 -53.083  1.00  0.00    -0.356 OA
HETATM   25  C   UNL     1     -39.456  49.096 -51.981  1.00  0.00     0.210 C 
ENDBRANCH  22  24
ENDBRANCH  12  14
ENDBRANCH   9  12
ENDBRANCH   1   8
BRANCH   4  26
HETATM   26  C   UNL     1     -46.710  60.772 -57.871  1.00  0.00     0.257 C 
HETATM   27  N   UNL     1     -47.813  60.960 -57.077  1.00  0.00    -0.352 N 
HETATM   28  H   UNL     1     -48.061  60.218 -56.424  1.00  0.00     0.163 HD
HETATM   29  O   UNL     1     -46.399  61.531 -58.784  1.00  0.00    -0.267 OA
BRANCH  27  30
HETATM   30  C   UNL     1     -48.777  62.032 -57.289  1.00  0.00     0.084 C 
HETATM   31  C   UNL     1     -50.080  61.489 -57.891  1.00  0.00     0.025 C 
HETATM   32  C   UNL     1     -50.893  60.671 -56.888  1.00  0.00     0.002 C 
HETATM   33  C   UNL     1     -51.160  61.455 -55.606  1.00  0.00     0.000 C 
HETATM   34  C   UNL     1     -49.869  61.972 -54.979  1.00  0.00     0.002 C 
HETATM   35  C   UNL     1     -49.042  62.784 -55.976  1.00  0.00     0.025 C 
ENDBRANCH  27  30
ENDBRANCH   4  26
BRANCH   6  36
HETATM   36  C   UNL     1     -44.263  56.869 -59.500  1.00  0.00     0.089 A 
HETATM   37  C   UNL     1     -42.849  56.992 -60.010  1.00  0.00     0.028 A 
HETATM   38  C   UNL     1     -43.296  55.722 -59.354  1.00  0.00     0.028 A 
ENDBRANCH   6  36
TORSDOF 7
ENDMDL
MODEL 8
REMARK VINA RESULT:      -7.7      4.373      8.035
REMARK  7 active torsions:
REMARK  status: ('A' for Active; 'I' for Inactive)
REMARK    1  A    between atoms: C_2  and  N_3 
REMARK    2  A    between atoms: C_2  and  C_25 
REMARK       I    between atoms: N_3  and  C_4 
REMARK    3  A    between atoms: C_4  and  C_5 
REMARK    4  A    between atoms: C_8  and  C_9 
REMARK       I    between atoms: C_9  and  N_10 
REMARK    5  A    between atoms: N_10  and  C_11 
REMARK    6  A    between atoms: N_19  and  C_20 
REMARK    7  A    between atoms: C_33  and  O_34 
ROOT
HETATM    1  C   UNL     1     -41.710  57.389 -54.206  1.00  0.00     0.098 A 
HETATM    2  C   UNL     1     -42.398  57.575 -55.521  1.00  0.00     0.206 A 
HETATM    3  O   UNL     1     -42.638  58.704 -55.954  1.00  0.00    -0.286 OA
HETATM    4  C   UNL     1     -42.774  56.363 -56.309  1.00  0.00     0.098 A 
HETATM    5  C   UNL     1     -42.558  55.171 -55.725  1.00  0.00     0.112 A 
HETATM    6  N   UNL     1     -42.013  55.019 -54.465  1.00  0.00    -0.360 N 
HETATM    7  C   UNL     1     -41.558  56.125 -53.776  1.00  0.00     0.112 A 
ENDROOT
BRANCH   1   8
HETATM    8  C   UNL     1     -41.184  58.502 -53.365  1.00  0.00     0.257 C 
HETATM    9  N   UNL     1     -41.956  58.826 -52.284  1.00  0.00    -0.348 N 
HETATM   10  H   UNL     1     -42.823  58.310 -52.133  1.00  0.00     0.163 HD
HETATM   11  O   UNL     1     -40.136  59.081 -53.639  1.00  0.00    -0.267 OA
BRANCH   9  12
HETATM   12  C   UNL     1     -41.642  59.897 -51.356  1.00  0.00     0.114 C 
HETATM   13  C   UNL     1     -41.177  59.354 -50.002  1.00  0.00     0.037 C 
BRANCH  12  14
HETATM   14  C   UNL     1     -42.853  60.805 -51.225  1.00  0.00    -0.035 A 
HETATM   15  C   UNL     1     -44.021  60.529 -51.955  1.00  0.00     0.021 A 
HETATM   16  C   UNL     1     -45.178  61.315 -51.809  1.00  0.00    -0.025 A 
HETATM   17  C   UNL     1     -45.169  62.401 -50.909  1.00  0.00    -0.023 A 
HETATM   18  C   UNL     1     -46.349  61.041 -52.533  1.00  0.00     0.015 A 
HETATM   19  C   UNL     1     -44.003  62.678 -50.181  1.00  0.00     0.013 A 
HETATM   20  C   UNL     1     -46.329  63.177 -50.756  1.00  0.00     0.049 A 
HETATM   21  C   UNL     1     -42.861  61.889 -50.335  1.00  0.00     0.010 A 
HETATM   22  C   UNL     1     -47.493  62.893 -51.476  1.00  0.00     0.069 A 
HETATM   23  C   UNL     1     -47.498  61.824 -52.368  1.00  0.00     0.037 A 
BRANCH  22  24
HETATM   24  O   UNL     1     -48.544  63.730 -51.217  1.00  0.00    -0.356 OA
HETATM   25  C   UNL     1     -48.859  63.962 -49.851  1.00  0.00     0.210 C 
ENDBRANCH  22  24
ENDBRANCH  12  14
ENDBRANCH   9  12
ENDBRANCH   1   8
BRANCH   4  26
HETATM   26  C   UNL     1     -43.339  56.395 -57.687  1.00  0.00     0.257 C 
HETATM   27  N   UNL     1     -44.471  57.157 -57.832  1.00  0.00    -0.352 N 
HETATM   28  H   UNL     1     -44.911  57.521 -56.987  1.00  0.00     0.163 HD
HETATM   29  O   UNL     1     -42.808  55.794 -58.616  1.00  0.00    -0.267 OA
BRANCH  27  30
HETATM   30  C   UNL     1     -45.210  57.261 -59.083  1.00  0.00     0.084 C 
HETATM   31  C   UNL     1     -46.720  57.358 -58.826  1.00  0.00     0.025 C 
HETATM   32  C   UNL     1     -47.127  58.705 -58.229  1.00  0.00     0.002 C 
HETATM   33  C   UNL     1     -46.635  59.871 -59.082  1.00  0.00     0.000 C 
HETATM   34  C   UNL     1     -45.129  59.805 -59.317  1.00  0.00     0.002 C 
HETATM   35  C   UNL     1     -44.708  58.458 -59.905  1.00  0.00     0.025 C 
ENDBRANCH  27  30
ENDBRANCH   4  26
BRANCH   6  36
HETATM   36  C   UNL     1     -41.666  53.673 -53.991  1.00  0.00     0.089 A 
HETATM   37  C   UNL     1     -40.422  52.956 -54.453  1.00  0.00     0.028 A 
HETATM   38  C   UNL     1     -40.517  53.450 -53.041  1.00  0.00     0.028 A 
ENDBRANCH   6  36
TORSDOF 7
ENDMDL
MODEL 9
REMARK VINA RESULT:      -7.6      4.616      6.654
REMARK  7 active torsions:
REMARK  status: ('A' for Active; 'I' for Inactive)
REMARK    1  A    between atoms: C_2  and  N_3 
REMARK    2  A    between atoms: C_2  and  C_25 
REMARK       I    between atoms: N_3  and  C_4 
REMARK    3  A    between atoms: C_4  and  C_5 
REMARK    4  A    between atoms: C_8  and  C_9 
REMARK       I    between atoms: C_9  and  N_10 
REMARK    5  A    between atoms: N_10  and  C_11 
REMARK    6  A    between atoms: N_19  and  C_20 
REMARK    7  A    between atoms: C_33  and  O_34 
ROOT
HETATM    1  C   UNL     1     -44.344  58.930 -54.162  1.00  0.00     0.098 A 
HETATM    2  C   UNL     1     -45.248  59.889 -54.868  1.00  0.00     0.206 A 
HETATM    3  O   UNL     1     -45.625  59.669 -56.021  1.00  0.00    -0.286 OA
HETATM    4  C   UNL     1     -45.701  61.113 -54.141  1.00  0.00     0.098 A 
HETATM    5  C   UNL     1     -45.173  61.322 -52.923  1.00  0.00     0.112 A 
HETATM    6  N   UNL     1     -44.259  60.477 -52.325  1.00  0.00    -0.360 N 
HETATM    7  C   UNL     1     -43.921  59.287 -52.938  1.00  0.00     0.112 A 
ENDROOT
BRANCH   1   8
HETATM    8  C   UNL     1     -43.900  57.622 -54.723  1.00  0.00     0.257 C 
HETATM    9  N   UNL     1     -42.638  57.616 -55.249  1.00  0.00    -0.348 N 
HETATM   10  H   UNL     1     -42.101  58.483 -55.237  1.00  0.00     0.163 HD
HETATM   11  O   UNL     1     -44.627  56.633 -54.710  1.00  0.00    -0.267 OA
BRANCH   9  12
HETATM   12  C   UNL     1     -42.026  56.456 -55.871  1.00  0.00     0.114 C 
HETATM   13  C   UNL     1     -42.975  55.783 -56.867  1.00  0.00     0.037 C 
BRANCH  12  14
HETATM   14  C   UNL     1     -41.563  55.501 -54.784  1.00  0.00    -0.035 A 
HETATM   15  C   UNL     1     -41.136  54.206 -55.122  1.00  0.00     0.021 A 
HETATM   16  C   UNL     1     -40.646  53.320 -54.145  1.00  0.00    -0.025 A 
HETATM   17  C   UNL     1     -40.577  53.739 -52.800  1.00  0.00    -0.023 A 
HETATM   18  C   UNL     1     -40.213  52.027 -54.477  1.00  0.00     0.015 A 
HETATM   19  C   UNL     1     -41.005  55.032 -52.463  1.00  0.00     0.013 A 
HETATM   20  C   UNL     1     -40.076  52.858 -51.829  1.00  0.00     0.049 A 
HETATM   21  C   UNL     1     -41.489  55.902 -53.442  1.00  0.00     0.010 A 
HETATM   22  C   UNL     1     -39.641  51.574 -52.170  1.00  0.00     0.069 A 
HETATM   23  C   UNL     1     -39.714  51.160 -53.497  1.00  0.00     0.037 A 
BRANCH  22  24
HETATM   24  O   UNL     1     -39.172  50.832 -51.120  1.00  0.00    -0.356 OA
HETATM   25  C   UNL     1     -39.885  49.644 -50.803  1.00  0.00     0.210 C 
ENDBRANCH  22  24
ENDBRANCH  12  14
ENDBRANCH   9  12
ENDBRANCH   1   8
BRANCH   4  26
HETATM   26  C   UNL     1     -46.703  62.083 -54.665  1.00  0.00     0.257 C 
HETATM   27  N   UNL     1     -47.825  62.233 -53.890  1.00  0.00    -0.352 N 
HETATM   28  H   UNL     1     -47.955  61.589 -53.110  1.00  0.00     0.163 HD
HETATM   29  O   UNL     1     -46.514  62.707 -55.705  1.00  0.00    -0.267 OA
BRANCH  27  30
HETATM   30  C   UNL     1     -48.948  63.083 -54.265  1.00  0.00     0.084 C 
HETATM   31  C   UNL     1     -50.232  62.260 -54.428  1.00  0.00     0.025 C 
HETATM   32  C   UNL     1     -50.783  61.762 -53.092  1.00  0.00     0.002 C 
HETATM   33  C   UNL     1     -50.982  62.907 -52.103  1.00  0.00     0.000 C 
HETATM   34  C   UNL     1     -49.703  63.713 -51.906  1.00  0.00     0.002 C 
HETATM   35  C   UNL     1     -49.136  64.208 -53.237  1.00  0.00     0.025 C 
ENDBRANCH  27  30
ENDBRANCH   4  26
BRANCH   6  36
HETATM   36  C   UNL     1     -43.874  60.710 -50.926  1.00  0.00     0.089 A 
HETATM   37  C   UNL     1     -42.457  60.530 -50.445  1.00  0.00     0.028 A 
HETATM   38  C   UNL     1     -43.045  61.905 -50.531  1.00  0.00     0.028 A 
ENDBRANCH   6  36
TORSDOF 7
ENDMDL
MODEL 10
REMARK VINA RESULT:      -7.6      4.856      8.765
REMARK  7 active torsions:
REMARK  status: ('A' for Active; 'I' for Inactive)
REMARK    1  A    between atoms: C_2  and  N_3 
REMARK    2  A    between atoms: C_2  and  C_25 
REMARK       I    between atoms: N_3  and  C_4 
REMARK    3  A    between atoms: C_4  and  C_5 
REMARK    4  A    between atoms: C_8  and  C_9 
REMARK       I    between atoms: C_9  and  N_10 
REMARK    5  A    between atoms: N_10  and  C_11 
REMARK    6  A    between atoms: N_19  and  C_20 
REMARK    7  A    between atoms: C_33  and  O_34 
ROOT
HETATM    1  C   UNL     1     -44.317  58.737 -55.906  1.00  0.00     0.098 A 
HETATM    2  C   UNL     1     -43.996  57.587 -55.005  1.00  0.00     0.206 A 
HETATM    3  O   UNL     1     -44.191  57.663 -53.790  1.00  0.00    -0.286 OA
HETATM    4  C   UNL     1     -43.449  56.335 -55.610  1.00  0.00     0.098 A 
HETATM    5  C   UNL     1     -43.182  56.367 -56.927  1.00  0.00     0.112 A 
HETATM    6  N   UNL     1     -43.390  57.473 -57.728  1.00  0.00    -0.360 N 
HETATM    7  C   UNL     1     -44.000  58.595 -57.204  1.00  0.00     0.112 A 
ENDROOT
BRANCH   1   8
HETATM    8  C   UNL     1     -44.964  60.002 -55.458  1.00  0.00     0.257 C 
HETATM    9  N   UNL     1     -44.491  60.509 -54.278  1.00  0.00    -0.348 N 
HETATM   10  H   UNL     1     -43.758  59.997 -53.788  1.00  0.00     0.163 HD
HETATM   11  O   UNL     1     -45.858  60.537 -56.107  1.00  0.00    -0.267 OA
BRANCH   9  12
HETATM   12  C   UNL     1     -45.004  61.713 -53.651  1.00  0.00     0.114 C 
HETATM   13  C   UNL     1     -44.184  62.946 -54.040  1.00  0.00     0.037 C 
BRANCH  12  14
HETATM   14  C   UNL     1     -45.047  61.503 -52.147  1.00  0.00    -0.035 A 
HETATM   15  C   UNL     1     -44.802  62.581 -51.280  1.00  0.00     0.021 A 
HETATM   16  C   UNL     1     -44.893  62.432 -49.884  1.00  0.00    -0.025 A 
HETATM   17  C   UNL     1     -45.241  61.178 -49.342  1.00  0.00    -0.023 A 
HETATM   18  C   UNL     1     -44.654  63.507 -49.014  1.00  0.00     0.015 A 
HETATM   19  C   UNL     1     -45.484  60.101 -50.207  1.00  0.00     0.013 A 
HETATM   20  C   UNL     1     -45.344  61.034 -47.949  1.00  0.00     0.049 A 
HETATM   21  C   UNL     1     -45.391  60.262 -51.591  1.00  0.00     0.010 A 
HETATM   22  C   UNL     1     -45.110  62.111 -47.089  1.00  0.00     0.069 A 
HETATM   23  C   UNL     1     -44.761  63.348 -47.626  1.00  0.00     0.037 A 
BRANCH  22  24
HETATM   24  O   UNL     1     -45.254  61.823 -45.759  1.00  0.00    -0.356 OA
HETATM   25  C   UNL     1     -45.103  62.903 -44.848  1.00  0.00     0.210 C 
ENDBRANCH  22  24
ENDBRANCH  12  14
ENDBRANCH   9  12
ENDBRANCH   1   8
BRANCH   4  26
HETATM   26  C   UNL     1     -43.210  55.070 -54.860  1.00  0.00     0.257 C 
HETATM   27  N   UNL     1     -42.722  55.233 -53.588  1.00  0.00    -0.352 N 
HETATM   28  H   UNL     1     -42.434  56.170 -53.305  1.00  0.00     0.163 HD
HETATM   29  O   UNL     1     -43.456  53.973 -55.352  1.00  0.00    -0.267 OA
BRANCH  27  30
HETATM   30  C   UNL     1     -42.362  54.119 -52.720  1.00  0.00     0.084 C 
HETATM   31  C   UNL     1     -40.979  54.335 -52.091  1.00  0.00     0.025 C 
HETATM   32  C   UNL     1     -40.984  55.435 -51.029  1.00  0.00     0.002 C 
HETATM   33  C   UNL     1     -42.044  55.182 -49.962  1.00  0.00     0.000 C 
HETATM   34  C   UNL     1     -43.430  54.999 -50.572  1.00  0.00     0.002 C 
HETATM   35  C   UNL     1     -43.436  53.909 -51.643  1.00  0.00     0.025 C 
ENDBRANCH  27  30
ENDBRANCH   4  26
BRANCH   6  36
HETATM   36  C   UNL     1     -43.223  57.348 -59.182  1.00  0.00     0.089 A 
HETATM   37  C   UNL     1     -41.883  57.516 -59.852  1.00  0.00     0.028 A 
HETATM   38  C   UNL     1     -42.521  56.161 -59.790  1.00  0.00     0.028 A 
ENDBRANCH   6  36
TORSDOF 7
ENDMDL
