MODEL 1
REMARK VINA RESULT:      -7.4      0.000      0.000
REMARK  12 active torsions:
REMARK  status: ('A' for Active; 'I' for Inactive)
REMARK    1  A    between atoms: C_2  and  N_3 
REMARK    2  A    between atoms: N_3  and  C_5 
REMARK    3  A    between atoms: N_3  and  C_33 
REMARK    4  A    between atoms: C_5  and  C_6 
REMARK    5  A    between atoms: N_7  and  C_8 
REMARK    6  A    between atoms: C_12  and  N_13 
REMARK    7  A    between atoms: C_16  and  C_17 
REMARK       I    between atoms: C_17  and  N_18 
REMARK    8  A    between atoms: N_18  and  N_19 
REMARK    9  A    between atoms: C_20  and  C_21 
REMARK   10  A    between atoms: C_25  and  O_26 
REMARK   11  A    between atoms: C_27  and  O_28 
REMARK   12  A    between atoms: O_28  and  C_29 
ROOT
HETATM    1  C   UNL     1     -43.180  58.042 -58.457  1.00  0.00     0.096 A 
HETATM    2  N   UNL     1     -43.189  59.400 -58.764  1.00  0.00    -0.215 N 
HETATM    3  N   UNL     1     -43.217  60.109 -57.604  1.00  0.00     0.012 NA
HETATM    4  N   UNL     1     -43.128  59.276 -56.580  1.00  0.00    -0.152 NA
HETATM    5  C   UNL     1     -43.095  58.004 -57.071  1.00  0.00     0.170 A 
ENDROOT
BRANCH   5   6
HETATM    6  C   UNL     1     -42.981  56.813 -56.239  1.00  0.00     0.293 C 
HETATM    7  N   UNL     1     -41.834  56.074 -56.460  1.00  0.00    -0.242 N 
HETATM    8  H   UNL     1     -41.151  56.373 -57.151  1.00  0.00     0.192 HD
HETATM    9  O   UNL     1     -43.876  56.532 -55.446  1.00  0.00    -0.264 OA
BRANCH   7  10
HETATM   10  N   UNL     1     -41.612  54.962 -55.709  1.00  0.00    -0.184 NA
HETATM   11  C   UNL     1     -40.772  55.081 -54.731  1.00  0.00     0.150 C 
BRANCH  11  12
HETATM   12  C   UNL     1     -40.479  53.938 -53.841  1.00  0.00    -0.013 A 
HETATM   13  C   UNL     1     -40.205  52.678 -54.382  1.00  0.00     0.035 A 
HETATM   14  C   UNL     1     -39.945  51.610 -53.530  1.00  0.00     0.047 A 
HETATM   15 BR   UNL     1     -39.585  49.907 -54.282  1.00  0.00    -0.048 Br
HETATM   16  C   UNL     1     -39.952  51.799 -52.146  1.00  0.00     0.116 A 
HETATM   17  C   UNL     1     -40.220  53.063 -51.597  1.00  0.00     0.104 A 
HETATM   18  C   UNL     1     -40.488  54.135 -52.454  1.00  0.00     0.052 A 
BRANCH  16  19
HETATM   19  O   UNL     1     -39.698  50.754 -51.292  1.00  0.00    -0.357 OA
HETATM   20  H   UNL     1     -38.733  50.644 -51.223  1.00  0.00     0.218 HD
ENDBRANCH  16  19
BRANCH  17  21
HETATM   21  O   UNL     1     -40.201  53.137 -50.230  1.00  0.00    -0.349 OA
BRANCH  21  22
HETATM   22  C   UNL     1     -39.851  54.376 -49.623  1.00  0.00     0.171 C 
HETATM   23  C   UNL     1     -41.054  54.868 -48.839  1.00  0.00     0.034 C 
ENDBRANCH  21  22
ENDBRANCH  17  21
ENDBRANCH  11  12
ENDBRANCH   7  10
ENDBRANCH   5   6
BRANCH   1  24
HETATM   24  C   UNL     1     -43.340  56.932 -59.429  1.00  0.00     0.296 C 
BRANCH  24  25
HETATM   25  N   UNL     1     -44.697  56.820 -60.103  1.00  0.00    -0.066 N 
HETATM   26  H   UNL     1     -44.718  57.543 -60.837  1.00  0.00     0.280 HD
BRANCH  25  27
HETATM   27  C   UNL     1     -45.820  57.135 -59.122  1.00  0.00     0.231 C 
HETATM   28  C   UNL     1     -46.989  57.812 -59.816  1.00  0.00     0.034 C 
ENDBRANCH  25  27
BRANCH  25  29
HETATM   29  C   UNL     1     -44.909  55.464 -60.761  1.00  0.00     0.231 C 
HETATM   30  C   UNL     1     -44.581  54.334 -59.798  1.00  0.00     0.034 C 
ENDBRANCH  25  29
ENDBRANCH  24  25
ENDBRANCH   1  24
BRANCH   2  31
HETATM   31  C   UNL     1     -43.119  60.017 -60.035  1.00  0.00     0.225 A 
HETATM   32  N   UNL     1     -43.990  59.675 -60.989  1.00  0.00    -0.081 NA
HETATM   33  O   UNL     1     -43.604  60.459 -62.082  1.00  0.00    -0.103 OA
HETATM   34  N   UNL     1     -42.497  61.235 -61.776  1.00  0.00    -0.083 NA
HETATM   35  C   UNL     1     -42.193  60.961 -60.509  1.00  0.00     0.201 A 
BRANCH  35  36
HETATM   36  N   UNL     1     -41.176  61.516 -59.831  1.00  0.00    -0.379 N 
HETATM   37  H   UNL     1     -41.297  62.412 -59.367  1.00  0.00     0.158 HD
HETATM   38  H   UNL     1     -40.215  61.186 -59.875  1.00  0.00     0.158 HD
ENDBRANCH  35  36
ENDBRANCH   2  31
TORSDOF 12
ENDMDL
MODEL 2
REMARK VINA RESULT:      -7.2      5.676     10.037
REMARK  12 active torsions:
REMARK  status: ('A' for Active; 'I' for Inactive)
REMARK    1  A    between atoms: C_2  and  N_3 
REMARK    2  A    between atoms: N_3  and  C_5 
REMARK    3  A    between atoms: N_3  and  C_33 
REMARK    4  A    between atoms: C_5  and  C_6 
REMARK    5  A    between atoms: N_7  and  C_8 
REMARK    6  A    between atoms: C_12  and  N_13 
REMARK    7  A    between atoms: C_16  and  C_17 
REMARK       I    between atoms: C_17  and  N_18 
REMARK    8  A    between atoms: N_18  and  N_19 
REMARK    9  A    between atoms: C_20  and  C_21 
REMARK   10  A    between atoms: C_25  and  O_26 
REMARK   11  A    between atoms: C_27  and  O_28 
REMARK   12  A    between atoms: O_28  and  C_29 
ROOT
HETATM    1  C   UNL     1     -41.026  53.669 -52.951  1.00  0.00     0.096 A 
HETATM    2  N   UNL     1     -40.331  52.619 -53.546  1.00  0.00    -0.215 N 
HETATM    3  N   UNL     1     -40.019  52.972 -54.822  1.00  0.00     0.012 NA
HETATM    4  N   UNL     1     -40.391  54.223 -55.034  1.00  0.00    -0.152 NA
HETATM    5  C   UNL     1     -41.002  54.680 -53.903  1.00  0.00     0.170 A 
ENDROOT
BRANCH   5   6
HETATM    6  C   UNL     1     -41.532  56.029 -53.752  1.00  0.00     0.293 C 
HETATM    7  N   UNL     1     -42.912  56.095 -53.700  1.00  0.00    -0.242 N 
HETATM    8  H   UNL     1     -43.472  55.248 -53.763  1.00  0.00     0.192 HD
HETATM    9  O   UNL     1     -40.765  56.987 -53.706  1.00  0.00    -0.264 OA
BRANCH   7  10
HETATM   10  N   UNL     1     -43.508  57.304 -53.523  1.00  0.00    -0.184 NA
HETATM   11  C   UNL     1     -44.210  57.453 -52.445  1.00  0.00     0.150 C 
BRANCH  11  12
HETATM   12  C   UNL     1     -44.879  58.736 -52.148  1.00  0.00    -0.013 A 
HETATM   13  C   UNL     1     -45.250  59.593 -53.188  1.00  0.00     0.035 A 
HETATM   14  C   UNL     1     -45.866  60.804 -52.891  1.00  0.00     0.047 A 
HETATM   15 BR   UNL     1     -46.354  61.957 -54.314  1.00  0.00    -0.048 Br
HETATM   16  C   UNL     1     -46.116  61.156 -51.561  1.00  0.00     0.116 A 
HETATM   17  C   UNL     1     -45.752  60.296 -50.513  1.00  0.00     0.104 A 
HETATM   18  C   UNL     1     -45.126  59.082 -50.813  1.00  0.00     0.052 A 
BRANCH  16  19
HETATM   19  O   UNL     1     -46.722  62.347 -51.252  1.00  0.00    -0.357 OA
HETATM   20  H   UNL     1     -46.707  62.456 -50.284  1.00  0.00     0.218 HD
ENDBRANCH  16  19
BRANCH  17  21
HETATM   21  O   UNL     1     -46.043  60.738 -49.250  1.00  0.00    -0.349 OA
BRANCH  21  22
HETATM   22  C   UNL     1     -44.964  61.081 -48.386  1.00  0.00     0.171 C 
HETATM   23  C   UNL     1     -45.010  62.581 -48.156  1.00  0.00     0.034 C 
ENDBRANCH  21  22
ENDBRANCH  17  21
ENDBRANCH  11  12
ENDBRANCH   7  10
ENDBRANCH   5   6
BRANCH   1  24
HETATM   24  C   UNL     1     -41.709  53.620 -51.634  1.00  0.00     0.296 C 
BRANCH  24  25
HETATM   25  N   UNL     1     -40.994  54.308 -50.482  1.00  0.00    -0.066 N 
HETATM   26  H   UNL     1     -40.112  54.675 -50.866  1.00  0.00     0.280 HD
BRANCH  25  27
HETATM   27  C   UNL     1     -40.634  53.308 -49.390  1.00  0.00     0.231 C 
HETATM   28  C   UNL     1     -40.317  54.007 -48.080  1.00  0.00     0.034 C 
ENDBRANCH  25  27
BRANCH  25  29
HETATM   29  C   UNL     1     -41.793  55.473 -49.915  1.00  0.00     0.231 C 
HETATM   30  C   UNL     1     -41.170  56.803 -50.306  1.00  0.00     0.034 C 
ENDBRANCH  25  29
ENDBRANCH  24  25
ENDBRANCH   1  24
BRANCH   2  31
HETATM   31  C   UNL     1     -39.927  51.391 -52.972  1.00  0.00     0.225 A 
HETATM   32  N   UNL     1     -39.439  51.367 -51.728  1.00  0.00    -0.081 NA
HETATM   33  O   UNL     1     -39.137  50.016 -51.521  1.00  0.00    -0.103 OA
HETATM   34  N   UNL     1     -39.421  49.260 -52.648  1.00  0.00    -0.083 NA
HETATM   35  C   UNL     1     -39.909  50.110 -53.549  1.00  0.00     0.201 A 
BRANCH  35  36
HETATM   36  N   UNL     1     -40.310  49.767 -54.783  1.00  0.00    -0.379 N 
HETATM   37  H   UNL     1     -39.651  49.775 -55.557  1.00  0.00     0.158 HD
HETATM   38  H   UNL     1     -41.283  49.650 -55.054  1.00  0.00     0.158 HD
ENDBRANCH  35  36
ENDBRANCH   2  31
TORSDOF 12
ENDMDL
MODEL 3
REMARK VINA RESULT:      -7.1      1.606      2.436
REMARK  12 active torsions:
REMARK  status: ('A' for Active; 'I' for Inactive)
REMARK    1  A    between atoms: C_2  and  N_3 
REMARK    2  A    between atoms: N_3  and  C_5 
REMARK    3  A    between atoms: N_3  and  C_33 
REMARK    4  A    between atoms: C_5  and  C_6 
REMARK    5  A    between atoms: N_7  and  C_8 
REMARK    6  A    between atoms: C_12  and  N_13 
REMARK    7  A    between atoms: C_16  and  C_17 
REMARK       I    between atoms: C_17  and  N_18 
REMARK    8  A    between atoms: N_18  and  N_19 
REMARK    9  A    between atoms: C_20  and  C_21 
REMARK   10  A    between atoms: C_25  and  O_26 
REMARK   11  A    between atoms: C_27  and  O_28 
REMARK   12  A    between atoms: O_28  and  C_29 
ROOT
HETATM    1  C   UNL     1     -43.351  57.779 -58.701  1.00  0.00     0.096 A 
HETATM    2  N   UNL     1     -43.297  58.099 -60.055  1.00  0.00    -0.215 N 
HETATM    3  N   UNL     1     -42.717  57.066 -60.723  1.00  0.00     0.012 NA
HETATM    4  N   UNL     1     -42.493  56.071 -59.880  1.00  0.00    -0.152 NA
HETATM    5  C   UNL     1     -42.878  56.475 -58.636  1.00  0.00     0.170 A 
ENDROOT
BRANCH   5   6
HETATM    6  C   UNL     1     -42.798  55.638 -57.447  1.00  0.00     0.293 C 
HETATM    7  N   UNL     1     -41.825  56.025 -56.544  1.00  0.00    -0.242 N 
HETATM    8  H   UNL     1     -41.238  56.833 -56.732  1.00  0.00     0.192 HD
HETATM    9  O   UNL     1     -43.544  54.669 -57.327  1.00  0.00    -0.264 OA
BRANCH   7  10
HETATM   10  N   UNL     1     -41.691  55.331 -55.382  1.00  0.00    -0.184 NA
HETATM   11  C   UNL     1     -40.787  54.405 -55.360  1.00  0.00     0.150 C 
BRANCH  11  12
HETATM   12  C   UNL     1     -40.546  53.610 -54.137  1.00  0.00    -0.013 A 
HETATM   13  C   UNL     1     -40.200  52.259 -54.235  1.00  0.00     0.035 A 
HETATM   14  C   UNL     1     -39.991  51.521 -53.074  1.00  0.00     0.047 A 
HETATM   15 BR   UNL     1     -39.531  49.688 -53.226  1.00  0.00    -0.048 Br
HETATM   16  C   UNL     1     -40.121  52.130 -51.823  1.00  0.00     0.116 A 
HETATM   17  C   UNL     1     -40.461  53.487 -51.720  1.00  0.00     0.104 A 
HETATM   18  C   UNL     1     -40.679  54.227 -52.887  1.00  0.00     0.052 A 
BRANCH  16  19
HETATM   19  O   UNL     1     -39.918  51.415 -50.669  1.00  0.00    -0.357 OA
HETATM   20  H   UNL     1     -40.778  51.295 -50.229  1.00  0.00     0.218 HD
ENDBRANCH  16  19
BRANCH  17  21
HETATM   21  O   UNL     1     -40.562  53.983 -50.447  1.00  0.00    -0.349 OA
BRANCH  21  22
HETATM   22  C   UNL     1     -41.739  54.699 -50.089  1.00  0.00     0.171 C 
HETATM   23  C   UNL     1     -41.357  56.155 -49.889  1.00  0.00     0.034 C 
ENDBRANCH  21  22
ENDBRANCH  17  21
ENDBRANCH  11  12
ENDBRANCH   7  10
ENDBRANCH   5   6
BRANCH   1  24
HETATM   24  C   UNL     1     -43.736  58.706 -57.606  1.00  0.00     0.296 C 
BRANCH  24  25
HETATM   25  N   UNL     1     -44.838  58.226 -56.677  1.00  0.00    -0.066 N 
HETATM   26  H   UNL     1     -44.999  57.234 -56.905  1.00  0.00     0.280 HD
BRANCH  25  27
HETATM   27  C   UNL     1     -46.140  58.970 -56.947  1.00  0.00     0.231 C 
HETATM   28  C   UNL     1     -47.121  58.110 -57.724  1.00  0.00     0.034 C 
ENDBRANCH  25  27
BRANCH  25  29
HETATM   29  C   UNL     1     -44.446  58.324 -55.210  1.00  0.00     0.231 C 
HETATM   30  C   UNL     1     -44.797  57.046 -54.465  1.00  0.00     0.034 C 
ENDBRANCH  25  29
ENDBRANCH  24  25
ENDBRANCH   1  24
BRANCH   2  31
HETATM   31  C   UNL     1     -43.792  59.251 -60.710  1.00  0.00     0.225 A 
HETATM   32  N   UNL     1     -45.097  59.535 -60.660  1.00  0.00    -0.081 NA
HETATM   33  O   UNL     1     -45.207  60.704 -61.422  1.00  0.00    -0.103 OA
HETATM   34  N   UNL     1     -43.978  61.085 -61.936  1.00  0.00    -0.083 NA
HETATM   35  C   UNL     1     -43.100  60.184 -61.499  1.00  0.00     0.201 A 
BRANCH  35  36
HETATM   36  N   UNL     1     -41.787  60.201 -61.777  1.00  0.00    -0.379 N 
HETATM   37  H   UNL     1     -41.297  61.086 -61.884  1.00  0.00     0.158 HD
HETATM   38  H   UNL     1     -41.253  59.383 -62.058  1.00  0.00     0.158 HD
ENDBRANCH  35  36
ENDBRANCH   2  31
TORSDOF 12
ENDMDL
MODEL 4
REMARK VINA RESULT:      -7.0      2.562      4.364
REMARK  12 active torsions:
REMARK  status: ('A' for Active; 'I' for Inactive)
REMARK    1  A    between atoms: C_2  and  N_3 
REMARK    2  A    between atoms: N_3  and  C_5 
REMARK    3  A    between atoms: N_3  and  C_33 
REMARK    4  A    between atoms: C_5  and  C_6 
REMARK    5  A    between atoms: N_7  and  C_8 
REMARK    6  A    between atoms: C_12  and  N_13 
REMARK    7  A    between atoms: C_16  and  C_17 
REMARK       I    between atoms: C_17  and  N_18 
REMARK    8  A    between atoms: N_18  and  N_19 
REMARK    9  A    between atoms: C_20  and  C_21 
REMARK   10  A    between atoms: C_25  and  O_26 
REMARK   11  A    between atoms: C_27  and  O_28 
REMARK   12  A    between atoms: O_28  and  C_29 
ROOT
HETATM    1  C   UNL     1     -45.154  57.070 -59.180  1.00  0.00     0.096 A 
HETATM    2  N   UNL     1     -45.627  56.718 -60.442  1.00  0.00    -0.215 N 
HETATM    3  N   UNL     1     -44.690  55.951 -61.059  1.00  0.00     0.012 NA
HETATM    4  N   UNL     1     -43.694  55.717 -60.221  1.00  0.00    -0.152 NA
HETATM    5  C   UNL     1     -43.954  56.382 -59.059  1.00  0.00     0.170 A 
ENDROOT
BRANCH   5   6
HETATM    6  C   UNL     1     -43.087  56.348 -57.889  1.00  0.00     0.293 C 
HETATM    7  N   UNL     1     -43.204  55.200 -57.127  1.00  0.00    -0.242 N 
HETATM    8  H   UNL     1     -43.852  54.464 -57.399  1.00  0.00     0.192 HD
HETATM    9  O   UNL     1     -42.353  57.302 -57.641  1.00  0.00    -0.264 OA
BRANCH   7  10
HETATM   10  N   UNL     1     -42.411  55.051 -56.033  1.00  0.00    -0.184 NA
HETATM   11  C   UNL     1     -42.841  54.250 -55.110  1.00  0.00     0.150 C 
BRANCH  11  12
HETATM   12  C   UNL     1     -42.043  54.001 -53.891  1.00  0.00    -0.013 A 
HETATM   13  C   UNL     1     -42.246  54.779 -52.747  1.00  0.00     0.035 A 
HETATM   14  C   UNL     1     -41.477  54.542 -51.613  1.00  0.00     0.047 A 
HETATM   15 BR   UNL     1     -41.760  55.613 -50.075  1.00  0.00    -0.048 Br
HETATM   16  C   UNL     1     -40.514  53.529 -51.618  1.00  0.00     0.116 A 
HETATM   17  C   UNL     1     -40.310  52.741 -52.762  1.00  0.00     0.104 A 
HETATM   18  C   UNL     1     -41.079  52.985 -53.904  1.00  0.00     0.052 A 
BRANCH  16  19
HETATM   19  O   UNL     1     -39.747  53.283 -50.507  1.00  0.00    -0.357 OA
HETATM   20  H   UNL     1     -39.896  52.361 -50.231  1.00  0.00     0.218 HD
ENDBRANCH  16  19
BRANCH  17  21
HETATM   21  O   UNL     1     -39.343  51.777 -52.659  1.00  0.00    -0.349 OA
BRANCH  21  22
HETATM   22  C   UNL     1     -39.372  50.687 -53.574  1.00  0.00     0.171 C 
HETATM   23  C   UNL     1     -39.648  49.421 -52.784  1.00  0.00     0.034 C 
ENDBRANCH  21  22
ENDBRANCH  17  21
ENDBRANCH  11  12
ENDBRANCH   7  10
ENDBRANCH   5   6
BRANCH   1  24
HETATM   24  C   UNL     1     -45.784  58.051 -58.261  1.00  0.00     0.296 C 
BRANCH  24  25
HETATM   25  N   UNL     1     -44.863  59.107 -57.673  1.00  0.00    -0.066 N 
HETATM   26  H   UNL     1     -43.906  58.733 -57.751  1.00  0.00     0.280 HD
BRANCH  25  27
HETATM   27  C   UNL     1     -45.150  59.317 -56.191  1.00  0.00     0.231 C 
HETATM   28  C   UNL     1     -45.347  57.995 -55.472  1.00  0.00     0.034 C 
ENDBRANCH  25  27
BRANCH  25  29
HETATM   29  C   UNL     1     -44.927  60.423 -58.435  1.00  0.00     0.231 C 
HETATM   30  C   UNL     1     -43.756  60.555 -59.395  1.00  0.00     0.034 C 
ENDBRANCH  25  29
ENDBRANCH  24  25
ENDBRANCH   1  24
BRANCH   2  31
HETATM   31  C   UNL     1     -46.879  57.016 -61.029  1.00  0.00     0.225 A 
HETATM   32  N   UNL     1     -47.757  56.034 -61.256  1.00  0.00    -0.081 NA
HETATM   33  O   UNL     1     -48.840  56.693 -61.850  1.00  0.00    -0.103 OA
HETATM   34  N   UNL     1     -48.584  58.048 -61.994  1.00  0.00    -0.083 NA
HETATM   35  C   UNL     1     -47.369  58.250 -61.488  1.00  0.00     0.201 A 
BRANCH  35  36
HETATM   36  N   UNL     1     -46.753  59.441 -61.435  1.00  0.00    -0.379 N 
HETATM   37  H   UNL     1     -47.272  60.276 -61.176  1.00  0.00     0.158 HD
HETATM   38  H   UNL     1     -45.819  59.616 -61.797  1.00  0.00     0.158 HD
ENDBRANCH  35  36
ENDBRANCH   2  31
TORSDOF 12
ENDMDL
MODEL 5
REMARK VINA RESULT:      -7.0      2.264      3.629
REMARK  12 active torsions:
REMARK  status: ('A' for Active; 'I' for Inactive)
REMARK    1  A    between atoms: C_2  and  N_3 
REMARK    2  A    between atoms: N_3  and  C_5 
REMARK    3  A    between atoms: N_3  and  C_33 
REMARK    4  A    between atoms: C_5  and  C_6 
REMARK    5  A    between atoms: N_7  and  C_8 
REMARK    6  A    between atoms: C_12  and  N_13 
REMARK    7  A    between atoms: C_16  and  C_17 
REMARK       I    between atoms: C_17  and  N_18 
REMARK    8  A    between atoms: N_18  and  N_19 
REMARK    9  A    between atoms: C_20  and  C_21 
REMARK   10  A    between atoms: C_25  and  O_26 
REMARK   11  A    between atoms: C_27  and  O_28 
REMARK   12  A    between atoms: O_28  and  C_29 
ROOT
HETATM    1  C   UNL     1     -42.831  59.246 -56.534  1.00  0.00     0.096 A 
HETATM    2  N   UNL     1     -43.221  60.012 -57.630  1.00  0.00    -0.215 N 
HETATM    3  N   UNL     1     -43.655  59.177 -58.611  1.00  0.00     0.012 NA
HETATM    4  N   UNL     1     -43.655  57.933 -58.160  1.00  0.00    -0.152 NA
HETATM    5  C   UNL     1     -43.164  57.945 -56.888  1.00  0.00     0.170 A 
ENDROOT
BRANCH   5   6
HETATM    6  C   UNL     1     -43.029  56.757 -56.055  1.00  0.00     0.293 C 
HETATM    7  N   UNL     1     -41.921  55.983 -56.345  1.00  0.00    -0.242 N 
HETATM    8  H   UNL     1     -41.278  56.258 -57.083  1.00  0.00     0.192 HD
HETATM    9  O   UNL     1     -43.877  56.507 -55.202  1.00  0.00    -0.264 OA
BRANCH   7  10
HETATM   10  N   UNL     1     -41.682  54.870 -55.601  1.00  0.00    -0.184 NA
HETATM   11  C   UNL     1     -40.793  54.978 -54.665  1.00  0.00     0.150 C 
BRANCH  11  12
HETATM   12  C   UNL     1     -40.476  53.833 -53.786  1.00  0.00    -0.013 A 
HETATM   13  C   UNL     1     -40.186  52.582 -54.339  1.00  0.00     0.035 A 
HETATM   14  C   UNL     1     -39.904  51.511 -53.497  1.00  0.00     0.047 A 
HETATM   15 BR   UNL     1     -39.522  49.820 -54.264  1.00  0.00    -0.048 Br
HETATM   16  C   UNL     1     -39.906  51.689 -52.111  1.00  0.00     0.116 A 
HETATM   17  C   UNL     1     -40.190  52.945 -51.551  1.00  0.00     0.104 A 
HETATM   18  C   UNL     1     -40.481  54.020 -52.398  1.00  0.00     0.052 A 
BRANCH  16  19
HETATM   19  O   UNL     1     -39.630  50.643 -51.267  1.00  0.00    -0.357 OA
HETATM   20  H   UNL     1     -39.778  50.941 -50.352  1.00  0.00     0.218 HD
ENDBRANCH  16  19
BRANCH  17  21
HETATM   21  O   UNL     1     -40.164  53.009 -50.183  1.00  0.00    -0.349 OA
BRANCH  21  22
HETATM   22  C   UNL     1     -39.789  54.237 -49.569  1.00  0.00     0.171 C 
HETATM   23  C   UNL     1     -40.497  54.324 -48.229  1.00  0.00     0.034 C 
ENDBRANCH  21  22
ENDBRANCH  17  21
ENDBRANCH  11  12
ENDBRANCH   7  10
ENDBRANCH   5   6
BRANCH   1  24
HETATM   24  C   UNL     1     -42.125  59.752 -55.330  1.00  0.00     0.296 C 
BRANCH  24  25
HETATM   25  N   UNL     1     -42.980  59.972 -54.093  1.00  0.00    -0.066 N 
HETATM   26  H   UNL     1     -42.768  60.923 -53.759  1.00  0.00     0.280 HD
BRANCH  25  27
HETATM   27  C   UNL     1     -42.590  59.003 -52.983  1.00  0.00     0.231 C 
HETATM   28  C   UNL     1     -41.233  58.375 -53.246  1.00  0.00     0.034 C 
ENDBRANCH  25  27
BRANCH  25  29
HETATM   29  C   UNL     1     -44.470  59.889 -54.394  1.00  0.00     0.231 C 
HETATM   30  C   UNL     1     -45.279  59.771 -53.113  1.00  0.00     0.034 C 
ENDBRANCH  25  29
ENDBRANCH  24  25
ENDBRANCH   1  24
BRANCH   2  31
HETATM   31  C   UNL     1     -43.247  61.420 -57.757  1.00  0.00     0.225 A 
HETATM   32  N   UNL     1     -44.419  62.063 -57.794  1.00  0.00    -0.081 NA
HETATM   33  O   UNL     1     -44.052  63.405 -57.945  1.00  0.00    -0.103 OA
HETATM   34  N   UNL     1     -42.675  63.542 -58.023  1.00  0.00    -0.083 NA
HETATM   35  C   UNL     1     -42.174  62.314 -57.910  1.00  0.00     0.201 A 
BRANCH  35  36
HETATM   36  N   UNL     1     -40.866  62.018 -57.934  1.00  0.00    -0.379 N 
HETATM   37  H   UNL     1     -40.214  62.529 -57.344  1.00  0.00     0.158 HD
HETATM   38  H   UNL     1     -40.429  61.419 -58.630  1.00  0.00     0.158 HD
ENDBRANCH  35  36
ENDBRANCH   2  31
TORSDOF 12
ENDMDL
MODEL 6
REMARK VINA RESULT:      -6.9      3.849      9.996
REMARK  12 active torsions:
REMARK  status: ('A' for Active; 'I' for Inactive)
REMARK    1  A    between atoms: C_2  and  N_3 
REMARK    2  A    between atoms: N_3  and  C_5 
REMARK    3  A    between atoms: N_3  and  C_33 
REMARK    4  A    between atoms: C_5  and  C_6 
REMARK    5  A    between atoms: N_7  and  C_8 
REMARK    6  A    between atoms: C_12  and  N_13 
REMARK    7  A    between atoms: C_16  and  C_17 
REMARK       I    between atoms: C_17  and  N_18 
REMARK    8  A    between atoms: N_18  and  N_19 
REMARK    9  A    between atoms: C_20  and  C_21 
REMARK   10  A    between atoms: C_25  and  O_26 
REMARK   11  A    between atoms: C_27  and  O_28 
REMARK   12  A    between atoms: O_28  and  C_29 
ROOT
HETATM    1  C   UNL     1     -42.074  54.260 -52.915  1.00  0.00     0.096 A 
HETATM    2  N   UNL     1     -41.049  53.685 -52.168  1.00  0.00    -0.215 N 
HETATM    3  N   UNL     1     -40.200  53.044 -53.015  1.00  0.00     0.012 NA
HETATM    4  N   UNL     1     -40.577  53.266 -54.264  1.00  0.00    -0.152 NA
HETATM    5  C   UNL     1     -41.716  54.015 -54.235  1.00  0.00     0.170 A 
ENDROOT
BRANCH   5   6
HETATM    6  C   UNL     1     -42.419  54.475 -55.426  1.00  0.00     0.293 C 
HETATM    7  N   UNL     1     -41.885  55.615 -55.996  1.00  0.00    -0.242 N 
HETATM    8  H   UNL     1     -41.069  56.063 -55.588  1.00  0.00     0.192 HD
HETATM    9  O   UNL     1     -43.411  53.869 -55.824  1.00  0.00    -0.264 OA
BRANCH   7  10
HETATM   10  N   UNL     1     -42.445  56.107 -57.134  1.00  0.00    -0.184 NA
HETATM   11  C   UNL     1     -42.601  57.391 -57.196  1.00  0.00     0.150 C 
BRANCH  11  12
HETATM   12  C   UNL     1     -43.179  58.027 -58.398  1.00  0.00    -0.013 A 
HETATM   13  C   UNL     1     -42.401  58.886 -59.180  1.00  0.00     0.035 A 
HETATM   14  C   UNL     1     -42.964  59.488 -60.301  1.00  0.00     0.047 A 
HETATM   15 BR   UNL     1     -41.898  60.658 -61.344  1.00  0.00    -0.048 Br
HETATM   16  C   UNL     1     -44.294  59.228 -60.643  1.00  0.00     0.116 A 
HETATM   17  C   UNL     1     -45.077  58.360 -59.866  1.00  0.00     0.104 A 
HETATM   18  C   UNL     1     -44.513  57.761 -58.734  1.00  0.00     0.052 A 
BRANCH  16  19
HETATM   19  O   UNL     1     -44.863  59.814 -61.746  1.00  0.00    -0.357 OA
HETATM   20  H   UNL     1     -45.450  60.530 -61.443  1.00  0.00     0.218 HD
ENDBRANCH  16  19
BRANCH  17  21
HETATM   21  O   UNL     1     -46.366  58.176 -60.290  1.00  0.00    -0.349 OA
BRANCH  21  22
HETATM   22  C   UNL     1     -46.990  56.922 -60.036  1.00  0.00     0.171 C 
HETATM   23  C   UNL     1     -46.405  55.906 -61.000  1.00  0.00     0.034 C 
ENDBRANCH  21  22
ENDBRANCH  17  21
ENDBRANCH  11  12
ENDBRANCH   7  10
ENDBRANCH   5   6
BRANCH   1  24
HETATM   24  C   UNL     1     -43.302  54.887 -52.365  1.00  0.00     0.296 C 
BRANCH  24  25
HETATM   25  N   UNL     1     -43.157  56.311 -51.855  1.00  0.00    -0.066 N 
HETATM   26  H   UNL     1     -42.288  56.335 -51.302  1.00  0.00     0.280 HD
BRANCH  25  27
HETATM   27  C   UNL     1     -44.303  56.673 -50.917  1.00  0.00     0.231 C 
HETATM   28  C   UNL     1     -44.945  57.991 -51.309  1.00  0.00     0.034 C 
ENDBRANCH  25  27
BRANCH  25  29
HETATM   29  C   UNL     1     -43.034  57.324 -52.984  1.00  0.00     0.231 C 
HETATM   30  C   UNL     1     -41.615  57.859 -53.086  1.00  0.00     0.034 C 
ENDBRANCH  25  29
ENDBRANCH  24  25
ENDBRANCH   1  24
BRANCH   2  31
HETATM   31  C   UNL     1     -40.826  53.759 -50.773  1.00  0.00     0.225 A 
HETATM   32  N   UNL     1     -40.888  54.941 -50.152  1.00  0.00    -0.081 NA
HETATM   33  O   UNL     1     -40.598  54.626 -48.819  1.00  0.00    -0.103 OA
HETATM   34  N   UNL     1     -40.340  53.272 -48.669  1.00  0.00    -0.083 NA
HETATM   35  C   UNL     1     -40.479  52.733 -49.879  1.00  0.00     0.201 A 
BRANCH  35  36
HETATM   36  N   UNL     1     -40.315  51.431 -50.157  1.00  0.00    -0.379 N 
HETATM   37  H   UNL     1     -41.123  50.822 -50.256  1.00  0.00     0.158 HD
HETATM   38  H   UNL     1     -39.421  50.948 -50.118  1.00  0.00     0.158 HD
ENDBRANCH  35  36
ENDBRANCH   2  31
TORSDOF 12
ENDMDL
MODEL 7
REMARK VINA RESULT:      -6.7      2.159      3.436
REMARK  12 active torsions:
REMARK  status: ('A' for Active; 'I' for Inactive)
REMARK    1  A    between atoms: C_2  and  N_3 
REMARK    2  A    between atoms: N_3  and  C_5 
REMARK    3  A    between atoms: N_3  and  C_33 
REMARK    4  A    between atoms: C_5  and  C_6 
REMARK    5  A    between atoms: N_7  and  C_8 
REMARK    6  A    between atoms: C_12  and  N_13 
REMARK    7  A    between atoms: C_16  and  C_17 
REMARK       I    between atoms: C_17  and  N_18 
REMARK    8  A    between atoms: N_18  and  N_19 
REMARK    9  A    between atoms: C_20  and  C_21 
REMARK   10  A    between atoms: C_25  and  O_26 
REMARK   11  A    between atoms: C_27  and  O_28 
REMARK   12  A    between atoms: O_28  and  C_29 
ROOT
HETATM    1  C   UNL     1     -43.286  58.102 -58.722  1.00  0.00     0.096 A 
HETATM    2  N   UNL     1     -43.188  58.484 -60.058  1.00  0.00    -0.215 N 
HETATM    3  N   UNL     1     -42.681  57.444 -60.772  1.00  0.00     0.012 NA
HETATM    4  N   UNL     1     -42.545  56.394 -59.979  1.00  0.00    -0.152 NA
HETATM    5  C   UNL     1     -42.916  56.764 -58.720  1.00  0.00     0.170 A 
ENDROOT
BRANCH   5   6
HETATM    6  C   UNL     1     -42.917  55.864 -57.574  1.00  0.00     0.293 C 
HETATM    7  N   UNL     1     -42.133  56.288 -56.518  1.00  0.00    -0.242 N 
HETATM    8  H   UNL     1     -41.617  57.162 -56.576  1.00  0.00     0.192 HD
HETATM    9  O   UNL     1     -43.562  54.819 -57.616  1.00  0.00    -0.264 OA
BRANCH   7  10
HETATM   10  N   UNL     1     -42.093  55.538 -55.384  1.00  0.00    -0.184 NA
HETATM   11  C   UNL     1     -40.922  55.304 -54.884  1.00  0.00     0.150 C 
BRANCH  11  12
HETATM   12  C   UNL     1     -40.772  54.519 -53.640  1.00  0.00    -0.013 A 
HETATM   13  C   UNL     1     -41.080  55.095 -52.404  1.00  0.00     0.035 A 
HETATM   14  C   UNL     1     -40.920  54.348 -51.242  1.00  0.00     0.047 A 
HETATM   15 BR   UNL     1     -41.334  55.149 -49.575  1.00  0.00    -0.048 Br
HETATM   16  C   UNL     1     -40.461  53.030 -51.314  1.00  0.00     0.116 A 
HETATM   17  C   UNL     1     -40.156  52.444 -52.553  1.00  0.00     0.104 A 
HETATM   18  C   UNL     1     -40.311  53.199 -53.721  1.00  0.00     0.052 A 
BRANCH  16  19
HETATM   19  O   UNL     1     -40.297  52.280 -50.177  1.00  0.00    -0.357 OA
HETATM   20  H   UNL     1     -40.895  51.513 -50.228  1.00  0.00     0.218 HD
ENDBRANCH  16  19
BRANCH  17  21
HETATM   21  O   UNL     1     -39.715  51.149 -52.509  1.00  0.00    -0.349 OA
BRANCH  21  22
HETATM   22  C   UNL     1     -39.249  50.551 -53.714  1.00  0.00     0.171 C 
HETATM   23  C   UNL     1     -40.441  49.925 -54.416  1.00  0.00     0.034 C 
ENDBRANCH  21  22
ENDBRANCH  17  21
ENDBRANCH  11  12
ENDBRANCH   7  10
ENDBRANCH   5   6
BRANCH   1  24
HETATM   24  C   UNL     1     -43.613  59.000 -57.586  1.00  0.00     0.296 C 
BRANCH  24  25
HETATM   25  N   UNL     1     -45.089  59.270 -57.348  1.00  0.00    -0.066 N 
HETATM   26  H   UNL     1     -45.540  59.259 -58.274  1.00  0.00     0.280 HD
BRANCH  25  27
HETATM   27  C   UNL     1     -45.300  60.659 -56.757  1.00  0.00     0.231 C 
HETATM   28  C   UNL     1     -44.033  61.493 -56.834  1.00  0.00     0.034 C 
ENDBRANCH  25  27
BRANCH  25  29
HETATM   29  C   UNL     1     -45.744  58.202 -56.483  1.00  0.00     0.231 C 
HETATM   30  C   UNL     1     -45.146  58.190 -55.085  1.00  0.00     0.034 C 
ENDBRANCH  25  29
ENDBRANCH  24  25
ENDBRANCH   1  24
BRANCH   2  31
HETATM   31  C   UNL     1     -43.584  59.703 -60.658  1.00  0.00     0.225 A 
HETATM   32  N   UNL     1     -44.813  60.181 -60.444  1.00  0.00    -0.081 NA
HETATM   33  O   UNL     1     -44.842  61.359 -61.199  1.00  0.00    -0.103 OA
HETATM   34  N   UNL     1     -43.646  61.553 -61.873  1.00  0.00    -0.083 NA
HETATM   35  C   UNL     1     -42.866  60.526 -61.541  1.00  0.00     0.201 A 
BRANCH  35  36
HETATM   36  N   UNL     1     -41.613  60.346 -61.986  1.00  0.00    -0.379 N 
HETATM   37  H   UNL     1     -41.037  61.146 -62.235  1.00  0.00     0.158 HD
HETATM   38  H   UNL     1     -41.228  59.444 -62.257  1.00  0.00     0.158 HD
ENDBRANCH  35  36
ENDBRANCH   2  31
TORSDOF 12
ENDMDL
MODEL 8
REMARK VINA RESULT:      -6.7      2.133      3.726
REMARK  12 active torsions:
REMARK  status: ('A' for Active; 'I' for Inactive)
REMARK    1  A    between atoms: C_2  and  N_3 
REMARK    2  A    between atoms: N_3  and  C_5 
REMARK    3  A    between atoms: N_3  and  C_33 
REMARK    4  A    between atoms: C_5  and  C_6 
REMARK    5  A    between atoms: N_7  and  C_8 
REMARK    6  A    between atoms: C_12  and  N_13 
REMARK    7  A    between atoms: C_16  and  C_17 
REMARK       I    between atoms: C_17  and  N_18 
REMARK    8  A    between atoms: N_18  and  N_19 
REMARK    9  A    between atoms: C_20  and  C_21 
REMARK   10  A    between atoms: C_25  and  O_26 
REMARK   11  A    between atoms: C_27  and  O_28 
REMARK   12  A    between atoms: O_28  and  C_29 
ROOT
HETATM    1  C   UNL     1     -44.856  57.953 -58.922  1.00  0.00     0.096 A 
HETATM    2  N   UNL     1     -46.037  58.046 -59.652  1.00  0.00    -0.215 N 
HETATM    3  N   UNL     1     -46.303  56.832 -60.206  1.00  0.00     0.012 NA
HETATM    4  N   UNL     1     -45.409  55.954 -59.785  1.00  0.00    -0.152 NA
HETATM    5  C   UNL     1     -44.515  56.608 -58.990  1.00  0.00     0.170 A 
ENDROOT
BRANCH   5   6
HETATM    6  C   UNL     1     -43.390  55.962 -58.326  1.00  0.00     0.293 C 
HETATM    7  N   UNL     1     -43.579  55.741 -56.974  1.00  0.00    -0.242 N 
HETATM    8  H   UNL     1     -44.446  56.018 -56.522  1.00  0.00     0.192 HD
HETATM    9  O   UNL     1     -42.377  55.686 -58.964  1.00  0.00    -0.264 OA
BRANCH   7  10
HETATM   10  N   UNL     1     -42.604  55.109 -56.267  1.00  0.00    -0.184 NA
HETATM   11  C   UNL     1     -42.944  54.626 -55.115  1.00  0.00     0.150 C 
BRANCH  11  12
HETATM   12  C   UNL     1     -41.964  53.901 -54.279  1.00  0.00    -0.013 A 
HETATM   13  C   UNL     1     -41.490  52.648 -54.679  1.00  0.00     0.035 A 
HETATM   14  C   UNL     1     -40.579  51.973 -53.873  1.00  0.00     0.047 A 
HETATM   15 BR   UNL     1     -39.955  50.270 -54.427  1.00  0.00    -0.048 Br
HETATM   16  C   UNL     1     -40.138  52.548 -52.678  1.00  0.00     0.116 A 
HETATM   17  C   UNL     1     -40.605  53.809 -52.276  1.00  0.00     0.104 A 
HETATM   18  C   UNL     1     -41.527  54.484 -53.082  1.00  0.00     0.052 A 
BRANCH  16  19
HETATM   19  O   UNL     1     -39.239  51.894 -51.873  1.00  0.00    -0.357 OA
HETATM   20  H   UNL     1     -39.716  51.559 -51.092  1.00  0.00     0.218 HD
ENDBRANCH  16  19
BRANCH  17  21
HETATM   21  O   UNL     1     -40.109  54.279 -51.089  1.00  0.00    -0.349 OA
BRANCH  21  22
HETATM   22  C   UNL     1     -40.899  55.196 -50.340  1.00  0.00     0.171 C 
HETATM   23  C   UNL     1     -41.209  54.556 -48.999  1.00  0.00     0.034 C 
ENDBRANCH  21  22
ENDBRANCH  17  21
ENDBRANCH  11  12
ENDBRANCH   7  10
ENDBRANCH   5   6
BRANCH   1  24
HETATM   24  C   UNL     1     -44.117  59.091 -58.319  1.00  0.00     0.296 C 
BRANCH  24  25
HETATM   25  N   UNL     1     -42.877  59.556 -59.065  1.00  0.00    -0.066 N 
HETATM   26  H   UNL     1     -42.578  58.764 -59.653  1.00  0.00     0.280 HD
BRANCH  25  27
HETATM   27  C   UNL     1     -41.741  59.857 -58.095  1.00  0.00     0.231 C 
HETATM   28  C   UNL     1     -41.195  61.259 -58.298  1.00  0.00     0.034 C 
ENDBRANCH  25  27
BRANCH  25  29
HETATM   29  C   UNL     1     -43.155  60.748 -59.969  1.00  0.00     0.231 C 
HETATM   30  C   UNL     1     -43.302  60.310 -61.418  1.00  0.00     0.034 C 
ENDBRANCH  25  29
ENDBRANCH  24  25
ENDBRANCH   1  24
BRANCH   2  31
HETATM   31  C   UNL     1     -46.902  59.157 -59.794  1.00  0.00     0.225 A 
HETATM   32  N   UNL     1     -46.944  59.824 -60.952  1.00  0.00    -0.081 NA
HETATM   33  O   UNL     1     -47.873  60.842 -60.709  1.00  0.00    -0.103 OA
HETATM   34  N   UNL     1     -48.350  60.787 -59.409  1.00  0.00    -0.083 NA
HETATM   35  C   UNL     1     -47.748  59.744 -58.839  1.00  0.00     0.201 A 
BRANCH  35  36
HETATM   36  N   UNL     1     -47.946  59.349 -57.572  1.00  0.00    -0.379 N 
HETATM   37  H   UNL     1     -47.865  58.366 -57.324  1.00  0.00     0.158 HD
HETATM   38  H   UNL     1     -48.339  59.941 -56.845  1.00  0.00     0.158 HD
ENDBRANCH  35  36
ENDBRANCH   2  31
TORSDOF 12
ENDMDL
MODEL 9
REMARK VINA RESULT:      -6.7      2.778      4.236
REMARK  12 active torsions:
REMARK  status: ('A' for Active; 'I' for Inactive)
REMARK    1  A    between atoms: C_2  and  N_3 
REMARK    2  A    between atoms: N_3  and  C_5 
REMARK    3  A    between atoms: N_3  and  C_33 
REMARK    4  A    between atoms: C_5  and  C_6 
REMARK    5  A    between atoms: N_7  and  C_8 
REMARK    6  A    between atoms: C_12  and  N_13 
REMARK    7  A    between atoms: C_16  and  C_17 
REMARK       I    between atoms: C_17  and  N_18 
REMARK    8  A    between atoms: N_18  and  N_19 
REMARK    9  A    between atoms: C_20  and  C_21 
REMARK   10  A    between atoms: C_25  and  O_26 
REMARK   11  A    between atoms: C_27  and  O_28 
REMARK   12  A    between atoms: O_28  and  C_29 
ROOT
HETATM    1  C   UNL     1     -44.874  58.322 -58.281  1.00  0.00     0.096 A 
HETATM    2  N   UNL     1     -45.730  58.342 -59.378  1.00  0.00    -0.215 N 
HETATM    3  N   UNL     1     -45.439  57.280 -60.176  1.00  0.00     0.012 NA
HETATM    4  N   UNL     1     -44.515  56.536 -59.594  1.00  0.00    -0.152 NA
HETATM    5  C   UNL     1     -44.155  57.143 -58.428  1.00  0.00     0.170 A 
ENDROOT
BRANCH   5   6
HETATM    6  C   UNL     1     -43.168  56.605 -57.500  1.00  0.00     0.293 C 
HETATM    7  N   UNL     1     -43.510  55.383 -56.952  1.00  0.00    -0.242 N 
HETATM    8  H   UNL     1     -44.385  54.931 -57.204  1.00  0.00     0.192 HD
HETATM    9  O   UNL     1     -42.149  57.245 -57.250  1.00  0.00    -0.264 OA
BRANCH   7  10
HETATM   10  N   UNL     1     -42.640  54.776 -56.101  1.00  0.00    -0.184 NA
HETATM   11  C   UNL     1     -42.943  54.807 -54.842  1.00  0.00     0.150 C 
BRANCH  11  12
HETATM   12  C   UNL     1     -42.075  54.156 -53.838  1.00  0.00    -0.013 A 
HETATM   13  C   UNL     1     -42.175  54.509 -52.489  1.00  0.00     0.035 A 
HETATM   14  C   UNL     1     -41.341  53.897 -51.559  1.00  0.00     0.047 A 
HETATM   15 BR   UNL     1     -41.483  54.396 -49.735  1.00  0.00    -0.048 Br
HETATM   16  C   UNL     1     -40.417  52.933 -51.972  1.00  0.00     0.116 A 
HETATM   17  C   UNL     1     -40.318  52.570 -53.324  1.00  0.00     0.104 A 
HETATM   18  C   UNL     1     -41.152  53.191 -54.260  1.00  0.00     0.052 A 
BRANCH  16  19
HETATM   19  O   UNL     1     -39.588  52.321 -51.066  1.00  0.00    -0.357 OA
HETATM   20  H   UNL     1     -40.138  51.818 -50.439  1.00  0.00     0.218 HD
ENDBRANCH  16  19
BRANCH  17  21
HETATM   21  O   UNL     1     -39.381  51.616 -53.619  1.00  0.00    -0.349 OA
BRANCH  21  22
HETATM   22  C   UNL     1     -39.831  50.330 -54.034  1.00  0.00     0.171 C 
HETATM   23  C   UNL     1     -39.567  49.356 -52.901  1.00  0.00     0.034 C 
ENDBRANCH  21  22
ENDBRANCH  17  21
ENDBRANCH  11  12
ENDBRANCH   7  10
ENDBRANCH   5   6
BRANCH   1  24
HETATM   24  C   UNL     1     -44.732  59.402 -57.272  1.00  0.00     0.296 C 
BRANCH  24  25
HETATM   25  N   UNL     1     -45.687  59.346 -56.091  1.00  0.00    -0.066 N 
HETATM   26  H   UNL     1     -46.637  59.298 -56.488  1.00  0.00     0.280 HD
BRANCH  25  27
HETATM   27  C   UNL     1     -45.605  60.623 -55.264  1.00  0.00     0.231 C 
HETATM   28  C   UNL     1     -44.754  61.676 -55.951  1.00  0.00     0.034 C 
ENDBRANCH  25  27
BRANCH  25  29
HETATM   29  C   UNL     1     -45.467  58.116 -55.222  1.00  0.00     0.231 C 
HETATM   30  C   UNL     1     -44.250  58.291 -54.328  1.00  0.00     0.034 C 
ENDBRANCH  25  29
ENDBRANCH  24  25
ENDBRANCH   1  24
BRANCH   2  31
HETATM   31  C   UNL     1     -46.785  59.242 -59.657  1.00  0.00     0.225 A 
HETATM   32  N   UNL     1     -47.688  59.522 -58.712  1.00  0.00    -0.081 NA
HETATM   33  O   UNL     1     -48.565  60.409 -59.349  1.00  0.00    -0.103 OA
HETATM   34  N   UNL     1     -48.191  60.623 -60.666  1.00  0.00    -0.083 NA
HETATM   35  C   UNL     1     -47.091  59.899 -60.861  1.00  0.00     0.201 A 
BRANCH  35  36
HETATM   36  N   UNL     1     -46.412  59.838 -62.017  1.00  0.00    -0.379 N 
HETATM   37  H   UNL     1     -45.802  59.049 -62.212  1.00  0.00     0.158 HD
HETATM   38  H   UNL     1     -46.326  60.614 -62.669  1.00  0.00     0.158 HD
ENDBRANCH  35  36
ENDBRANCH   2  31
TORSDOF 12
ENDMDL
MODEL 10
REMARK VINA RESULT:      -6.6      1.966      3.058
REMARK  12 active torsions:
REMARK  status: ('A' for Active; 'I' for Inactive)
REMARK    1  A    between atoms: C_2  and  N_3 
REMARK    2  A    between atoms: N_3  and  C_5 
REMARK    3  A    between atoms: N_3  and  C_33 
REMARK    4  A    between atoms: C_5  and  C_6 
REMARK    5  A    between atoms: N_7  and  C_8 
REMARK    6  A    between atoms: C_12  and  N_13 
REMARK    7  A    between atoms: C_16  and  C_17 
REMARK       I    between atoms: C_17  and  N_18 
REMARK    8  A    between atoms: N_18  and  N_19 
REMARK    9  A    between atoms: C_20  and  C_21 
REMARK   10  A    between atoms: C_25  and  O_26 
REMARK   11  A    between atoms: C_27  and  O_28 
REMARK   12  A    between atoms: O_28  and  C_29 
ROOT
HETATM    1  C   UNL     1     -43.506  59.068 -57.146  1.00  0.00     0.096 A 
HETATM    2  N   UNL     1     -43.125  60.030 -58.077  1.00  0.00    -0.215 N 
HETATM    3  N   UNL     1     -42.100  60.758 -57.557  1.00  0.00     0.012 NA
HETATM    4  N   UNL     1     -41.748  60.245 -56.390  1.00  0.00    -0.152 NA
HETATM    5  C   UNL     1     -42.584  59.204 -56.115  1.00  0.00     0.170 A 
ENDROOT
BRANCH   5   6
HETATM    6  C   UNL     1     -42.492  58.379 -54.918  1.00  0.00     0.293 C 
HETATM    7  N   UNL     1     -41.591  57.335 -55.014  1.00  0.00    -0.242 N 
HETATM    8  H   UNL     1     -41.056  57.192 -55.867  1.00  0.00     0.192 HD
HETATM    9  O   UNL     1     -43.201  58.628 -53.945  1.00  0.00    -0.264 OA
BRANCH   7  10
HETATM   10  N   UNL     1     -41.401  56.526 -53.938  1.00  0.00    -0.184 NA
HETATM   11  C   UNL     1     -41.079  55.297 -54.185  1.00  0.00     0.150 C 
BRANCH  11  12
HETATM   12  C   UNL     1     -40.829  54.343 -53.085  1.00  0.00    -0.013 A 
HETATM   13  C   UNL     1     -40.959  54.755 -51.755  1.00  0.00     0.035 A 
HETATM   14  C   UNL     1     -40.705  53.848 -50.731  1.00  0.00     0.047 A 
HETATM   15 BR   UNL     1     -40.877  54.427 -48.934  1.00  0.00    -0.048 Br
HETATM   16  C   UNL     1     -40.330  52.536 -51.032  1.00  0.00     0.116 A 
HETATM   17  C   UNL     1     -40.204  52.116 -52.365  1.00  0.00     0.104 A 
HETATM   18  C   UNL     1     -40.452  53.030 -53.395  1.00  0.00     0.052 A 
BRANCH  16  19
HETATM   19  O   UNL     1     -40.076  51.631 -50.033  1.00  0.00    -0.357 OA
HETATM   20  H   UNL     1     -39.303  51.098 -50.292  1.00  0.00     0.218 HD
ENDBRANCH  16  19
BRANCH  17  21
HETATM   21  O   UNL     1     -39.832  50.811 -52.548  1.00  0.00    -0.349 OA
BRANCH  21  22
HETATM   22  C   UNL     1     -40.339  50.114 -53.681  1.00  0.00     0.171 C 
HETATM   23  C   UNL     1     -39.173  49.822 -54.609  1.00  0.00     0.034 C 
ENDBRANCH  21  22
ENDBRANCH  17  21
ENDBRANCH  11  12
ENDBRANCH   7  10
ENDBRANCH   5   6
BRANCH   1  24
HETATM   24  C   UNL     1     -44.703  58.196 -57.241  1.00  0.00     0.296 C 
BRANCH  24  25
HETATM   25  N   UNL     1     -44.550  56.935 -58.076  1.00  0.00    -0.066 N 
HETATM   26  H   UNL     1     -44.941  56.165 -57.513  1.00  0.00     0.280 HD
BRANCH  25  27
HETATM   27  C   UNL     1     -43.080  56.619 -58.320  1.00  0.00     0.231 C 
HETATM   28  C   UNL     1     -42.888  55.832 -59.604  1.00  0.00     0.034 C 
ENDBRANCH  25  27
BRANCH  25  29
HETATM   29  C   UNL     1     -45.319  57.010 -59.387  1.00  0.00     0.231 C 
HETATM   30  C   UNL     1     -46.652  57.717 -59.199  1.00  0.00     0.034 C 
ENDBRANCH  25  29
ENDBRANCH  24  25
ENDBRANCH   1  24
BRANCH   2  31
HETATM   31  C   UNL     1     -43.625  60.240 -59.383  1.00  0.00     0.225 A 
HETATM   32  N   UNL     1     -44.765  60.916 -59.558  1.00  0.00    -0.081 NA
HETATM   33  O   UNL     1     -44.946  60.901 -60.946  1.00  0.00    -0.103 OA
HETATM   34  N   UNL     1     -43.931  60.197 -61.576  1.00  0.00    -0.083 NA
HETATM   35  C   UNL     1     -43.113  59.785 -60.609  1.00  0.00     0.201 A 
BRANCH  35  36
HETATM   36  N   UNL     1     -41.997  59.067 -60.809  1.00  0.00    -0.379 N 
HETATM   37  H   UNL     1     -42.023  58.052 -60.750  1.00  0.00     0.158 HD
HETATM   38  H   UNL     1     -41.063  59.466 -60.858  1.00  0.00     0.158 HD
ENDBRANCH  35  36
ENDBRANCH   2  31
TORSDOF 12
ENDMDL
