MODEL 1
REMARK VINA RESULT:      -8.2      0.000      0.000
REMARK  5 active torsions:
REMARK  status: ('A' for Active; 'I' for Inactive)
REMARK    1  A    between atoms: N_3  and  C_4 
REMARK    2  A    between atoms: C_12  and  C_13 
REMARK    3  A    between atoms: C_13  and  N_14 
REMARK       I    between atoms: N_14  and  C_15 
REMARK       I    between atoms: C_15  and  N_16 
REMARK    4  A    between atoms: N_16  and  C_17 
REMARK    5  A    between atoms: C_17  and  C_18 
ROOT
HETATM    1  C   UNL     1     -44.678  56.910 -51.015  1.00  0.00     0.165 C 
ENDROOT
BRANCH   1   2
HETATM    2  C   UNL     1     -43.531  56.321 -51.778  1.00  0.00    -0.016 A 
HETATM    3  C   UNL     1     -43.118  54.992 -51.795  1.00  0.00     0.021 A 
HETATM    4  N   UNL     1     -41.995  54.882 -52.616  1.00  0.00    -0.319 N 
HETATM    5  C   UNL     1     -43.788  53.827 -51.136  1.00  0.00     0.069 C 
HETATM    6  C   UNL     1     -41.741  56.138 -53.161  1.00  0.00     0.014 A 
HETATM    7  C   UNL     1     -40.588  56.465 -54.050  1.00  0.00     0.068 C 
HETATM    8  C   UNL     1     -42.671  57.024 -52.653  1.00  0.00     0.035 A 
BRANCH   4   9
HETATM    9  C   UNL     1     -41.230  53.699 -52.836  1.00  0.00     0.039 A 
HETATM   10  C   UNL     1     -40.340  53.247 -51.853  1.00  0.00     0.030 A 
HETATM   11  C   UNL     1     -39.584  52.094 -52.071  1.00  0.00     0.002 A 
HETATM   12  C   UNL     1     -39.714  51.387 -53.264  1.00  0.00     0.000 A 
HETATM   13  C   UNL     1     -40.600  51.831 -54.244  1.00  0.00     0.002 A 
HETATM   14  C   UNL     1     -41.357  52.987 -54.034  1.00  0.00     0.030 A 
ENDBRANCH   4   9
ENDBRANCH   1   2
BRANCH   1  15
HETATM   15  N   UNL     1     -44.327  58.264 -50.652  1.00  0.00    -0.339 N 
HETATM   16  C   UNL     1     -45.289  59.191 -50.367  1.00  0.00     0.316 C 
HETATM   17  N   UNL     1     -44.744  60.331 -49.841  1.00  0.00    -0.339 N 
HETATM   18  O   UNL     1     -46.488  59.016 -50.527  1.00  0.00    -0.247 OA
HETATM   19  H   UNL     1     -43.810  60.561 -50.142  1.00  0.00     0.164 HD
HETATM   20  H   UNL     1     -43.417  58.401 -50.241  1.00  0.00     0.164 HD
BRANCH  17  21
HETATM   21  C   UNL     1     -45.597  61.436 -49.463  1.00  0.00     0.162 C 
BRANCH  21  22
HETATM   22  C   UNL     1     -45.439  61.790 -48.006  1.00  0.00    -0.040 A 
HETATM   23  C   UNL     1     -45.310  60.782 -47.041  1.00  0.00     0.009 A 
HETATM   24  C   UNL     1     -45.113  61.107 -45.697  1.00  0.00     0.001 A 
HETATM   25  C   UNL     1     -45.038  62.441 -45.303  1.00  0.00     0.000 A 
HETATM   26  C   UNL     1     -45.153  63.454 -46.253  1.00  0.00     0.001 A 
HETATM   27  C   UNL     1     -45.344  63.130 -47.598  1.00  0.00     0.009 A 
ENDBRANCH  21  22
ENDBRANCH  17  21
ENDBRANCH   1  15
TORSDOF 5
ENDMDL
MODEL 2
REMARK VINA RESULT:      -8.0      5.083      8.830
REMARK  5 active torsions:
REMARK  status: ('A' for Active; 'I' for Inactive)
REMARK    1  A    between atoms: N_3  and  C_4 
REMARK    2  A    between atoms: C_12  and  C_13 
REMARK    3  A    between atoms: C_13  and  N_14 
REMARK       I    between atoms: N_14  and  C_15 
REMARK       I    between atoms: C_15  and  N_16 
REMARK    4  A    between atoms: N_16  and  C_17 
REMARK    5  A    between atoms: C_17  and  C_18 
ROOT
HETATM    1  C   UNL     1     -43.694  55.957 -52.628  1.00  0.00     0.165 C 
ENDROOT
BRANCH   1   2
HETATM    2  C   UNL     1     -43.859  56.551 -53.993  1.00  0.00    -0.016 A 
HETATM    3  C   UNL     1     -43.185  56.197 -55.158  1.00  0.00     0.021 A 
HETATM    4  N   UNL     1     -43.624  57.018 -56.197  1.00  0.00    -0.319 N 
HETATM    5  C   UNL     1     -42.213  55.072 -55.336  1.00  0.00     0.069 C 
HETATM    6  C   UNL     1     -44.620  57.849 -55.692  1.00  0.00     0.014 A 
HETATM    7  C   UNL     1     -45.312  58.920 -56.466  1.00  0.00     0.068 C 
HETATM    8  C   UNL     1     -44.769  57.574 -54.347  1.00  0.00     0.035 A 
BRANCH   4   9
HETATM    9  C   UNL     1     -43.122  57.021 -57.532  1.00  0.00     0.039 A 
HETATM   10  C   UNL     1     -43.471  55.989 -58.414  1.00  0.00     0.030 A 
HETATM   11  C   UNL     1     -42.973  55.985 -59.718  1.00  0.00     0.002 A 
HETATM   12  C   UNL     1     -42.133  57.010 -60.149  1.00  0.00     0.000 A 
HETATM   13  C   UNL     1     -41.786  58.040 -59.277  1.00  0.00     0.002 A 
HETATM   14  C   UNL     1     -42.277  58.047 -57.969  1.00  0.00     0.030 A 
ENDBRANCH   4   9
ENDBRANCH   1   2
BRANCH   1  15
HETATM   15  N   UNL     1     -42.293  55.658 -52.436  1.00  0.00    -0.339 N 
HETATM   16  C   UNL     1     -41.895  54.543 -51.754  1.00  0.00     0.316 C 
HETATM   17  N   UNL     1     -40.547  54.337 -51.876  1.00  0.00    -0.339 N 
HETATM   18  O   UNL     1     -42.648  53.802 -51.140  1.00  0.00    -0.247 OA
HETATM   19  H   UNL     1     -39.977  55.160 -51.995  1.00  0.00     0.164 HD
HETATM   20  H   UNL     1     -41.652  56.037 -53.115  1.00  0.00     0.164 HD
BRANCH  17  21
HETATM   21  C   UNL     1     -39.925  53.202 -51.234  1.00  0.00     0.162 C 
BRANCH  21  22
HETATM   22  C   UNL     1     -39.834  52.015 -52.160  1.00  0.00    -0.040 A 
HETATM   23  C   UNL     1     -39.595  50.733 -51.647  1.00  0.00     0.009 A 
HETATM   24  C   UNL     1     -39.561  49.624 -52.497  1.00  0.00     0.001 A 
HETATM   25  C   UNL     1     -39.770  49.784 -53.865  1.00  0.00     0.000 A 
HETATM   26  C   UNL     1     -40.021  51.051 -54.387  1.00  0.00     0.001 A 
HETATM   27  C   UNL     1     -40.062  52.159 -53.538  1.00  0.00     0.009 A 
ENDBRANCH  21  22
ENDBRANCH  17  21
ENDBRANCH   1  15
TORSDOF 5
ENDMDL
MODEL 3
REMARK VINA RESULT:      -7.9      4.701      8.122
REMARK  5 active torsions:
REMARK  status: ('A' for Active; 'I' for Inactive)
REMARK    1  A    between atoms: N_3  and  C_4 
REMARK    2  A    between atoms: C_12  and  C_13 
REMARK    3  A    between atoms: C_13  and  N_14 
REMARK       I    between atoms: N_14  and  C_15 
REMARK       I    between atoms: C_15  and  N_16 
REMARK    4  A    between atoms: N_16  and  C_17 
REMARK    5  A    between atoms: C_17  and  C_18 
ROOT
HETATM    1  C   UNL     1     -42.957  58.271 -53.566  1.00  0.00     0.165 C 
ENDROOT
BRANCH   1   2
HETATM    2  C   UNL     1     -42.762  56.866 -53.085  1.00  0.00    -0.016 A 
HETATM    3  C   UNL     1     -41.759  55.975 -53.456  1.00  0.00     0.021 A 
HETATM    4  N   UNL     1     -41.964  54.766 -52.790  1.00  0.00    -0.319 N 
HETATM    5  C   UNL     1     -40.586  56.251 -54.344  1.00  0.00     0.069 C 
HETATM    6  C   UNL     1     -43.066  54.922 -51.954  1.00  0.00     0.014 A 
HETATM    7  C   UNL     1     -43.655  53.844 -51.108  1.00  0.00     0.068 C 
HETATM    8  C   UNL     1     -43.562  56.199 -52.129  1.00  0.00     0.035 A 
BRANCH   4   9
HETATM    9  C   UNL     1     -41.196  53.576 -52.957  1.00  0.00     0.039 A 
HETATM   10  C   UNL     1     -41.335  52.811 -54.123  1.00  0.00     0.030 A 
HETATM   11  C   UNL     1     -40.591  51.641 -54.283  1.00  0.00     0.002 A 
HETATM   12  C   UNL     1     -39.705  51.232 -53.288  1.00  0.00     0.000 A 
HETATM   13  C   UNL     1     -39.562  51.992 -52.128  1.00  0.00     0.002 A 
HETATM   14  C   UNL     1     -40.307  53.162 -51.959  1.00  0.00     0.030 A 
ENDBRANCH   4   9
ENDBRANCH   1   2
BRANCH   1  15
HETATM   15  N   UNL     1     -43.899  58.243 -54.662  1.00  0.00    -0.339 N 
HETATM   16  C   UNL     1     -43.491  58.444 -55.950  1.00  0.00     0.316 C 
HETATM   17  N   UNL     1     -44.490  58.161 -56.841  1.00  0.00    -0.339 N 
HETATM   18  O   UNL     1     -42.366  58.799 -56.272  1.00  0.00    -0.247 OA
HETATM   19  H   UNL     1     -45.434  58.310 -56.517  1.00  0.00     0.164 HD
HETATM   20  H   UNL     1     -44.739  57.704 -54.523  1.00  0.00     0.164 HD
BRANCH  17  21
HETATM   21  C   UNL     1     -44.259  58.303 -58.261  1.00  0.00     0.162 C 
BRANCH  21  22
HETATM   22  C   UNL     1     -44.585  57.035 -59.009  1.00  0.00    -0.040 A 
HETATM   23  C   UNL     1     -45.659  57.000 -59.910  1.00  0.00     0.009 A 
HETATM   24  C   UNL     1     -45.932  55.843 -60.643  1.00  0.00     0.001 A 
HETATM   25  C   UNL     1     -45.133  54.711 -60.489  1.00  0.00     0.000 A 
HETATM   26  C   UNL     1     -44.056  54.736 -59.607  1.00  0.00     0.001 A 
HETATM   27  C   UNL     1     -43.777  55.894 -58.877  1.00  0.00     0.009 A 
ENDBRANCH  21  22
ENDBRANCH  17  21
ENDBRANCH   1  15
TORSDOF 5
ENDMDL
MODEL 4
REMARK VINA RESULT:      -7.8      5.176      8.712
REMARK  5 active torsions:
REMARK  status: ('A' for Active; 'I' for Inactive)
REMARK    1  A    between atoms: N_3  and  C_4 
REMARK    2  A    between atoms: C_12  and  C_13 
REMARK    3  A    between atoms: C_13  and  N_14 
REMARK       I    between atoms: N_14  and  C_15 
REMARK       I    between atoms: C_15  and  N_16 
REMARK    4  A    between atoms: N_16  and  C_17 
REMARK    5  A    between atoms: C_17  and  C_18 
ROOT
HETATM    1  C   UNL     1     -42.133  59.069 -54.611  1.00  0.00     0.165 C 
ENDROOT
BRANCH   1   2
HETATM    2  C   UNL     1     -42.498  58.769 -56.033  1.00  0.00    -0.016 A 
HETATM    3  C   UNL     1     -43.453  57.865 -56.489  1.00  0.00     0.021 A 
HETATM    4  N   UNL     1     -43.453  57.879 -57.885  1.00  0.00    -0.319 N 
HETATM    5  C   UNL     1     -44.407  57.060 -55.662  1.00  0.00     0.069 C 
HETATM    6  C   UNL     1     -42.535  58.840 -58.301  1.00  0.00     0.014 A 
HETATM    7  C   UNL     1     -42.189  59.130 -59.722  1.00  0.00     0.068 C 
HETATM    8  C   UNL     1     -41.945  59.386 -57.178  1.00  0.00     0.035 A 
BRANCH   4   9
HETATM    9  C   UNL     1     -44.236  57.041 -58.732  1.00  0.00     0.039 A 
HETATM   10  C   UNL     1     -45.514  57.451 -59.136  1.00  0.00     0.030 A 
HETATM   11  C   UNL     1     -46.285  56.628 -59.957  1.00  0.00     0.002 A 
HETATM   12  C   UNL     1     -45.787  55.397 -60.381  1.00  0.00     0.000 A 
HETATM   13  C   UNL     1     -44.515  54.986 -59.984  1.00  0.00     0.002 A 
HETATM   14  C   UNL     1     -43.739  55.804 -59.158  1.00  0.00     0.030 A 
ENDBRANCH   4   9
ENDBRANCH   1   2
BRANCH   1  15
HETATM   15  N   UNL     1     -41.310  57.986 -54.122  1.00  0.00    -0.339 N 
HETATM   16  C   UNL     1     -41.777  57.115 -53.179  1.00  0.00     0.316 C 
HETATM   17  N   UNL     1     -40.931  56.050 -53.020  1.00  0.00    -0.339 N 
HETATM   18  O   UNL     1     -42.832  57.246 -52.577  1.00  0.00    -0.247 OA
HETATM   19  H   UNL     1     -39.953  56.226 -53.192  1.00  0.00     0.164 HD
HETATM   20  H   UNL     1     -40.584  57.656 -54.737  1.00  0.00     0.164 HD
BRANCH  17  21
HETATM   21  C   UNL     1     -41.248  55.006 -52.072  1.00  0.00     0.162 C 
BRANCH  21  22
HETATM   22  C   UNL     1     -40.709  53.669 -52.513  1.00  0.00    -0.040 A 
HETATM   23  C   UNL     1     -40.866  53.245 -53.840  1.00  0.00     0.009 A 
HETATM   24  C   UNL     1     -40.324  52.029 -54.264  1.00  0.00     0.001 A 
HETATM   25  C   UNL     1     -39.617  51.227 -53.371  1.00  0.00     0.000 A 
HETATM   26  C   UNL     1     -39.444  51.642 -52.052  1.00  0.00     0.001 A 
HETATM   27  C   UNL     1     -39.979  52.860 -51.627  1.00  0.00     0.009 A 
ENDBRANCH  21  22
ENDBRANCH  17  21
ENDBRANCH   1  15
TORSDOF 5
ENDMDL
MODEL 5
REMARK VINA RESULT:      -7.8      6.625     10.177
REMARK  5 active torsions:
REMARK  status: ('A' for Active; 'I' for Inactive)
REMARK    1  A    between atoms: N_3  and  C_4 
REMARK    2  A    between atoms: C_12  and  C_13 
REMARK    3  A    between atoms: C_13  and  N_14 
REMARK       I    between atoms: N_14  and  C_15 
REMARK       I    between atoms: C_15  and  N_16 
REMARK    4  A    between atoms: N_16  and  C_17 
REMARK    5  A    between atoms: C_17  and  C_18 
ROOT
HETATM    1  C   UNL     1     -42.854  55.079 -56.735  1.00  0.00     0.165 C 
ENDROOT
BRANCH   1   2
HETATM    2  C   UNL     1     -42.833  56.490 -57.238  1.00  0.00    -0.016 A 
HETATM    3  C   UNL     1     -43.106  56.933 -58.529  1.00  0.00     0.021 A 
HETATM    4  N   UNL     1     -42.946  58.319 -58.571  1.00  0.00    -0.319 N 
HETATM    5  C   UNL     1     -43.584  56.113 -59.687  1.00  0.00     0.069 C 
HETATM    6  C   UNL     1     -42.630  58.750 -57.285  1.00  0.00     0.014 A 
HETATM    7  C   UNL     1     -42.320  60.160 -56.911  1.00  0.00     0.068 C 
HETATM    8  C   UNL     1     -42.555  57.641 -56.466  1.00  0.00     0.035 A 
BRANCH   4   9
HETATM    9  C   UNL     1     -43.062  59.142 -59.730  1.00  0.00     0.039 A 
HETATM   10  C   UNL     1     -41.922  59.465 -60.477  1.00  0.00     0.030 A 
HETATM   11  C   UNL     1     -42.032  60.278 -61.606  1.00  0.00     0.002 A 
HETATM   12  C   UNL     1     -43.277  60.767 -61.997  1.00  0.00     0.000 A 
HETATM   13  C   UNL     1     -44.415  60.445 -61.259  1.00  0.00     0.002 A 
HETATM   14  C   UNL     1     -44.311  59.635 -60.125  1.00  0.00     0.030 A 
ENDBRANCH   4   9
ENDBRANCH   1   2
BRANCH   1  15
HETATM   15  N   UNL     1     -41.650  54.860 -55.966  1.00  0.00    -0.339 N 
HETATM   16  C   UNL     1     -41.708  54.465 -54.660  1.00  0.00     0.316 C 
HETATM   17  N   UNL     1     -40.473  54.106 -54.190  1.00  0.00    -0.339 N 
HETATM   18  O   UNL     1     -42.735  54.405 -54.000  1.00  0.00    -0.247 OA
HETATM   19  H   UNL     1     -39.683  54.578 -54.604  1.00  0.00     0.164 HD
HETATM   20  H   UNL     1     -40.819  54.621 -56.485  1.00  0.00     0.164 HD
BRANCH  17  21
HETATM   21  C   UNL     1     -40.319  53.649 -52.828  1.00  0.00     0.162 C 
BRANCH  21  22
HETATM   22  C   UNL     1     -40.014  52.174 -52.764  1.00  0.00    -0.040 A 
HETATM   23  C   UNL     1     -39.751  51.557 -51.533  1.00  0.00     0.009 A 
HETATM   24  C   UNL     1     -39.519  50.182 -51.464  1.00  0.00     0.001 A 
HETATM   25  C   UNL     1     -39.553  49.407 -52.622  1.00  0.00     0.000 A 
HETATM   26  C   UNL     1     -39.825  50.004 -53.851  1.00  0.00     0.001 A 
HETATM   27  C   UNL     1     -40.064  51.378 -53.921  1.00  0.00     0.009 A 
ENDBRANCH  21  22
ENDBRANCH  17  21
ENDBRANCH   1  15
TORSDOF 5
ENDMDL
MODEL 6
REMARK VINA RESULT:      -7.7      4.274      8.185
REMARK  5 active torsions:
REMARK  status: ('A' for Active; 'I' for Inactive)
REMARK    1  A    between atoms: N_3  and  C_4 
REMARK    2  A    between atoms: C_12  and  C_13 
REMARK    3  A    between atoms: C_13  and  N_14 
REMARK       I    between atoms: N_14  and  C_15 
REMARK       I    between atoms: C_15  and  N_16 
REMARK    4  A    between atoms: N_16  and  C_17 
REMARK    5  A    between atoms: C_17  and  C_18 
ROOT
HETATM    1  C   UNL     1     -42.891  58.446 -52.509  1.00  0.00     0.165 C 
ENDROOT
BRANCH   1   2
HETATM    2  C   UNL     1     -42.895  58.482 -54.007  1.00  0.00    -0.016 A 
HETATM    3  C   UNL     1     -43.604  57.653 -54.872  1.00  0.00     0.021 A 
HETATM    4  N   UNL     1     -43.300  58.013 -56.186  1.00  0.00    -0.319 N 
HETATM    5  C   UNL     1     -44.604  56.602 -54.504  1.00  0.00     0.069 C 
HETATM    6  C   UNL     1     -42.444  59.110 -56.140  1.00  0.00     0.014 A 
HETATM    7  C   UNL     1     -41.835  59.767 -57.333  1.00  0.00     0.068 C 
HETATM    8  C   UNL     1     -42.189  59.402 -54.815  1.00  0.00     0.035 A 
BRANCH   4   9
HETATM    9  C   UNL     1     -43.765  57.357 -57.363  1.00  0.00     0.039 A 
HETATM   10  C   UNL     1     -43.083  56.236 -57.857  1.00  0.00     0.030 A 
HETATM   11  C   UNL     1     -43.531  55.598 -59.014  1.00  0.00     0.002 A 
HETATM   12  C   UNL     1     -44.661  56.070 -59.681  1.00  0.00     0.000 A 
HETATM   13  C   UNL     1     -45.344  57.183 -59.192  1.00  0.00     0.002 A 
HETATM   14  C   UNL     1     -44.898  57.828 -58.036  1.00  0.00     0.030 A 
ENDBRANCH   4   9
ENDBRANCH   1   2
BRANCH   1  15
HETATM   15  N   UNL     1     -41.833  57.557 -52.085  1.00  0.00    -0.339 N 
HETATM   16  C   UNL     1     -42.110  56.321 -51.575  1.00  0.00     0.316 C 
HETATM   17  N   UNL     1     -40.975  55.568 -51.444  1.00  0.00    -0.339 N 
HETATM   18  O   UNL     1     -43.232  55.920 -51.303  1.00  0.00    -0.247 OA
HETATM   19  H   UNL     1     -40.120  56.074 -51.267  1.00  0.00     0.164 HD
HETATM   20  H   UNL     1     -40.932  57.687 -52.519  1.00  0.00     0.164 HD
BRANCH  17  21
HETATM   21  C   UNL     1     -41.052  54.220 -50.928  1.00  0.00     0.162 C 
BRANCH  21  22
HETATM   22  C   UNL     1     -40.591  53.205 -51.943  1.00  0.00    -0.040 A 
HETATM   23  C   UNL     1     -39.822  52.103 -51.544  1.00  0.00     0.009 A 
HETATM   24  C   UNL     1     -39.437  51.134 -52.473  1.00  0.00     0.001 A 
HETATM   25  C   UNL     1     -39.818  51.252 -53.808  1.00  0.00     0.000 A 
HETATM   26  C   UNL     1     -40.592  52.336 -54.217  1.00  0.00     0.001 A 
HETATM   27  C   UNL     1     -40.984  53.303 -53.288  1.00  0.00     0.009 A 
ENDBRANCH  21  22
ENDBRANCH  17  21
ENDBRANCH   1  15
TORSDOF 5
ENDMDL
MODEL 7
REMARK VINA RESULT:      -7.7      5.548      9.740
REMARK  5 active torsions:
REMARK  status: ('A' for Active; 'I' for Inactive)
REMARK    1  A    between atoms: N_3  and  C_4 
REMARK    2  A    between atoms: C_12  and  C_13 
REMARK    3  A    between atoms: C_13  and  N_14 
REMARK       I    between atoms: N_14  and  C_15 
REMARK       I    between atoms: C_15  and  N_16 
REMARK    4  A    between atoms: N_16  and  C_17 
REMARK    5  A    between atoms: C_17  and  C_18 
ROOT
HETATM    1  C   UNL     1     -43.349  57.091 -54.361  1.00  0.00     0.165 C 
ENDROOT
BRANCH   1   2
HETATM    2  C   UNL     1     -43.576  57.071 -55.841  1.00  0.00    -0.016 A 
HETATM    3  C   UNL     1     -44.509  57.808 -56.565  1.00  0.00     0.021 A 
HETATM    4  N   UNL     1     -44.400  57.467 -57.914  1.00  0.00    -0.319 N 
HETATM    5  C   UNL     1     -45.430  58.865 -56.042  1.00  0.00     0.069 C 
HETATM    6  C   UNL     1     -43.354  56.558 -58.041  1.00  0.00     0.014 A 
HETATM    7  C   UNL     1     -42.946  55.899 -59.315  1.00  0.00     0.068 C 
HETATM    8  C   UNL     1     -42.847  56.307 -56.781  1.00  0.00     0.035 A 
BRANCH   4   9
HETATM    9  C   UNL     1     -45.230  57.948 -58.969  1.00  0.00     0.039 A 
HETATM   10  C   UNL     1     -44.880  59.116 -59.660  1.00  0.00     0.030 A 
HETATM   11  C   UNL     1     -45.696  59.594 -60.686  1.00  0.00     0.002 A 
HETATM   12  C   UNL     1     -46.859  58.908 -61.032  1.00  0.00     0.000 A 
HETATM   13  C   UNL     1     -47.210  57.744 -60.350  1.00  0.00     0.002 A 
HETATM   14  C   UNL     1     -46.400  57.263 -59.318  1.00  0.00     0.030 A 
ENDBRANCH   4   9
ENDBRANCH   1   2
BRANCH   1  15
HETATM   15  N   UNL     1     -42.978  55.756 -53.946  1.00  0.00    -0.339 N 
HETATM   16  C   UNL     1     -41.751  55.500 -53.404  1.00  0.00     0.316 C 
HETATM   17  N   UNL     1     -41.688  54.235 -52.885  1.00  0.00    -0.339 N 
HETATM   18  O   UNL     1     -40.834  56.307 -53.355  1.00  0.00    -0.247 OA
HETATM   19  H   UNL     1     -42.265  53.539 -53.333  1.00  0.00     0.164 HD
HETATM   20  H   UNL     1     -43.731  55.133 -53.700  1.00  0.00     0.164 HD
BRANCH  17  21
HETATM   21  C   UNL     1     -40.474  53.768 -52.256  1.00  0.00     0.162 C 
BRANCH  21  22
HETATM   22  C   UNL     1     -40.150  52.349 -52.651  1.00  0.00    -0.040 A 
HETATM   23  C   UNL     1     -39.719  51.426 -51.687  1.00  0.00     0.009 A 
HETATM   24  C   UNL     1     -39.468  50.098 -52.039  1.00  0.00     0.001 A 
HETATM   25  C   UNL     1     -39.649  49.676 -53.355  1.00  0.00     0.000 A 
HETATM   26  C   UNL     1     -40.089  50.579 -54.320  1.00  0.00     0.001 A 
HETATM   27  C   UNL     1     -40.347  51.906 -53.969  1.00  0.00     0.009 A 
ENDBRANCH  21  22
ENDBRANCH  17  21
ENDBRANCH   1  15
TORSDOF 5
ENDMDL
MODEL 8
REMARK VINA RESULT:      -7.7     18.227     20.231
REMARK  5 active torsions:
REMARK  status: ('A' for Active; 'I' for Inactive)
REMARK    1  A    between atoms: N_3  and  C_4 
REMARK    2  A    between atoms: C_12  and  C_13 
REMARK    3  A    between atoms: C_13  and  N_14 
REMARK       I    between atoms: N_14  and  C_15 
REMARK       I    between atoms: C_15  and  N_16 
REMARK    4  A    between atoms: N_16  and  C_17 
REMARK    5  A    between atoms: C_17  and  C_18 
ROOT
HETATM    1  C   UNL     1     -35.286  42.553 -56.567  1.00  0.00     0.165 C 
ENDROOT
BRANCH   1   2
HETATM    2  C   UNL     1     -35.604  41.309 -57.338  1.00  0.00    -0.016 A 
HETATM    3  C   UNL     1     -36.482  41.177 -58.410  1.00  0.00     0.021 A 
HETATM    4  N   UNL     1     -36.498  39.842 -58.815  1.00  0.00    -0.319 N 
HETATM    5  C   UNL     1     -37.233  42.270 -59.105  1.00  0.00     0.069 C 
HETATM    6  C   UNL     1     -35.581  39.148 -58.031  1.00  0.00     0.014 A 
HETATM    7  C   UNL     1     -35.336  37.678 -58.104  1.00  0.00     0.068 C 
HETATM    8  C   UNL     1     -35.033  40.033 -57.124  1.00  0.00     0.035 A 
BRANCH   4   9
HETATM    9  C   UNL     1     -37.326  39.285 -59.834  1.00  0.00     0.039 A 
HETATM   10  C   UNL     1     -38.588  38.771 -59.509  1.00  0.00     0.030 A 
HETATM   11  C   UNL     1     -39.396  38.218 -60.504  1.00  0.00     0.002 A 
HETATM   12  C   UNL     1     -38.952  38.178 -61.824  1.00  0.00     0.000 A 
HETATM   13  C   UNL     1     -37.698  38.691 -62.153  1.00  0.00     0.002 A 
HETATM   14  C   UNL     1     -36.883  39.243 -61.161  1.00  0.00     0.030 A 
ENDBRANCH   4   9
ENDBRANCH   1   2
BRANCH   1  15
HETATM   15  N   UNL     1     -34.616  42.165 -55.346  1.00  0.00    -0.339 N 
HETATM   16  C   UNL     1     -35.282  42.129 -54.154  1.00  0.00     0.316 C 
HETATM   17  N   UNL     1     -34.530  41.532 -53.179  1.00  0.00    -0.339 N 
HETATM   18  O   UNL     1     -36.419  42.545 -53.985  1.00  0.00    -0.247 OA
HETATM   19  H   UNL     1     -33.529  41.627 -53.265  1.00  0.00     0.164 HD
HETATM   20  H   UNL     1     -33.810  41.567 -55.443  1.00  0.00     0.164 HD
BRANCH  17  21
HETATM   21  C   UNL     1     -35.058  41.388 -51.841  1.00  0.00     0.162 C 
BRANCH  21  22
HETATM   22  C   UNL     1     -34.179  40.512 -50.985  1.00  0.00    -0.040 A 
HETATM   23  C   UNL     1     -32.786  40.671 -51.004  1.00  0.00     0.009 A 
HETATM   24  C   UNL     1     -31.972  39.896 -50.174  1.00  0.00     0.001 A 
HETATM   25  C   UNL     1     -32.540  38.958 -49.314  1.00  0.00     0.000 A 
HETATM   26  C   UNL     1     -33.923  38.797 -49.277  1.00  0.00     0.001 A 
HETATM   27  C   UNL     1     -34.739  39.576 -50.101  1.00  0.00     0.009 A 
ENDBRANCH  21  22
ENDBRANCH  17  21
ENDBRANCH   1  15
TORSDOF 5
ENDMDL
MODEL 9
REMARK VINA RESULT:      -7.6      6.462     10.180
REMARK  5 active torsions:
REMARK  status: ('A' for Active; 'I' for Inactive)
REMARK    1  A    between atoms: N_3  and  C_4 
REMARK    2  A    between atoms: C_12  and  C_13 
REMARK    3  A    between atoms: C_13  and  N_14 
REMARK       I    between atoms: N_14  and  C_15 
REMARK       I    between atoms: C_15  and  N_16 
REMARK    4  A    between atoms: N_16  and  C_17 
REMARK    5  A    between atoms: C_17  and  C_18 
ROOT
HETATM    1  C   UNL     1     -42.441  57.490 -57.530  1.00  0.00     0.165 C 
ENDROOT
BRANCH   1   2
HETATM    2  C   UNL     1     -43.872  57.658 -57.938  1.00  0.00    -0.016 A 
HETATM    3  C   UNL     1     -44.418  57.473 -59.205  1.00  0.00     0.021 A 
HETATM    4  N   UNL     1     -45.783  57.760 -59.151  1.00  0.00    -0.319 N 
HETATM    5  C   UNL     1     -43.720  56.964 -60.427  1.00  0.00     0.069 C 
HETATM    6  C   UNL     1     -46.101  58.068 -57.831  1.00  0.00     0.014 A 
HETATM    7  C   UNL     1     -47.450  58.491 -57.356  1.00  0.00     0.068 C 
HETATM    8  C   UNL     1     -44.941  58.012 -57.084  1.00  0.00     0.035 A 
BRANCH   4   9
HETATM    9  C   UNL     1     -46.684  57.761 -60.256  1.00  0.00     0.039 A 
HETATM   10  C   UNL     1     -47.045  58.970 -60.865  1.00  0.00     0.030 A 
HETATM   11  C   UNL     1     -47.934  58.974 -61.941  1.00  0.00     0.002 A 
HETATM   12  C   UNL     1     -48.462  57.775 -62.417  1.00  0.00     0.000 A 
HETATM   13  C   UNL     1     -48.103  56.569 -61.817  1.00  0.00     0.002 A 
HETATM   14  C   UNL     1     -47.216  56.559 -60.736  1.00  0.00     0.030 A 
ENDBRANCH   4   9
ENDBRANCH   1   2
BRANCH   1  15
HETATM   15  N   UNL     1     -42.299  56.189 -56.917  1.00  0.00    -0.339 N 
HETATM   16  C   UNL     1     -42.375  56.034 -55.561  1.00  0.00     0.316 C 
HETATM   17  N   UNL     1     -42.435  54.712 -55.211  1.00  0.00    -0.339 N 
HETATM   18  O   UNL     1     -42.419  56.957 -54.761  1.00  0.00    -0.247 OA
HETATM   19  H   UNL     1     -41.969  54.065 -55.829  1.00  0.00     0.164 HD
HETATM   20  H   UNL     1     -42.536  55.392 -57.486  1.00  0.00     0.164 HD
BRANCH  17  21
HETATM   21  C   UNL     1     -42.527  54.333 -53.820  1.00  0.00     0.162 C 
BRANCH  21  22
HETATM   22  C   UNL     1     -41.426  53.380 -53.427  1.00  0.00    -0.040 A 
HETATM   23  C   UNL     1     -40.878  53.424 -52.137  1.00  0.00     0.009 A 
HETATM   24  C   UNL     1     -39.894  52.510 -51.753  1.00  0.00     0.001 A 
HETATM   25  C   UNL     1     -39.451  51.540 -52.650  1.00  0.00     0.000 A 
HETATM   26  C   UNL     1     -39.996  51.477 -53.930  1.00  0.00     0.001 A 
HETATM   27  C   UNL     1     -40.984  52.386 -54.314  1.00  0.00     0.009 A 
ENDBRANCH  21  22
ENDBRANCH  17  21
ENDBRANCH   1  15
TORSDOF 5
ENDMDL
MODEL 10
REMARK VINA RESULT:      -7.5      1.207      2.262
REMARK  5 active torsions:
REMARK  status: ('A' for Active; 'I' for Inactive)
REMARK    1  A    between atoms: N_3  and  C_4 
REMARK    2  A    between atoms: C_12  and  C_13 
REMARK    3  A    between atoms: C_13  and  N_14 
REMARK       I    between atoms: N_14  and  C_15 
REMARK       I    between atoms: C_15  and  N_16 
REMARK    4  A    between atoms: N_16  and  C_17 
REMARK    5  A    between atoms: C_17  and  C_18 
ROOT
HETATM    1  C   UNL     1     -43.189  58.947 -51.616  1.00  0.00     0.165 C 
ENDROOT
BRANCH   1   2
HETATM    2  C   UNL     1     -43.066  57.454 -51.622  1.00  0.00    -0.016 A 
HETATM    3  C   UNL     1     -42.107  56.685 -52.275  1.00  0.00     0.021 A 
HETATM    4  N   UNL     1     -42.375  55.337 -52.037  1.00  0.00    -0.319 N 
HETATM    5  C   UNL     1     -40.917  57.178 -53.038  1.00  0.00     0.069 C 
HETATM    6  C   UNL     1     -43.472  55.265 -51.182  1.00  0.00     0.014 A 
HETATM    7  C   UNL     1     -44.117  53.999 -50.728  1.00  0.00     0.068 C 
HETATM    8  C   UNL     1     -43.903  56.552 -50.926  1.00  0.00     0.035 A 
BRANCH   4   9
HETATM    9  C   UNL     1     -41.666  54.231 -52.591  1.00  0.00     0.039 A 
HETATM   10  C   UNL     1     -40.661  53.598 -51.847  1.00  0.00     0.030 A 
HETATM   11  C   UNL     1     -39.960  52.521 -52.391  1.00  0.00     0.002 A 
HETATM   12  C   UNL     1     -40.259  52.069 -53.675  1.00  0.00     0.000 A 
HETATM   13  C   UNL     1     -41.260  52.693 -54.418  1.00  0.00     0.002 A 
HETATM   14  C   UNL     1     -41.963  53.774 -53.880  1.00  0.00     0.030 A 
ENDBRANCH   4   9
ENDBRANCH   1   2
BRANCH   1  15
HETATM   15  N   UNL     1     -44.194  59.310 -50.644  1.00  0.00    -0.339 N 
HETATM   16  C   UNL     1     -44.337  60.602 -50.224  1.00  0.00     0.316 C 
HETATM   17  N   UNL     1     -45.474  60.764 -49.479  1.00  0.00    -0.339 N 
HETATM   18  O   UNL     1     -43.568  61.510 -50.505  1.00  0.00    -0.247 OA
HETATM   19  H   UNL     1     -45.780  59.961 -48.951  1.00  0.00     0.164 HD
HETATM   20  H   UNL     1     -45.004  58.714 -50.586  1.00  0.00     0.164 HD
BRANCH  17  21
HETATM   21  C   UNL     1     -45.814  62.063 -48.945  1.00  0.00     0.162 C 
BRANCH  21  22
HETATM   22  C   UNL     1     -45.417  62.192 -47.496  1.00  0.00    -0.040 A 
HETATM   23  C   UNL     1     -45.455  63.440 -46.859  1.00  0.00     0.009 A 
HETATM   24  C   UNL     1     -45.137  63.556 -45.504  1.00  0.00     0.001 A 
HETATM   25  C   UNL     1     -44.783  62.426 -44.769  1.00  0.00     0.000 A 
HETATM   26  C   UNL     1     -44.754  61.177 -45.386  1.00  0.00     0.001 A 
HETATM   27  C   UNL     1     -45.077  61.059 -46.739  1.00  0.00     0.009 A 
ENDBRANCH  21  22
ENDBRANCH  17  21
ENDBRANCH   1  15
TORSDOF 5
ENDMDL
