MODEL 1
REMARK VINA RESULT:      -8.8      0.000      0.000
REMARK  5 active torsions:
REMARK  status: ('A' for Active; 'I' for Inactive)
REMARK    1  A    between atoms: C_2  and  C_3 
REMARK    2  A    between atoms: C_2  and  C_9 
REMARK    3  A    between atoms: C_9  and  C_10 
REMARK       I    between atoms: C_10  and  N_11 
REMARK    4  A    between atoms: N_11  and  C_12 
REMARK    5  A    between atoms: C_19  and  C_20 
REMARK       I    between atoms: C_20  and  N_21 
ROOT
HETATM    1  C   UNL     1     -42.505  56.494 -56.770  1.00  0.00     0.035 A 
HETATM    2  C   UNL     1     -43.135  55.811 -57.819  1.00  0.00     0.046 A 
HETATM    3  C   UNL     1     -44.036  56.501 -58.660  1.00  0.00     0.030 A 
HETATM    4  C   UNL     1     -44.281  57.848 -58.418  1.00  0.00     0.063 A 
HETATM    5  N   UNL     1     -45.188  58.227 -59.368  1.00  0.00    -0.277 N 
HETATM    6  H   UNL     1     -45.600  59.145 -59.491  1.00  0.00     0.189 HD
HETATM    7  N   UNL     1     -45.547  57.251 -60.218  1.00  0.00    -0.168 NA
HETATM    8  C   UNL     1     -44.838  56.178 -59.797  1.00  0.00     0.156 A 
HETATM    9  C   UNL     1     -43.666  58.561 -57.389  1.00  0.00     0.034 A 
HETATM   10  C   UNL     1     -42.768  57.857 -56.576  1.00  0.00     0.032 A 
ENDROOT
BRANCH   1  11
HETATM   11  N   UNL     1     -41.573  55.893 -55.893  1.00  0.00    -0.327 N 
HETATM   12  C   UNL     1     -41.810  55.426 -54.616  1.00  0.00     0.222 C 
HETATM   13  O   UNL     1     -42.870  55.523 -54.003  1.00  0.00    -0.273 OA
HETATM   14  H   UNL     1     -40.613  55.918 -56.202  1.00  0.00     0.169 HD
BRANCH  12  15
HETATM   15  C   UNL     1     -40.661  54.647 -53.986  1.00  0.00     0.112 C 
BRANCH  15  16
HETATM   16  C   UNL     1     -40.988  53.684 -52.833  1.00  0.00     0.023 C 
HETATM   17  C   UNL     1     -40.497  54.278 -51.507  1.00  0.00     0.015 C 
BRANCH  16  18
HETATM   18  C   UNL     1     -40.439  52.277 -52.991  1.00  0.00    -0.054 A 
HETATM   19  C   UNL     1     -39.888  51.565 -51.915  1.00  0.00     0.007 A 
HETATM   20  C   UNL     1     -39.407  50.267 -52.094  1.00  0.00     0.001 A 
HETATM   21  C   UNL     1     -39.477  49.658 -53.344  1.00  0.00     0.000 A 
HETATM   22  C   UNL     1     -40.031  50.347 -54.420  1.00  0.00     0.001 A 
HETATM   23  C   UNL     1     -40.512  51.645 -54.244  1.00  0.00     0.007 A 
ENDBRANCH  16  18
ENDBRANCH  15  16
ENDBRANCH  12  15
ENDBRANCH   1  11
BRANCH   8  24
HETATM   24  C   UNL     1     -44.935  54.885 -60.488  1.00  0.00     0.270 C 
HETATM   25  N   UNL     1     -45.108  53.816 -59.652  1.00  0.00    -0.365 N 
HETATM   26  H   UNL     1     -45.165  53.985 -58.654  1.00  0.00     0.159 HD
HETATM   27  H   UNL     1     -45.196  52.890 -60.038  1.00  0.00     0.159 HD
HETATM   28  O   UNL     1     -44.881  54.734 -61.704  1.00  0.00    -0.266 OA
ENDBRANCH   8  24
TORSDOF 5
ENDMDL
MODEL 2
REMARK VINA RESULT:      -8.4      4.507      6.337
REMARK  5 active torsions:
REMARK  status: ('A' for Active; 'I' for Inactive)
REMARK    1  A    between atoms: C_2  and  C_3 
REMARK    2  A    between atoms: C_2  and  C_9 
REMARK    3  A    between atoms: C_9  and  C_10 
REMARK       I    between atoms: C_10  and  N_11 
REMARK    4  A    between atoms: N_11  and  C_12 
REMARK    5  A    between atoms: C_19  and  C_20 
REMARK       I    between atoms: C_20  and  N_21 
ROOT
HETATM    1  C   UNL     1     -42.268  57.385 -52.527  1.00  0.00     0.035 A 
HETATM    2  C   UNL     1     -43.292  57.865 -51.699  1.00  0.00     0.046 A 
HETATM    3  C   UNL     1     -43.426  59.256 -51.490  1.00  0.00     0.030 A 
HETATM    4  C   UNL     1     -42.529  60.117 -52.109  1.00  0.00     0.063 A 
HETATM    5  N   UNL     1     -42.899  61.372 -51.712  1.00  0.00    -0.277 N 
HETATM    6  H   UNL     1     -42.460  62.249 -51.967  1.00  0.00     0.189 HD
HETATM    7  N   UNL     1     -43.966  61.408 -50.899  1.00  0.00    -0.168 NA
HETATM    8  C   UNL     1     -44.309  60.106 -50.757  1.00  0.00     0.156 A 
HETATM    9  C   UNL     1     -41.504  59.675 -52.946  1.00  0.00     0.034 A 
HETATM   10  C   UNL     1     -41.398  58.293 -53.147  1.00  0.00     0.032 A 
ENDROOT
BRANCH   1  11
HETATM   11  N   UNL     1     -42.070  56.015 -52.813  1.00  0.00    -0.327 N 
HETATM   12  C   UNL     1     -42.829  55.217 -53.644  1.00  0.00     0.222 C 
HETATM   13  O   UNL     1     -43.856  55.560 -54.224  1.00  0.00    -0.273 OA
HETATM   14  H   UNL     1     -41.364  55.557 -52.255  1.00  0.00     0.169 HD
BRANCH  12  15
HETATM   15  C   UNL     1     -42.257  53.830 -53.913  1.00  0.00     0.112 C 
BRANCH  15  16
HETATM   16  C   UNL     1     -40.736  53.641 -53.797  1.00  0.00     0.023 C 
HETATM   17  C   UNL     1     -40.064  54.024 -55.122  1.00  0.00     0.015 C 
BRANCH  16  18
HETATM   18  C   UNL     1     -40.286  52.250 -53.385  1.00  0.00    -0.054 A 
HETATM   19  C   UNL     1     -39.903  51.949 -52.070  1.00  0.00     0.007 A 
HETATM   20  C   UNL     1     -39.510  50.654 -51.724  1.00  0.00     0.001 A 
HETATM   21  C   UNL     1     -39.504  49.643 -52.682  1.00  0.00     0.000 A 
HETATM   22  C   UNL     1     -39.892  49.924 -53.988  1.00  0.00     0.001 A 
HETATM   23  C   UNL     1     -40.284  51.217 -54.337  1.00  0.00     0.007 A 
ENDBRANCH  16  18
ENDBRANCH  15  16
ENDBRANCH  12  15
ENDBRANCH   1  11
BRANCH   8  24
HETATM   24  C   UNL     1     -45.464  59.711 -49.939  1.00  0.00     0.270 C 
HETATM   25  N   UNL     1     -45.454  60.228 -48.672  1.00  0.00    -0.365 N 
HETATM   26  H   UNL     1     -44.687  60.831 -48.400  1.00  0.00     0.159 HD
HETATM   27  H   UNL     1     -46.212  60.019 -48.042  1.00  0.00     0.159 HD
HETATM   28  O   UNL     1     -46.381  58.991 -50.321  1.00  0.00    -0.266 OA
ENDBRANCH   8  24
TORSDOF 5
ENDMDL
MODEL 3
REMARK VINA RESULT:      -8.3      1.844      2.292
REMARK  5 active torsions:
REMARK  status: ('A' for Active; 'I' for Inactive)
REMARK    1  A    between atoms: C_2  and  C_3 
REMARK    2  A    between atoms: C_2  and  C_9 
REMARK    3  A    between atoms: C_9  and  C_10 
REMARK       I    between atoms: C_10  and  N_11 
REMARK    4  A    between atoms: N_11  and  C_12 
REMARK    5  A    between atoms: C_19  and  C_20 
REMARK       I    between atoms: C_20  and  N_21 
ROOT
HETATM    1  C   UNL     1     -42.705  57.096 -55.346  1.00  0.00     0.035 A 
HETATM    2  C   UNL     1     -42.595  56.869 -56.725  1.00  0.00     0.046 A 
HETATM    3  C   UNL     1     -43.077  57.840 -57.632  1.00  0.00     0.030 A 
HETATM    4  C   UNL     1     -43.657  58.998 -57.129  1.00  0.00     0.063 A 
HETATM    5  N   UNL     1     -44.030  59.721 -58.227  1.00  0.00    -0.277 N 
HETATM    6  H   UNL     1     -44.492  60.624 -58.239  1.00  0.00     0.189 HD
HETATM    7  N   UNL     1     -43.733  59.145 -59.403  1.00  0.00    -0.168 NA
HETATM    8  C   UNL     1     -43.136  57.982 -59.052  1.00  0.00     0.156 A 
HETATM    9  C   UNL     1     -43.775  59.260 -55.764  1.00  0.00     0.034 A 
HETATM   10  C   UNL     1     -43.280  58.288 -54.885  1.00  0.00     0.032 A 
ENDROOT
BRANCH   1  11
HETATM   11  N   UNL     1     -42.233  56.195 -54.365  1.00  0.00    -0.327 N 
HETATM   12  C   UNL     1     -42.677  54.909 -54.129  1.00  0.00     0.222 C 
HETATM   13  O   UNL     1     -43.616  54.360 -54.699  1.00  0.00    -0.273 OA
HETATM   14  H   UNL     1     -41.581  56.585 -53.700  1.00  0.00     0.169 HD
BRANCH  12  15
HETATM   15  C   UNL     1     -41.843  54.106 -53.137  1.00  0.00     0.112 C 
BRANCH  15  16
HETATM   16  C   UNL     1     -40.455  53.622 -53.587  1.00  0.00     0.023 C 
HETATM   17  C   UNL     1     -40.277  53.883 -55.088  1.00  0.00     0.015 C 
BRANCH  16  18
HETATM   18  C   UNL     1     -40.151  52.164 -53.287  1.00  0.00    -0.054 A 
HETATM   19  C   UNL     1     -40.210  51.171 -54.276  1.00  0.00     0.007 A 
HETATM   20  C   UNL     1     -39.909  49.843 -53.968  1.00  0.00     0.001 A 
HETATM   21  C   UNL     1     -39.536  49.490 -52.673  1.00  0.00     0.000 A 
HETATM   22  C   UNL     1     -39.461  50.466 -51.684  1.00  0.00     0.001 A 
HETATM   23  C   UNL     1     -39.762  51.794 -51.989  1.00  0.00     0.007 A 
ENDBRANCH  16  18
ENDBRANCH  15  16
ENDBRANCH  12  15
ENDBRANCH   1  11
BRANCH   8  24
HETATM   24  C   UNL     1     -42.636  57.048 -60.070  1.00  0.00     0.270 C 
HETATM   25  N   UNL     1     -41.280  57.087 -60.245  1.00  0.00    -0.365 N 
HETATM   26  H   UNL     1     -40.735  57.725 -59.676  1.00  0.00     0.159 HD
HETATM   27  H   UNL     1     -40.845  56.473 -60.915  1.00  0.00     0.159 HD
HETATM   28  O   UNL     1     -43.336  56.279 -60.720  1.00  0.00    -0.266 OA
ENDBRANCH   8  24
TORSDOF 5
ENDMDL
MODEL 4
REMARK VINA RESULT:      -8.2      1.972      3.365
REMARK  5 active torsions:
REMARK  status: ('A' for Active; 'I' for Inactive)
REMARK    1  A    between atoms: C_2  and  C_3 
REMARK    2  A    between atoms: C_2  and  C_9 
REMARK    3  A    between atoms: C_9  and  C_10 
REMARK       I    between atoms: C_10  and  N_11 
REMARK    4  A    between atoms: N_11  and  C_12 
REMARK    5  A    between atoms: C_19  and  C_20 
REMARK       I    between atoms: C_20  and  N_21 
ROOT
HETATM    1  C   UNL     1     -42.724  55.104 -55.498  1.00  0.00     0.035 A 
HETATM    2  C   UNL     1     -42.641  55.385 -56.869  1.00  0.00     0.046 A 
HETATM    3  C   UNL     1     -43.138  56.613 -57.360  1.00  0.00     0.030 A 
HETATM    4  C   UNL     1     -43.706  57.513 -56.466  1.00  0.00     0.063 A 
HETATM    5  N   UNL     1     -44.099  58.578 -57.227  1.00  0.00    -0.277 N 
HETATM    6  H   UNL     1     -44.559  59.423 -56.906  1.00  0.00     0.189 HD
HETATM    7  N   UNL     1     -43.826  58.461 -58.536  1.00  0.00    -0.168 NA
HETATM    8  C   UNL     1     -43.225  57.253 -58.634  1.00  0.00     0.156 A 
HETATM    9  C   UNL     1     -43.797  57.269 -55.096  1.00  0.00     0.034 A 
HETATM   10  C   UNL     1     -43.287  56.050 -54.631  1.00  0.00     0.032 A 
ENDROOT
BRANCH   1  11
HETATM   11  N   UNL     1     -42.234  53.914 -54.913  1.00  0.00    -0.327 N 
HETATM   12  C   UNL     1     -40.916  53.578 -54.681  1.00  0.00     0.222 C 
HETATM   13  O   UNL     1     -39.938  54.242 -55.015  1.00  0.00    -0.273 OA
HETATM   14  H   UNL     1     -42.926  53.195 -54.758  1.00  0.00     0.169 HD
BRANCH  12  15
HETATM   15  C   UNL     1     -40.703  52.315 -53.854  1.00  0.00     0.112 C 
BRANCH  15  16
HETATM   16  C   UNL     1     -39.851  52.423 -52.578  1.00  0.00     0.023 C 
HETATM   17  C   UNL     1     -39.565  51.020 -52.028  1.00  0.00     0.015 C 
BRANCH  16  18
HETATM   18  C   UNL     1     -40.441  53.288 -51.478  1.00  0.00    -0.054 A 
HETATM   19  C   UNL     1     -41.803  53.622 -51.441  1.00  0.00     0.007 A 
HETATM   20  C   UNL     1     -42.314  54.407 -50.406  1.00  0.00     0.001 A 
HETATM   21  C   UNL     1     -41.476  54.860 -49.389  1.00  0.00     0.000 A 
HETATM   22  C   UNL     1     -40.125  54.527 -49.406  1.00  0.00     0.001 A 
HETATM   23  C   UNL     1     -39.611  53.744 -50.440  1.00  0.00     0.007 A 
ENDBRANCH  16  18
ENDBRANCH  15  16
ENDBRANCH  12  15
ENDBRANCH   1  11
BRANCH   8  24
HETATM   24  C   UNL     1     -42.747  56.746 -59.928  1.00  0.00     0.270 C 
HETATM   25  N   UNL     1     -41.438  57.043 -60.194  1.00  0.00    -0.365 N 
HETATM   26  H   UNL     1     -40.908  57.563 -59.504  1.00  0.00     0.159 HD
HETATM   27  H   UNL     1     -41.020  56.727 -61.055  1.00  0.00     0.159 HD
HETATM   28  O   UNL     1     -43.424  56.103 -60.723  1.00  0.00    -0.266 OA
ENDBRANCH   8  24
TORSDOF 5
ENDMDL
MODEL 5
REMARK VINA RESULT:      -8.2      4.214      5.927
REMARK  5 active torsions:
REMARK  status: ('A' for Active; 'I' for Inactive)
REMARK    1  A    between atoms: C_2  and  C_3 
REMARK    2  A    between atoms: C_2  and  C_9 
REMARK    3  A    between atoms: C_9  and  C_10 
REMARK       I    between atoms: C_10  and  N_11 
REMARK    4  A    between atoms: N_11  and  C_12 
REMARK    5  A    between atoms: C_19  and  C_20 
REMARK       I    between atoms: C_20  and  N_21 
ROOT
HETATM    1  C   UNL     1     -43.996  57.068 -53.311  1.00  0.00     0.035 A 
HETATM    2  C   UNL     1     -44.376  57.838 -52.203  1.00  0.00     0.046 A 
HETATM    3  C   UNL     1     -45.088  59.042 -52.402  1.00  0.00     0.030 A 
HETATM    4  C   UNL     1     -45.389  59.437 -53.700  1.00  0.00     0.063 A 
HETATM    5  N   UNL     1     -46.055  60.624 -53.571  1.00  0.00    -0.277 N 
HETATM    6  H   UNL     1     -46.422  61.204 -54.317  1.00  0.00     0.189 HD
HETATM    7  N   UNL     1     -46.230  61.032 -52.304  1.00  0.00    -0.168 NA
HETATM    8  C   UNL     1     -45.642  60.060 -51.567  1.00  0.00     0.156 A 
HETATM    9  C   UNL     1     -45.033  58.692 -54.824  1.00  0.00     0.034 A 
HETATM   10  C   UNL     1     -44.338  57.496 -54.601  1.00  0.00     0.032 A 
ENDROOT
BRANCH   1  11
HETATM   11  N   UNL     1     -43.303  55.841 -53.210  1.00  0.00    -0.327 N 
HETATM   12  C   UNL     1     -41.992  55.652 -52.822  1.00  0.00     0.222 C 
HETATM   13  O   UNL     1     -41.185  56.542 -52.567  1.00  0.00    -0.273 OA
HETATM   14  H   UNL     1     -43.795  55.036 -53.571  1.00  0.00     0.169 HD
BRANCH  12  15
HETATM   15  C   UNL     1     -41.578  54.199 -52.615  1.00  0.00     0.112 C 
BRANCH  15  16
HETATM   16  C   UNL     1     -40.403  53.658 -53.447  1.00  0.00     0.023 C 
HETATM   17  C   UNL     1     -40.656  53.928 -54.936  1.00  0.00     0.015 C 
BRANCH  16  18
HETATM   18  C   UNL     1     -40.094  52.185 -53.246  1.00  0.00    -0.054 A 
HETATM   19  C   UNL     1     -39.705  51.668 -52.001  1.00  0.00     0.007 A 
HETATM   20  C   UNL     1     -39.443  50.304 -51.849  1.00  0.00     0.001 A 
HETATM   21  C   UNL     1     -39.575  49.439 -52.932  1.00  0.00     0.000 A 
HETATM   22  C   UNL     1     -39.971  49.935 -54.170  1.00  0.00     0.001 A 
HETATM   23  C   UNL     1     -40.232  51.297 -54.326  1.00  0.00     0.007 A 
ENDBRANCH  16  18
ENDBRANCH  15  16
ENDBRANCH  12  15
ENDBRANCH   1  11
BRANCH   8  24
HETATM   24  C   UNL     1     -45.631  60.123 -50.100  1.00  0.00     0.270 C 
HETATM   25  N   UNL     1     -45.057  61.257 -49.594  1.00  0.00    -0.365 N 
HETATM   26  H   UNL     1     -44.702  61.952 -50.241  1.00  0.00     0.159 HD
HETATM   27  H   UNL     1     -45.014  61.392 -48.596  1.00  0.00     0.159 HD
HETATM   28  O   UNL     1     -46.092  59.262 -49.357  1.00  0.00    -0.266 OA
ENDBRANCH   8  24
TORSDOF 5
ENDMDL
MODEL 6
REMARK VINA RESULT:      -8.1      2.867      8.757
REMARK  5 active torsions:
REMARK  status: ('A' for Active; 'I' for Inactive)
REMARK    1  A    between atoms: C_2  and  C_3 
REMARK    2  A    between atoms: C_2  and  C_9 
REMARK    3  A    between atoms: C_9  and  C_10 
REMARK       I    between atoms: C_10  and  N_11 
REMARK    4  A    between atoms: N_11  and  C_12 
REMARK    5  A    between atoms: C_19  and  C_20 
REMARK       I    between atoms: C_20  and  N_21 
ROOT
HETATM    1  C   UNL     1     -40.942  54.536 -54.335  1.00  0.00     0.035 A 
HETATM    2  C   UNL     1     -41.157  54.674 -52.956  1.00  0.00     0.046 A 
HETATM    3  C   UNL     1     -40.745  53.645 -52.080  1.00  0.00     0.030 A 
HETATM    4  C   UNL     1     -40.140  52.513 -52.612  1.00  0.00     0.063 A 
HETATM    5  N   UNL     1     -39.873  51.708 -51.540  1.00  0.00    -0.277 N 
HETATM    6  H   UNL     1     -39.438  50.792 -51.554  1.00  0.00     0.189 HD
HETATM    7  N   UNL     1     -40.237  52.219 -50.354  1.00  0.00    -0.168 NA
HETATM    8  C   UNL     1     -40.772  53.422 -50.670  1.00  0.00     0.156 A 
HETATM    9  C   UNL     1     -39.904  52.346 -53.977  1.00  0.00     0.034 A 
HETATM   10  C   UNL     1     -40.311  53.385 -54.824  1.00  0.00     0.032 A 
ENDROOT
BRANCH   1  11
HETATM   11  N   UNL     1     -41.299  55.520 -55.284  1.00  0.00    -0.327 N 
HETATM   12  C   UNL     1     -42.389  55.507 -56.130  1.00  0.00     0.222 C 
HETATM   13  O   UNL     1     -43.198  54.590 -56.243  1.00  0.00    -0.273 OA
HETATM   14  H   UNL     1     -40.615  56.248 -55.428  1.00  0.00     0.169 HD
BRANCH  12  15
HETATM   15  C   UNL     1     -42.627  56.800 -56.904  1.00  0.00     0.112 C 
BRANCH  15  16
HETATM   16  C   UNL     1     -42.536  56.749 -58.438  1.00  0.00     0.023 C 
HETATM   17  C   UNL     1     -41.995  58.083 -58.968  1.00  0.00     0.015 C 
BRANCH  16  18
HETATM   18  C   UNL     1     -43.834  56.411 -59.151  1.00  0.00    -0.054 A 
HETATM   19  C   UNL     1     -43.969  55.267 -59.951  1.00  0.00     0.007 A 
HETATM   20  C   UNL     1     -45.183  54.979 -60.580  1.00  0.00     0.001 A 
HETATM   21  C   UNL     1     -46.278  55.822 -60.410  1.00  0.00     0.000 A 
HETATM   22  C   UNL     1     -46.163  56.955 -59.609  1.00  0.00     0.001 A 
HETATM   23  C   UNL     1     -44.951  57.246 -58.981  1.00  0.00     0.007 A 
ENDBRANCH  16  18
ENDBRANCH  15  16
ENDBRANCH  12  15
ENDBRANCH   1  11
BRANCH   8  24
HETATM   24  C   UNL     1     -41.285  54.322 -49.628  1.00  0.00     0.270 C 
HETATM   25  N   UNL     1     -40.596  54.259 -48.447  1.00  0.00    -0.365 N 
HETATM   26  H   UNL     1     -39.806  53.628 -48.380  1.00  0.00     0.159 HD
HETATM   27  H   UNL     1     -40.870  54.849 -47.678  1.00  0.00     0.159 HD
HETATM   28  O   UNL     1     -42.236  55.084 -49.765  1.00  0.00    -0.266 OA
ENDBRANCH   8  24
TORSDOF 5
ENDMDL
MODEL 7
REMARK VINA RESULT:      -8.1      2.890      8.318
REMARK  5 active torsions:
REMARK  status: ('A' for Active; 'I' for Inactive)
REMARK    1  A    between atoms: C_2  and  C_3 
REMARK    2  A    between atoms: C_2  and  C_9 
REMARK    3  A    between atoms: C_9  and  C_10 
REMARK       I    between atoms: C_10  and  N_11 
REMARK    4  A    between atoms: N_11  and  C_12 
REMARK    5  A    between atoms: C_19  and  C_20 
REMARK       I    between atoms: C_20  and  N_21 
ROOT
HETATM    1  C   UNL     1     -40.986  54.662 -54.772  1.00  0.00     0.035 A 
HETATM    2  C   UNL     1     -40.664  53.297 -54.781  1.00  0.00     0.046 A 
HETATM    3  C   UNL     1     -40.337  52.650 -53.569  1.00  0.00     0.030 A 
HETATM    4  C   UNL     1     -40.336  53.389 -52.393  1.00  0.00     0.063 A 
HETATM    5  N   UNL     1     -39.974  52.508 -51.412  1.00  0.00    -0.277 N 
HETATM    6  H   UNL     1     -39.864  52.703 -50.423  1.00  0.00     0.189 HD
HETATM    7  N   UNL     1     -39.752  51.256 -51.841  1.00  0.00    -0.168 NA
HETATM    8  C   UNL     1     -39.979  51.325 -53.173  1.00  0.00     0.156 A 
HETATM    9  C   UNL     1     -40.658  54.745 -52.346  1.00  0.00     0.034 A 
HETATM   10  C   UNL     1     -40.990  55.363 -53.559  1.00  0.00     0.032 A 
ENDROOT
BRANCH   1  11
HETATM   11  N   UNL     1     -41.347  55.388 -55.930  1.00  0.00    -0.327 N 
HETATM   12  C   UNL     1     -42.589  55.905 -56.238  1.00  0.00     0.222 C 
HETATM   13  O   UNL     1     -43.612  55.753 -55.576  1.00  0.00    -0.273 OA
HETATM   14  H   UNL     1     -40.641  55.427 -56.651  1.00  0.00     0.169 HD
BRANCH  12  15
HETATM   15  C   UNL     1     -42.629  56.813 -57.462  1.00  0.00     0.112 C 
BRANCH  15  16
HETATM   16  C   UNL     1     -42.953  56.176 -58.823  1.00  0.00     0.023 C 
HETATM   17  C   UNL     1     -42.016  56.744 -59.897  1.00  0.00     0.015 C 
BRANCH  16  18
HETATM   18  C   UNL     1     -44.394  56.325 -59.279  1.00  0.00    -0.054 A 
HETATM   19  C   UNL     1     -45.265  57.264 -58.707  1.00  0.00     0.007 A 
HETATM   20  C   UNL     1     -46.579  57.383 -59.162  1.00  0.00     0.001 A 
HETATM   21  C   UNL     1     -47.039  56.575 -60.199  1.00  0.00     0.000 A 
HETATM   22  C   UNL     1     -46.184  55.647 -60.785  1.00  0.00     0.001 A 
HETATM   23  C   UNL     1     -44.870  55.524 -60.331  1.00  0.00     0.007 A 
ENDBRANCH  16  18
ENDBRANCH  15  16
ENDBRANCH  12  15
ENDBRANCH   1  11
BRANCH   8  24
HETATM   24  C   UNL     1     -39.857  50.135 -54.027  1.00  0.00     0.270 C 
HETATM   25  N   UNL     1     -40.995  49.828 -54.723  1.00  0.00    -0.365 N 
HETATM   26  H   UNL     1     -41.806  50.425 -54.614  1.00  0.00     0.159 HD
HETATM   27  H   UNL     1     -41.001  49.034 -55.343  1.00  0.00     0.159 HD
HETATM   28  O   UNL     1     -38.843  49.454 -54.140  1.00  0.00    -0.266 OA
ENDBRANCH   8  24
TORSDOF 5
ENDMDL
MODEL 8
REMARK VINA RESULT:      -7.8      2.118      2.779
REMARK  5 active torsions:
REMARK  status: ('A' for Active; 'I' for Inactive)
REMARK    1  A    between atoms: C_2  and  C_3 
REMARK    2  A    between atoms: C_2  and  C_9 
REMARK    3  A    between atoms: C_9  and  C_10 
REMARK       I    between atoms: C_10  and  N_11 
REMARK    4  A    between atoms: N_11  and  C_12 
REMARK    5  A    between atoms: C_19  and  C_20 
REMARK       I    between atoms: C_20  and  N_21 
ROOT
HETATM    1  C   UNL     1     -42.836  57.205 -57.663  1.00  0.00     0.035 A 
HETATM    2  C   UNL     1     -44.165  57.632 -57.535  1.00  0.00     0.046 A 
HETATM    3  C   UNL     1     -44.864  58.085 -58.675  1.00  0.00     0.030 A 
HETATM    4  C   UNL     1     -44.210  58.103 -59.901  1.00  0.00     0.063 A 
HETATM    5  N   UNL     1     -45.123  58.596 -60.791  1.00  0.00    -0.277 N 
HETATM    6  H   UNL     1     -44.988  58.753 -61.783  1.00  0.00     0.189 HD
HETATM    7  N   UNL     1     -46.320  58.888 -60.259  1.00  0.00    -0.168 NA
HETATM    8  C   UNL     1     -46.179  58.571 -58.951  1.00  0.00     0.156 A 
HETATM    9  C   UNL     1     -42.891  57.678 -60.066  1.00  0.00     0.034 A 
HETATM   10  C   UNL     1     -42.222  57.222 -58.923  1.00  0.00     0.032 A 
ENDROOT
BRANCH   1  11
HETATM   11  N   UNL     1     -42.064  56.714 -56.585  1.00  0.00    -0.327 N 
HETATM   12  C   UNL     1     -42.169  55.480 -55.976  1.00  0.00     0.222 C 
HETATM   13  O   UNL     1     -43.011  54.624 -56.233  1.00  0.00    -0.273 OA
HETATM   14  H   UNL     1     -41.453  57.391 -56.150  1.00  0.00     0.169 HD
BRANCH  12  15
HETATM   15  C   UNL     1     -41.070  55.156 -54.970  1.00  0.00     0.112 C 
BRANCH  15  16
HETATM   16  C   UNL     1     -41.475  54.474 -53.653  1.00  0.00     0.023 C 
HETATM   17  C   UNL     1     -41.201  55.419 -52.476  1.00  0.00     0.015 C 
BRANCH  16  18
HETATM   18  C   UNL     1     -40.813  53.133 -53.390  1.00  0.00    -0.054 A 
HETATM   19  C   UNL     1     -40.758  52.124 -54.363  1.00  0.00     0.007 A 
HETATM   20  C   UNL     1     -40.127  50.909 -54.091  1.00  0.00     0.001 A 
HETATM   21  C   UNL     1     -39.535  50.687 -52.850  1.00  0.00     0.000 A 
HETATM   22  C   UNL     1     -39.571  51.683 -51.878  1.00  0.00     0.001 A 
HETATM   23  C   UNL     1     -40.202  52.898 -52.147  1.00  0.00     0.007 A 
ENDBRANCH  16  18
ENDBRANCH  15  16
ENDBRANCH  12  15
ENDBRANCH   1  11
BRANCH   8  24
HETATM   24  C   UNL     1     -47.293  58.732 -58.006  1.00  0.00     0.270 C 
HETATM   25  N   UNL     1     -47.360  57.755 -57.050  1.00  0.00    -0.365 N 
HETATM   26  H   UNL     1     -46.658  57.024 -57.054  1.00  0.00     0.159 HD
HETATM   27  H   UNL     1     -48.086  57.789 -56.352  1.00  0.00     0.159 HD
HETATM   28  O   UNL     1     -48.108  59.648 -58.032  1.00  0.00    -0.266 OA
ENDBRANCH   8  24
TORSDOF 5
ENDMDL
MODEL 9
REMARK VINA RESULT:      -7.8      3.456      4.592
REMARK  5 active torsions:
REMARK  status: ('A' for Active; 'I' for Inactive)
REMARK    1  A    between atoms: C_2  and  C_3 
REMARK    2  A    between atoms: C_2  and  C_9 
REMARK    3  A    between atoms: C_9  and  C_10 
REMARK       I    between atoms: C_10  and  N_11 
REMARK    4  A    between atoms: N_11  and  C_12 
REMARK    5  A    between atoms: C_19  and  C_20 
REMARK       I    between atoms: C_20  and  N_21 
ROOT
HETATM    1  C   UNL     1     -41.584  57.944 -52.837  1.00  0.00     0.035 A 
HETATM    2  C   UNL     1     -41.708  58.341 -54.176  1.00  0.00     0.046 A 
HETATM    3  C   UNL     1     -42.099  59.665 -54.477  1.00  0.00     0.030 A 
HETATM    4  C   UNL     1     -42.359  60.542 -53.432  1.00  0.00     0.063 A 
HETATM    5  N   UNL     1     -42.721  61.718 -54.027  1.00  0.00    -0.277 N 
HETATM    6  H   UNL     1     -42.987  62.582 -53.568  1.00  0.00     0.189 HD
HETATM    7  N   UNL     1     -42.707  61.691 -55.369  1.00  0.00    -0.168 NA
HETATM    8  C   UNL     1     -42.318  60.429 -55.664  1.00  0.00     0.156 A 
HETATM    9  C   UNL     1     -42.238  60.184 -52.089  1.00  0.00     0.034 A 
HETATM   10  C   UNL     1     -41.838  58.869 -51.815  1.00  0.00     0.032 A 
ENDROOT
BRANCH   1  11
HETATM   11  N   UNL     1     -41.179  56.650 -52.439  1.00  0.00    -0.327 N 
HETATM   12  C   UNL     1     -41.978  55.536 -52.282  1.00  0.00     0.222 C 
HETATM   13  O   UNL     1     -43.200  55.509 -52.398  1.00  0.00    -0.273 OA
HETATM   14  H   UNL     1     -40.220  56.575 -52.131  1.00  0.00     0.169 HD
BRANCH  12  15
HETATM   15  C   UNL     1     -41.230  54.230 -52.037  1.00  0.00     0.112 C 
BRANCH  15  16
HETATM   16  C   UNL     1     -40.430  53.627 -53.204  1.00  0.00     0.023 C 
HETATM   17  C   UNL     1     -41.160  53.895 -54.526  1.00  0.00     0.015 C 
BRANCH  16  18
HETATM   18  C   UNL     1     -40.130  52.143 -53.083  1.00  0.00    -0.054 A 
HETATM   19  C   UNL     1     -40.166  51.282 -54.189  1.00  0.00     0.007 A 
HETATM   20  C   UNL     1     -39.870  49.925 -54.044  1.00  0.00     0.001 A 
HETATM   21  C   UNL     1     -39.524  49.412 -52.796  1.00  0.00     0.000 A 
HETATM   22  C   UNL     1     -39.472  50.256 -51.690  1.00  0.00     0.001 A 
HETATM   23  C   UNL     1     -39.769  51.613 -51.833  1.00  0.00     0.007 A 
ENDBRANCH  16  18
ENDBRANCH  15  16
ENDBRANCH  12  15
ENDBRANCH   1  11
BRANCH   8  24
HETATM   24  C   UNL     1     -42.159  59.989 -57.057  1.00  0.00     0.270 C 
HETATM   25  N   UNL     1     -43.211  59.257 -57.535  1.00  0.00    -0.365 N 
HETATM   26  H   UNL     1     -44.000  59.084 -56.923  1.00  0.00     0.159 HD
HETATM   27  H   UNL     1     -43.195  58.922 -58.485  1.00  0.00     0.159 HD
HETATM   28  O   UNL     1     -41.190  60.241 -57.765  1.00  0.00    -0.266 OA
ENDBRANCH   8  24
TORSDOF 5
ENDMDL
MODEL 10
REMARK VINA RESULT:      -7.8      2.360      3.651
REMARK  5 active torsions:
REMARK  status: ('A' for Active; 'I' for Inactive)
REMARK    1  A    between atoms: C_2  and  C_3 
REMARK    2  A    between atoms: C_2  and  C_9 
REMARK    3  A    between atoms: C_9  and  C_10 
REMARK       I    between atoms: C_10  and  N_11 
REMARK    4  A    between atoms: N_11  and  C_12 
REMARK    5  A    between atoms: C_19  and  C_20 
REMARK       I    between atoms: C_20  and  N_21 
ROOT
HETATM    1  C   UNL     1     -42.937  56.353 -58.247  1.00  0.00     0.035 A 
HETATM    2  C   UNL     1     -42.487  57.680 -58.289  1.00  0.00     0.046 A 
HETATM    3  C   UNL     1     -42.965  58.546 -59.298  1.00  0.00     0.030 A 
HETATM    4  C   UNL     1     -43.870  58.055 -60.231  1.00  0.00     0.063 A 
HETATM    5  N   UNL     1     -44.130  59.103 -61.069  1.00  0.00    -0.277 N 
HETATM    6  H   UNL     1     -44.746  59.105 -61.874  1.00  0.00     0.189 HD
HETATM    7  N   UNL     1     -43.488  60.240 -60.757  1.00  0.00    -0.168 NA
HETATM    8  C   UNL     1     -42.767  59.914 -59.659  1.00  0.00     0.156 A 
HETATM    9  C   UNL     1     -44.345  56.743 -60.214  1.00  0.00     0.034 A 
HETATM   10  C   UNL     1     -43.864  55.906 -59.198  1.00  0.00     0.032 A 
ENDROOT
BRANCH   1  11
HETATM   11  N   UNL     1     -42.532  55.421 -57.264  1.00  0.00    -0.327 N 
HETATM   12  C   UNL     1     -42.902  55.395 -55.935  1.00  0.00     0.222 C 
HETATM   13  O   UNL     1     -43.599  56.233 -55.369  1.00  0.00    -0.273 OA
HETATM   14  H   UNL     1     -41.807  54.780 -57.551  1.00  0.00     0.169 HD
BRANCH  12  15
HETATM   15  C   UNL     1     -42.466  54.155 -55.163  1.00  0.00     0.112 C 
BRANCH  15  16
HETATM   16  C   UNL     1     -41.395  54.324 -54.072  1.00  0.00     0.023 C 
HETATM   17  C   UNL     1     -40.304  55.284 -54.562  1.00  0.00     0.015 C 
BRANCH  16  18
HETATM   18  C   UNL     1     -40.755  53.034 -53.591  1.00  0.00    -0.054 A 
HETATM   19  C   UNL     1     -40.588  51.924 -54.432  1.00  0.00     0.007 A 
HETATM   20  C   UNL     1     -39.981  50.759 -53.960  1.00  0.00     0.001 A 
HETATM   21  C   UNL     1     -39.523  50.689 -52.646  1.00  0.00     0.000 A 
HETATM   22  C   UNL     1     -39.671  51.786 -51.802  1.00  0.00     0.001 A 
HETATM   23  C   UNL     1     -40.279  52.951 -52.271  1.00  0.00     0.007 A 
ENDBRANCH  16  18
ENDBRANCH  15  16
ENDBRANCH  12  15
ENDBRANCH   1  11
BRANCH   8  24
HETATM   24  C   UNL     1     -41.921  60.907 -58.984  1.00  0.00     0.270 C 
HETATM   25  N   UNL     1     -41.120  61.626 -59.830  1.00  0.00    -0.365 N 
HETATM   26  H   UNL     1     -41.172  61.437 -60.824  1.00  0.00     0.159 HD
HETATM   27  H   UNL     1     -40.513  62.338 -59.457  1.00  0.00     0.159 HD
HETATM   28  O   UNL     1     -41.908  61.112 -57.775  1.00  0.00    -0.266 OA
ENDBRANCH   8  24
TORSDOF 5
ENDMDL
