MODEL 1
REMARK VINA RESULT:      -8.8      0.000      0.000
REMARK  7 active torsions:
REMARK  status: ('A' for Active; 'I' for Inactive)
REMARK    1  A    between atoms: C_7  and  C_8 
REMARK    2  A    between atoms: N_9  and  N_10 
REMARK       I    between atoms: N_10  and  C_11 
REMARK    3  A    between atoms: C_11  and  C_12 
REMARK    4  A    between atoms: C_12  and  N_13 
REMARK       I    between atoms: N_13  and  C_14 
REMARK    5  A    between atoms: C_14  and  C_15 
REMARK    6  A    between atoms: C_16  and  C_17 
REMARK    7  A    between atoms: C_18  and  O_19 
ROOT
HETATM    1  N   UNL     1     -41.594  57.530 -53.748  1.00  0.00    -0.246 N 
HETATM    2  C   UNL     1     -41.081  58.820 -53.756  1.00  0.00     0.255 C 
HETATM    3  O   UNL     1     -40.011  59.173 -53.266  1.00  0.00    -0.270 OA
HETATM    4  H   UNL     1     -42.534  57.367 -54.119  1.00  0.00     0.192 HD
ENDROOT
BRANCH   2   5
HETATM    5  C   UNL     1     -41.998  59.810 -54.476  1.00  0.00     0.227 C 
BRANCH   5   6
HETATM    6  N   UNL     1     -42.613  59.221 -55.655  1.00  0.00    -0.349 N 
HETATM    7  C   UNL     1     -42.184  59.536 -56.916  1.00  0.00     0.241 C 
HETATM    8  O   UNL     1     -41.246  60.298 -57.131  1.00  0.00    -0.269 OA
HETATM    9  H   UNL     1     -43.295  58.488 -55.513  1.00  0.00     0.163 HD
BRANCH   7  10
HETATM   10  C   UNL     1     -42.909  58.811 -57.983  1.00  0.00     0.075 C 
HETATM   11  C   UNL     1     -43.478  57.626 -57.715  1.00  0.00     0.020 C 
BRANCH  11  12
HETATM   12  C   UNL     1     -44.252  56.908 -58.733  1.00  0.00    -0.003 A 
HETATM   13  C   UNL     1     -45.571  57.270 -59.072  1.00  0.00     0.078 A 
HETATM   14  C   UNL     1     -46.250  56.528 -60.046  1.00  0.00     0.037 A 
HETATM   15  C   UNL     1     -45.631  55.444 -60.674  1.00  0.00     0.003 A 
HETATM   16  C   UNL     1     -44.328  55.089 -60.337  1.00  0.00     0.001 A 
HETATM   17  C   UNL     1     -43.641  55.818 -59.369  1.00  0.00     0.014 A 
BRANCH  13  18
HETATM   18  O   UNL     1     -46.100  58.344 -58.401  1.00  0.00    -0.355 OA
HETATM   19  C   UNL     1     -47.243  58.107 -57.588  1.00  0.00     0.210 C 
ENDBRANCH  13  18
ENDBRANCH  11  12
ENDBRANCH   7  10
ENDBRANCH   5   6
ENDBRANCH   2   5
BRANCH   1  20
HETATM   20  N   UNL     1     -40.914  56.522 -53.129  1.00  0.00    -0.184 NA
HETATM   21  C   UNL     1     -41.599  55.450 -52.899  1.00  0.00     0.153 C 
BRANCH  21  22
HETATM   22  C   UNL     1     -40.977  54.315 -52.243  1.00  0.00     0.018 A 
HETATM   23  C   UNL     1     -40.656  54.273 -50.891  1.00  0.00     0.018 A 
HETATM   24  C   UNL     1     -40.838  55.280 -49.812  1.00  0.00     0.069 C 
HETATM   25  N   UNL     1     -40.089  53.050 -50.633  1.00  0.00    -0.358 N 
HETATM   26  H   UNL     1     -39.759  52.738 -49.731  1.00  0.00     0.166 HD
HETATM   27  C   UNL     1     -40.027  52.292 -51.777  1.00  0.00     0.043 A 
HETATM   28  C   UNL     1     -40.577  53.056 -52.807  1.00  0.00     0.004 A 
HETATM   29  C   UNL     1     -39.529  50.996 -51.970  1.00  0.00     0.030 A 
HETATM   30  C   UNL     1     -40.627  52.488 -54.098  1.00  0.00     0.014 A 
HETATM   31  C   UNL     1     -40.133  51.195 -54.311  1.00  0.00     0.001 A 
HETATM   32  C   UNL     1     -39.593  50.461 -53.259  1.00  0.00     0.002 A 
ENDBRANCH  21  22
ENDBRANCH   1  20
TORSDOF 7
ENDMDL
MODEL 2
REMARK VINA RESULT:      -8.7      4.996      7.875
REMARK  7 active torsions:
REMARK  status: ('A' for Active; 'I' for Inactive)
REMARK    1  A    between atoms: C_7  and  C_8 
REMARK    2  A    between atoms: N_9  and  N_10 
REMARK       I    between atoms: N_10  and  C_11 
REMARK    3  A    between atoms: C_11  and  C_12 
REMARK    4  A    between atoms: C_12  and  N_13 
REMARK       I    between atoms: N_13  and  C_14 
REMARK    5  A    between atoms: C_14  and  C_15 
REMARK    6  A    between atoms: C_16  and  C_17 
REMARK    7  A    between atoms: C_18  and  O_19 
ROOT
HETATM    1  N   UNL     1     -41.900  57.811 -52.580  1.00  0.00    -0.246 N 
HETATM    2  C   UNL     1     -41.280  58.973 -53.017  1.00  0.00     0.255 C 
HETATM    3  O   UNL     1     -40.079  59.109 -53.241  1.00  0.00    -0.270 OA
HETATM    4  H   UNL     1     -42.897  57.835 -52.351  1.00  0.00     0.192 HD
ENDROOT
BRANCH   2   5
HETATM    5  C   UNL     1     -42.268  60.122 -53.221  1.00  0.00     0.227 C 
BRANCH   5   6
HETATM    6  N   UNL     1     -42.605  60.777 -51.967  1.00  0.00    -0.349 N 
HETATM    7  C   UNL     1     -43.665  60.362 -51.207  1.00  0.00     0.241 C 
HETATM    8  O   UNL     1     -44.368  59.404 -51.511  1.00  0.00    -0.269 OA
HETATM    9  H   UNL     1     -41.968  61.481 -51.618  1.00  0.00     0.163 HD
BRANCH   7  10
HETATM   10  C   UNL     1     -43.827  61.129 -49.953  1.00  0.00     0.075 C 
HETATM   11  C   UNL     1     -45.011  61.133 -49.323  1.00  0.00     0.020 C 
BRANCH  11  12
HETATM   12  C   UNL     1     -45.190  61.836 -48.048  1.00  0.00    -0.003 A 
HETATM   13  C   UNL     1     -45.736  61.208 -46.911  1.00  0.00     0.078 A 
HETATM   14  C   UNL     1     -45.887  61.949 -45.732  1.00  0.00     0.037 A 
HETATM   15  C   UNL     1     -45.502  63.291 -45.682  1.00  0.00     0.003 A 
HETATM   16  C   UNL     1     -44.964  63.909 -46.807  1.00  0.00     0.001 A 
HETATM   17  C   UNL     1     -44.808  63.184 -47.986  1.00  0.00     0.014 A 
BRANCH  13  18
HETATM   18  O   UNL     1     -46.090  59.890 -47.054  1.00  0.00    -0.355 OA
HETATM   19  C   UNL     1     -46.779  59.278 -45.970  1.00  0.00     0.210 C 
ENDBRANCH  13  18
ENDBRANCH  11  12
ENDBRANCH   7  10
ENDBRANCH   5   6
ENDBRANCH   2   5
BRANCH   1  20
HETATM   20  N   UNL     1     -41.163  56.690 -52.328  1.00  0.00    -0.184 NA
HETATM   21  C   UNL     1     -41.806  55.719 -51.767  1.00  0.00     0.153 C 
BRANCH  21  22
HETATM   22  C   UNL     1     -41.121  54.479 -51.450  1.00  0.00     0.018 A 
HETATM   23  C   UNL     1     -40.781  54.081 -50.162  1.00  0.00     0.018 A 
HETATM   24  C   UNL     1     -40.997  54.741 -48.847  1.00  0.00     0.069 C 
HETATM   25  N   UNL     1     -40.151  52.865 -50.252  1.00  0.00    -0.358 N 
HETATM   26  H   UNL     1     -39.794  52.333 -49.471  1.00  0.00     0.166 HD
HETATM   27  C   UNL     1     -40.067  52.456 -51.561  1.00  0.00     0.043 A 
HETATM   28  C   UNL     1     -40.667  53.447 -52.339  1.00  0.00     0.004 A 
HETATM   29  C   UNL     1     -39.509  51.291 -52.104  1.00  0.00     0.030 A 
HETATM   30  C   UNL     1     -40.706  53.256 -53.738  1.00  0.00     0.014 A 
HETATM   31  C   UNL     1     -40.153  52.098 -54.299  1.00  0.00     0.001 A 
HETATM   32  C   UNL     1     -39.564  51.131 -53.491  1.00  0.00     0.002 A 
ENDBRANCH  21  22
ENDBRANCH   1  20
TORSDOF 7
ENDMDL
MODEL 3
REMARK VINA RESULT:      -8.6      0.954      1.703
REMARK  7 active torsions:
REMARK  status: ('A' for Active; 'I' for Inactive)
REMARK    1  A    between atoms: C_7  and  C_8 
REMARK    2  A    between atoms: N_9  and  N_10 
REMARK       I    between atoms: N_10  and  C_11 
REMARK    3  A    between atoms: C_11  and  C_12 
REMARK    4  A    between atoms: C_12  and  N_13 
REMARK       I    between atoms: N_13  and  C_14 
REMARK    5  A    between atoms: C_14  and  C_15 
REMARK    6  A    between atoms: C_16  and  C_17 
REMARK    7  A    between atoms: C_18  and  O_19 
ROOT
HETATM    1  N   UNL     1     -41.778  57.766 -53.355  1.00  0.00    -0.246 N 
HETATM    2  C   UNL     1     -41.169  58.998 -53.554  1.00  0.00     0.255 C 
HETATM    3  O   UNL     1     -39.995  59.268 -53.312  1.00  0.00    -0.270 OA
HETATM    4  H   UNL     1     -42.785  57.677 -53.520  1.00  0.00     0.192 HD
ENDROOT
BRANCH   2   5
HETATM    5  C   UNL     1     -42.126  60.035 -54.143  1.00  0.00     0.227 C 
BRANCH   5   6
HETATM    6  N   UNL     1     -42.835  59.522 -55.304  1.00  0.00    -0.349 N 
HETATM    7  C   UNL     1     -42.412  59.796 -56.577  1.00  0.00     0.241 C 
HETATM    8  O   UNL     1     -41.405  60.455 -56.818  1.00  0.00    -0.269 OA
HETATM    9  H   UNL     1     -43.587  58.865 -55.145  1.00  0.00     0.163 HD
BRANCH   7  10
HETATM   10  C   UNL     1     -43.240  59.159 -57.624  1.00  0.00     0.075 C 
HETATM   11  C   UNL     1     -43.916  58.034 -57.345  1.00  0.00     0.020 C 
BRANCH  11  12
HETATM   12  C   UNL     1     -44.792  57.408 -58.341  1.00  0.00    -0.003 A 
HETATM   13  C   UNL     1     -44.344  56.392 -59.207  1.00  0.00     0.078 A 
HETATM   14  C   UNL     1     -45.237  55.851 -60.140  1.00  0.00     0.037 A 
HETATM   15  C   UNL     1     -46.555  56.310 -60.212  1.00  0.00     0.003 A 
HETATM   16  C   UNL     1     -46.995  57.314 -59.355  1.00  0.00     0.001 A 
HETATM   17  C   UNL     1     -46.117  57.862 -58.422  1.00  0.00     0.014 A 
BRANCH  13  18
HETATM   18  O   UNL     1     -43.034  56.007 -59.069  1.00  0.00    -0.355 OA
HETATM   19  C   UNL     1     -42.112  56.465 -60.051  1.00  0.00     0.210 C 
ENDBRANCH  13  18
ENDBRANCH  11  12
ENDBRANCH   7  10
ENDBRANCH   5   6
ENDBRANCH   2   5
BRANCH   1  20
HETATM   20  N   UNL     1     -41.075  56.729 -52.817  1.00  0.00    -0.184 NA
HETATM   21  C   UNL     1     -41.757  55.653 -52.594  1.00  0.00     0.153 C 
BRANCH  21  22
HETATM   22  C   UNL     1     -41.110  54.487 -52.020  1.00  0.00     0.018 A 
HETATM   23  C   UNL     1     -40.807  54.347 -50.670  1.00  0.00     0.018 A 
HETATM   24  C   UNL     1     -41.032  55.259 -49.518  1.00  0.00     0.069 C 
HETATM   25  N   UNL     1     -40.207  53.123 -50.501  1.00  0.00    -0.358 N 
HETATM   26  H   UNL     1     -39.880  52.750 -49.621  1.00  0.00     0.166 HD
HETATM   27  C   UNL     1     -40.107  52.461 -51.700  1.00  0.00     0.043 A 
HETATM   28  C   UNL     1     -40.665  53.289 -52.675  1.00  0.00     0.004 A 
HETATM   29  C   UNL     1     -39.569  51.199 -51.987  1.00  0.00     0.030 A 
HETATM   30  C   UNL     1     -40.681  52.824 -54.008  1.00  0.00     0.014 A 
HETATM   31  C   UNL     1     -40.147  51.566 -54.315  1.00  0.00     0.001 A 
HETATM   32  C   UNL     1     -39.599  50.767 -53.316  1.00  0.00     0.002 A 
ENDBRANCH  21  22
ENDBRANCH   1  20
TORSDOF 7
ENDMDL
MODEL 4
REMARK VINA RESULT:      -8.3      2.833      4.149
REMARK  7 active torsions:
REMARK  status: ('A' for Active; 'I' for Inactive)
REMARK    1  A    between atoms: C_7  and  C_8 
REMARK    2  A    between atoms: N_9  and  N_10 
REMARK       I    between atoms: N_10  and  C_11 
REMARK    3  A    between atoms: C_11  and  C_12 
REMARK    4  A    between atoms: C_12  and  N_13 
REMARK       I    between atoms: N_13  and  C_14 
REMARK    5  A    between atoms: C_14  and  C_15 
REMARK    6  A    between atoms: C_16  and  C_17 
REMARK    7  A    between atoms: C_18  and  O_19 
ROOT
HETATM    1  N   UNL     1     -41.758  57.786 -53.073  1.00  0.00    -0.246 N 
HETATM    2  C   UNL     1     -41.118  58.994 -53.315  1.00  0.00     0.255 C 
HETATM    3  O   UNL     1     -39.921  59.220 -53.150  1.00  0.00    -0.270 OA
HETATM    4  H   UNL     1     -42.776  57.735 -53.172  1.00  0.00     0.192 HD
ENDROOT
BRANCH   2   5
HETATM    5  C   UNL     1     -42.070  60.065 -53.847  1.00  0.00     0.227 C 
BRANCH   5   6
HETATM    6  N   UNL     1     -41.884  60.299 -55.270  1.00  0.00    -0.349 N 
HETATM    7  C   UNL     1     -42.398  59.444 -56.207  1.00  0.00     0.241 C 
HETATM    8  O   UNL     1     -43.067  58.458 -55.914  1.00  0.00    -0.269 OA
HETATM    9  H   UNL     1     -41.455  61.171 -55.552  1.00  0.00     0.163 HD
BRANCH   7  10
HETATM   10  C   UNL     1     -42.134  59.867 -57.599  1.00  0.00     0.075 C 
HETATM   11  C   UNL     1     -41.617  61.081 -57.839  1.00  0.00     0.020 C 
BRANCH  11  12
HETATM   12  C   UNL     1     -41.289  61.511 -59.203  1.00  0.00    -0.003 A 
HETATM   13  C   UNL     1     -40.422  62.589 -59.466  1.00  0.00     0.078 A 
HETATM   14  C   UNL     1     -40.166  62.948 -60.795  1.00  0.00     0.037 A 
HETATM   15  C   UNL     1     -40.762  62.247 -61.847  1.00  0.00     0.003 A 
HETATM   16  C   UNL     1     -41.619  61.183 -61.584  1.00  0.00     0.001 A 
HETATM   17  C   UNL     1     -41.882  60.815 -60.267  1.00  0.00     0.014 A 
BRANCH  13  18
HETATM   18  O   UNL     1     -39.887  63.222 -58.372  1.00  0.00    -0.355 OA
HETATM   19  C   UNL     1     -40.031  64.635 -58.299  1.00  0.00     0.210 C 
ENDBRANCH  13  18
ENDBRANCH  11  12
ENDBRANCH   7  10
ENDBRANCH   5   6
ENDBRANCH   2   5
BRANCH   1  20
HETATM   20  N   UNL     1     -41.061  56.724 -52.575  1.00  0.00    -0.184 NA
HETATM   21  C   UNL     1     -41.754  55.651 -52.376  1.00  0.00     0.153 C 
BRANCH  21  22
HETATM   22  C   UNL     1     -41.116  54.459 -51.846  1.00  0.00     0.018 A 
HETATM   23  C   UNL     1     -40.830  54.259 -50.500  1.00  0.00     0.018 A 
HETATM   24  C   UNL     1     -41.072  55.118 -49.312  1.00  0.00     0.069 C 
HETATM   25  N   UNL     1     -40.233  53.029 -50.379  1.00  0.00    -0.358 N 
HETATM   26  H   UNL     1     -39.918  52.616 -49.512  1.00  0.00     0.166 HD
HETATM   27  C   UNL     1     -40.117  52.420 -51.605  1.00  0.00     0.043 A 
HETATM   28  C   UNL     1     -40.662  53.292 -52.548  1.00  0.00     0.004 A 
HETATM   29  C   UNL     1     -39.574  51.173 -51.941  1.00  0.00     0.030 A 
HETATM   30  C   UNL     1     -40.659  52.888 -53.901  1.00  0.00     0.014 A 
HETATM   31  C   UNL     1     -40.121  51.645 -54.257  1.00  0.00     0.001 A 
HETATM   32  C   UNL     1     -39.587  50.801 -53.288  1.00  0.00     0.002 A 
ENDBRANCH  21  22
ENDBRANCH   1  20
TORSDOF 7
ENDMDL
MODEL 5
REMARK VINA RESULT:      -8.3      3.403      9.843
REMARK  7 active torsions:
REMARK  status: ('A' for Active; 'I' for Inactive)
REMARK    1  A    between atoms: C_7  and  C_8 
REMARK    2  A    between atoms: N_9  and  N_10 
REMARK       I    between atoms: N_10  and  C_11 
REMARK    3  A    between atoms: C_11  and  C_12 
REMARK    4  A    between atoms: C_12  and  N_13 
REMARK       I    between atoms: N_13  and  C_14 
REMARK    5  A    between atoms: C_14  and  C_15 
REMARK    6  A    between atoms: C_16  and  C_17 
REMARK    7  A    between atoms: C_18  and  O_19 
ROOT
HETATM    1  N   UNL     1     -42.477  58.337 -56.933  1.00  0.00    -0.246 N 
HETATM    2  C   UNL     1     -43.487  57.384 -56.926  1.00  0.00     0.255 C 
HETATM    3  O   UNL     1     -44.062  56.937 -57.915  1.00  0.00    -0.270 OA
HETATM    4  H   UNL     1     -42.123  58.693 -56.040  1.00  0.00     0.192 HD
ENDROOT
BRANCH   2   5
HETATM    5  C   UNL     1     -43.827  56.903 -55.515  1.00  0.00     0.227 C 
BRANCH   5   6
HETATM    6  N   UNL     1     -43.271  55.588 -55.241  1.00  0.00    -0.349 N 
HETATM    7  C   UNL     1     -41.976  55.434 -54.824  1.00  0.00     0.241 C 
HETATM    8  O   UNL     1     -41.222  56.382 -54.625  1.00  0.00    -0.269 OA
HETATM    9  H   UNL     1     -43.900  54.796 -55.263  1.00  0.00     0.163 HD
BRANCH   7  10
HETATM   10  C   UNL     1     -41.604  54.026 -54.565  1.00  0.00     0.075 C 
HETATM   11  C   UNL     1     -40.610  53.747 -53.709  1.00  0.00     0.020 C 
BRANCH  11  12
HETATM   12  C   UNL     1     -40.253  52.361 -53.385  1.00  0.00    -0.003 A 
HETATM   13  C   UNL     1     -39.762  51.984 -52.120  1.00  0.00     0.078 A 
HETATM   14  C   UNL     1     -39.432  50.643 -51.890  1.00  0.00     0.037 A 
HETATM   15  C   UNL     1     -39.588  49.690 -52.900  1.00  0.00     0.003 A 
HETATM   16  C   UNL     1     -40.073  50.065 -54.149  1.00  0.00     0.001 A 
HETATM   17  C   UNL     1     -40.405  51.396 -54.392  1.00  0.00     0.014 A 
BRANCH  13  18
HETATM   18  O   UNL     1     -39.638  52.987 -51.191  1.00  0.00    -0.355 OA
HETATM   19  C   UNL     1     -40.442  52.898 -50.022  1.00  0.00     0.210 C 
ENDBRANCH  13  18
ENDBRANCH  11  12
ENDBRANCH   7  10
ENDBRANCH   5   6
ENDBRANCH   2   5
BRANCH   1  20
HETATM   20  N   UNL     1     -42.060  58.891 -58.108  1.00  0.00    -0.184 NA
HETATM   21  C   UNL     1     -42.444  60.108 -58.314  1.00  0.00     0.153 C 
BRANCH  21  22
HETATM   22  C   UNL     1     -42.061  60.796 -59.534  1.00  0.00     0.018 A 
HETATM   23  C   UNL     1     -42.674  60.601 -60.766  1.00  0.00     0.018 A 
HETATM   24  C   UNL     1     -43.800  59.717 -61.168  1.00  0.00     0.069 C 
HETATM   25  N   UNL     1     -42.051  61.417 -61.677  1.00  0.00    -0.358 N 
HETATM   26  H   UNL     1     -42.289  61.487 -62.657  1.00  0.00     0.166 HD
HETATM   27  C   UNL     1     -41.047  62.138 -61.078  1.00  0.00     0.043 A 
HETATM   28  C   UNL     1     -41.027  61.772 -59.732  1.00  0.00     0.004 A 
HETATM   29  C   UNL     1     -40.166  63.079 -61.627  1.00  0.00     0.030 A 
HETATM   30  C   UNL     1     -40.068  62.384 -58.894  1.00  0.00     0.014 A 
HETATM   31  C   UNL     1     -39.179  63.326 -59.425  1.00  0.00     0.001 A 
HETATM   32  C   UNL     1     -39.229  63.667 -60.773  1.00  0.00     0.002 A 
ENDBRANCH  21  22
ENDBRANCH   1  20
TORSDOF 7
ENDMDL
MODEL 6
REMARK VINA RESULT:      -8.1      2.163      3.169
REMARK  7 active torsions:
REMARK  status: ('A' for Active; 'I' for Inactive)
REMARK    1  A    between atoms: C_7  and  C_8 
REMARK    2  A    between atoms: N_9  and  N_10 
REMARK       I    between atoms: N_10  and  C_11 
REMARK    3  A    between atoms: C_11  and  C_12 
REMARK    4  A    between atoms: C_12  and  N_13 
REMARK       I    between atoms: N_13  and  C_14 
REMARK    5  A    between atoms: C_14  and  C_15 
REMARK    6  A    between atoms: C_16  and  C_17 
REMARK    7  A    between atoms: C_18  and  O_19 
ROOT
HETATM    1  N   UNL     1     -41.751  58.006 -52.196  1.00  0.00    -0.246 N 
HETATM    2  C   UNL     1     -41.070  59.176 -52.501  1.00  0.00     0.255 C 
HETATM    3  O   UNL     1     -39.850  59.320 -52.503  1.00  0.00    -0.270 OA
HETATM    4  H   UNL     1     -42.774  58.022 -52.152  1.00  0.00     0.192 HD
ENDROOT
BRANCH   2   5
HETATM    5  C   UNL     1     -42.013  60.322 -52.869  1.00  0.00     0.227 C 
BRANCH   5   6
HETATM    6  N   UNL     1     -42.115  60.500 -54.309  1.00  0.00    -0.349 N 
HETATM    7  C   UNL     1     -43.030  59.803 -55.051  1.00  0.00     0.241 C 
HETATM    8  O   UNL     1     -43.834  59.020 -54.555  1.00  0.00    -0.269 OA
HETATM    9  H   UNL     1     -41.564  61.235 -54.733  1.00  0.00     0.163 HD
BRANCH   7  10
HETATM   10  C   UNL     1     -43.005  60.145 -56.490  1.00  0.00     0.075 C 
HETATM   11  C   UNL     1     -41.904  59.894 -57.215  1.00  0.00     0.020 C 
BRANCH  11  12
HETATM   12  C   UNL     1     -41.865  60.167 -58.655  1.00  0.00    -0.003 A 
HETATM   13  C   UNL     1     -42.086  59.165 -59.619  1.00  0.00     0.078 A 
HETATM   14  C   UNL     1     -42.020  59.500 -60.977  1.00  0.00     0.037 A 
HETATM   15  C   UNL     1     -41.741  60.811 -61.372  1.00  0.00     0.003 A 
HETATM   16  C   UNL     1     -41.523  61.800 -60.418  1.00  0.00     0.001 A 
HETATM   17  C   UNL     1     -41.585  61.480 -59.063  1.00  0.00     0.014 A 
BRANCH  13  18
HETATM   18  O   UNL     1     -42.349  57.906 -59.140  1.00  0.00    -0.355 OA
HETATM   19  C   UNL     1     -42.254  56.824 -60.060  1.00  0.00     0.210 C 
ENDBRANCH  13  18
ENDBRANCH  11  12
ENDBRANCH   7  10
ENDBRANCH   5   6
ENDBRANCH   2   5
BRANCH   1  20
HETATM   20  N   UNL     1     -41.065  56.886 -51.826  1.00  0.00    -0.184 NA
HETATM   21  C   UNL     1     -41.723  55.776 -51.920  1.00  0.00     0.153 C 
BRANCH  21  22
HETATM   22  C   UNL     1     -41.092  54.522 -51.549  1.00  0.00     0.018 A 
HETATM   23  C   UNL     1     -40.821  54.141 -50.240  1.00  0.00     0.018 A 
HETATM   24  C   UNL     1     -41.075  54.832 -48.949  1.00  0.00     0.069 C 
HETATM   25  N   UNL     1     -40.227  52.904 -50.279  1.00  0.00    -0.358 N 
HETATM   26  H   UNL     1     -39.922  52.377 -49.473  1.00  0.00     0.166 HD
HETATM   27  C   UNL     1     -40.098  52.467 -51.575  1.00  0.00     0.043 A 
HETATM   28  C   UNL     1     -40.632  53.459 -52.398  1.00  0.00     0.004 A 
HETATM   29  C   UNL     1     -39.554  51.275 -52.071  1.00  0.00     0.030 A 
HETATM   30  C   UNL     1     -40.615  53.242 -53.793  1.00  0.00     0.014 A 
HETATM   31  C   UNL     1     -40.075  52.057 -54.308  1.00  0.00     0.001 A 
HETATM   32  C   UNL     1     -39.553  51.088 -53.456  1.00  0.00     0.002 A 
ENDBRANCH  21  22
ENDBRANCH   1  20
TORSDOF 7
ENDMDL
MODEL 7
REMARK VINA RESULT:      -7.9      2.464      8.273
REMARK  7 active torsions:
REMARK  status: ('A' for Active; 'I' for Inactive)
REMARK    1  A    between atoms: C_7  and  C_8 
REMARK    2  A    between atoms: N_9  and  N_10 
REMARK       I    between atoms: N_10  and  C_11 
REMARK    3  A    between atoms: C_11  and  C_12 
REMARK    4  A    between atoms: C_12  and  N_13 
REMARK       I    between atoms: N_13  and  C_14 
REMARK    5  A    between atoms: C_14  and  C_15 
REMARK    6  A    between atoms: C_16  and  C_17 
REMARK    7  A    between atoms: C_18  and  O_19 
ROOT
HETATM    1  N   UNL     1     -41.775  57.465 -53.089  1.00  0.00    -0.246 N 
HETATM    2  C   UNL     1     -41.935  58.188 -51.915  1.00  0.00     0.255 C 
HETATM    3  O   UNL     1     -42.479  59.285 -51.813  1.00  0.00    -0.270 OA
HETATM    4  H   UNL     1     -41.236  56.595 -53.067  1.00  0.00     0.192 HD
ENDROOT
BRANCH   2   5
HETATM    5  C   UNL     1     -41.364  57.461 -50.697  1.00  0.00     0.227 C 
BRANCH   5   6
HETATM    6  N   UNL     1     -41.192  56.039 -50.946  1.00  0.00    -0.349 N 
HETATM    7  C   UNL     1     -41.049  55.146 -49.918  1.00  0.00     0.241 C 
HETATM    8  O   UNL     1     -41.088  55.478 -48.737  1.00  0.00    -0.269 OA
HETATM    9  H   UNL     1     -41.291  55.712 -51.898  1.00  0.00     0.163 HD
BRANCH   7  10
HETATM   10  C   UNL     1     -40.920  53.744 -50.368  1.00  0.00     0.075 C 
HETATM   11  C   UNL     1     -40.126  53.448 -51.407  1.00  0.00     0.020 C 
BRANCH  11  12
HETATM   12  C   UNL     1     -39.931  52.061 -51.844  1.00  0.00    -0.003 A 
HETATM   13  C   UNL     1     -39.882  51.698 -53.204  1.00  0.00     0.078 A 
HETATM   14  C   UNL     1     -39.705  50.351 -53.542  1.00  0.00     0.037 A 
HETATM   15  C   UNL     1     -39.577  49.379 -52.546  1.00  0.00     0.003 A 
HETATM   16  C   UNL     1     -39.625  49.740 -51.203  1.00  0.00     0.001 A 
HETATM   17  C   UNL     1     -39.802  51.077 -50.852  1.00  0.00     0.014 A 
BRANCH  13  18
HETATM   18  O   UNL     1     -40.022  52.718 -54.112  1.00  0.00    -0.355 OA
HETATM   19  C   UNL     1     -41.334  52.995 -54.586  1.00  0.00     0.210 C 
ENDBRANCH  13  18
ENDBRANCH  11  12
ENDBRANCH   7  10
ENDBRANCH   5   6
ENDBRANCH   2   5
BRANCH   1  20
HETATM   20  N   UNL     1     -42.210  57.975 -54.277  1.00  0.00    -0.184 NA
HETATM   21  C   UNL     1     -43.194  57.340 -54.826  1.00  0.00     0.153 C 
BRANCH  21  22
HETATM   22  C   UNL     1     -43.736  57.793 -56.095  1.00  0.00     0.018 A 
HETATM   23  C   UNL     1     -44.485  58.953 -56.254  1.00  0.00     0.018 A 
HETATM   24  C   UNL     1     -44.914  59.982 -55.271  1.00  0.00     0.069 C 
HETATM   25  N   UNL     1     -44.821  59.055 -57.581  1.00  0.00    -0.358 N 
HETATM   26  H   UNL     1     -45.364  59.802 -57.990  1.00  0.00     0.166 HD
HETATM   27  C   UNL     1     -44.316  57.994 -58.294  1.00  0.00     0.043 A 
HETATM   28  C   UNL     1     -43.629  57.183 -57.390  1.00  0.00     0.004 A 
HETATM   29  C   UNL     1     -44.417  57.701 -59.660  1.00  0.00     0.030 A 
HETATM   30  C   UNL     1     -43.012  56.014 -57.887  1.00  0.00     0.014 A 
HETATM   31  C   UNL     1     -43.102  55.703 -59.250  1.00  0.00     0.001 A 
HETATM   32  C   UNL     1     -43.796  56.537 -60.122  1.00  0.00     0.002 A 
ENDBRANCH  21  22
ENDBRANCH   1  20
TORSDOF 7
ENDMDL
MODEL 8
REMARK VINA RESULT:      -7.9      3.023      5.899
REMARK  7 active torsions:
REMARK  status: ('A' for Active; 'I' for Inactive)
REMARK    1  A    between atoms: C_7  and  C_8 
REMARK    2  A    between atoms: N_9  and  N_10 
REMARK       I    between atoms: N_10  and  C_11 
REMARK    3  A    between atoms: C_11  and  C_12 
REMARK    4  A    between atoms: C_12  and  N_13 
REMARK       I    between atoms: N_13  and  C_14 
REMARK    5  A    between atoms: C_14  and  C_15 
REMARK    6  A    between atoms: C_16  and  C_17 
REMARK    7  A    between atoms: C_18  and  O_19 
ROOT
HETATM    1  N   UNL     1     -41.512  56.282 -55.029  1.00  0.00    -0.246 N 
HETATM    2  C   UNL     1     -42.421  56.085 -56.058  1.00  0.00     0.255 C 
HETATM    3  O   UNL     1     -42.782  54.998 -56.503  1.00  0.00    -0.270 OA
HETATM    4  H   UNL     1     -41.227  57.237 -54.793  1.00  0.00     0.192 HD
ENDROOT
BRANCH   2   5
HETATM    5  C   UNL     1     -42.976  57.399 -56.609  1.00  0.00     0.227 C 
BRANCH   5   6
HETATM    6  N   UNL     1     -43.261  58.354 -55.550  1.00  0.00    -0.349 N 
HETATM    7  C   UNL     1     -44.502  58.435 -54.977  1.00  0.00     0.241 C 
HETATM    8  O   UNL     1     -45.431  57.697 -55.291  1.00  0.00    -0.269 OA
HETATM    9  H   UNL     1     -42.487  58.883 -55.171  1.00  0.00     0.163 HD
BRANCH   7  10
HETATM   10  C   UNL     1     -44.587  59.440 -53.895  1.00  0.00     0.075 C 
HETATM   11  C   UNL     1     -44.617  59.041 -52.615  1.00  0.00     0.020 C 
BRANCH  11  12
HETATM   12  C   UNL     1     -44.643  60.013 -51.517  1.00  0.00    -0.003 A 
HETATM   13  C   UNL     1     -43.473  60.443 -50.862  1.00  0.00     0.078 A 
HETATM   14  C   UNL     1     -43.580  61.365 -49.814  1.00  0.00     0.037 A 
HETATM   15  C   UNL     1     -44.829  61.853 -49.422  1.00  0.00     0.003 A 
HETATM   16  C   UNL     1     -45.984  61.427 -50.070  1.00  0.00     0.001 A 
HETATM   17  C   UNL     1     -45.892  60.509 -51.115  1.00  0.00     0.014 A 
BRANCH  13  18
HETATM   18  O   UNL     1     -42.292  59.907 -51.310  1.00  0.00    -0.355 OA
HETATM   19  C   UNL     1     -41.267  59.690 -50.348  1.00  0.00     0.210 C 
ENDBRANCH  13  18
ENDBRANCH  11  12
ENDBRANCH   7  10
ENDBRANCH   5   6
ENDBRANCH   2   5
BRANCH   1  20
HETATM   20  N   UNL     1     -40.903  55.216 -54.434  1.00  0.00    -0.184 NA
HETATM   21  C   UNL     1     -41.320  54.933 -53.243  1.00  0.00     0.153 C 
BRANCH  21  22
HETATM   22  C   UNL     1     -40.740  53.819 -52.514  1.00  0.00     0.018 A 
HETATM   23  C   UNL     1     -40.394  53.862 -51.168  1.00  0.00     0.018 A 
HETATM   24  C   UNL     1     -40.505  54.954 -50.165  1.00  0.00     0.069 C 
HETATM   25  N   UNL     1     -39.880  52.635 -50.829  1.00  0.00    -0.358 N 
HETATM   26  H   UNL     1     -39.547  52.375 -49.911  1.00  0.00     0.166 HD
HETATM   27  C   UNL     1     -39.878  51.792 -51.913  1.00  0.00     0.043 A 
HETATM   28  C   UNL     1     -40.411  52.504 -52.988  1.00  0.00     0.004 A 
HETATM   29  C   UNL     1     -39.447  50.463 -52.017  1.00  0.00     0.030 A 
HETATM   30  C   UNL     1     -40.515  51.845 -54.233  1.00  0.00     0.014 A 
HETATM   31  C   UNL     1     -40.088  50.517 -54.356  1.00  0.00     0.001 A 
HETATM   32  C   UNL     1     -39.562  49.838 -53.261  1.00  0.00     0.002 A 
ENDBRANCH  21  22
ENDBRANCH   1  20
TORSDOF 7
ENDMDL
MODEL 9
REMARK VINA RESULT:      -7.7      5.470      9.501
REMARK  7 active torsions:
REMARK  status: ('A' for Active; 'I' for Inactive)
REMARK    1  A    between atoms: C_7  and  C_8 
REMARK    2  A    between atoms: N_9  and  N_10 
REMARK       I    between atoms: N_10  and  C_11 
REMARK    3  A    between atoms: C_11  and  C_12 
REMARK    4  A    between atoms: C_12  and  N_13 
REMARK       I    between atoms: N_13  and  C_14 
REMARK    5  A    between atoms: C_14  and  C_15 
REMARK    6  A    between atoms: C_16  and  C_17 
REMARK    7  A    between atoms: C_18  and  O_19 
ROOT
HETATM    1  N   UNL     1     -45.046  59.531 -51.845  1.00  0.00    -0.246 N 
HETATM    2  C   UNL     1     -44.161  58.474 -52.004  1.00  0.00     0.255 C 
HETATM    3  O   UNL     1     -43.134  58.290 -51.354  1.00  0.00    -0.270 OA
HETATM    4  H   UNL     1     -45.831  59.625 -52.496  1.00  0.00     0.192 HD
ENDROOT
BRANCH   2   5
HETATM    5  C   UNL     1     -44.603  57.501 -53.097  1.00  0.00     0.227 C 
BRANCH   5   6
HETATM    6  N   UNL     1     -43.959  56.204 -52.962  1.00  0.00    -0.349 N 
HETATM    7  C   UNL     1     -43.373  55.582 -54.032  1.00  0.00     0.241 C 
HETATM    8  O   UNL     1     -43.324  56.086 -55.150  1.00  0.00    -0.269 OA
HETATM    9  H   UNL     1     -43.861  55.822 -52.031  1.00  0.00     0.163 HD
BRANCH   7  10
HETATM   10  C   UNL     1     -42.743  54.289 -53.690  1.00  0.00     0.075 C 
HETATM   11  C   UNL     1     -41.420  54.131 -53.848  1.00  0.00     0.020 C 
BRANCH  11  12
HETATM   12  C   UNL     1     -40.754  52.881 -53.465  1.00  0.00    -0.003 A 
HETATM   13  C   UNL     1     -40.149  52.705 -52.205  1.00  0.00     0.078 A 
HETATM   14  C   UNL     1     -39.522  51.487 -51.916  1.00  0.00     0.037 A 
HETATM   15  C   UNL     1     -39.495  50.459 -52.863  1.00  0.00     0.003 A 
HETATM   16  C   UNL     1     -40.093  50.636 -54.107  1.00  0.00     0.001 A 
HETATM   17  C   UNL     1     -40.721  51.843 -54.408  1.00  0.00     0.014 A 
BRANCH  13  18
HETATM   18  O   UNL     1     -40.220  53.769 -51.340  1.00  0.00    -0.355 OA
HETATM   19  C   UNL     1     -40.388  53.477 -49.959  1.00  0.00     0.210 C 
ENDBRANCH  13  18
ENDBRANCH  11  12
ENDBRANCH   7  10
ENDBRANCH   5   6
ENDBRANCH   2   5
BRANCH   1  20
HETATM   20  N   UNL     1     -44.796  60.506 -50.924  1.00  0.00    -0.184 NA
HETATM   21  C   UNL     1     -45.841  61.010 -50.353  1.00  0.00     0.153 C 
BRANCH  21  22
HETATM   22  C   UNL     1     -45.694  62.057 -49.358  1.00  0.00     0.018 A 
HETATM   23  C   UNL     1     -45.764  63.417 -49.639  1.00  0.00     0.018 A 
HETATM   24  C   UNL     1     -45.993  64.140 -50.918  1.00  0.00     0.069 C 
HETATM   25  N   UNL     1     -45.582  64.097 -48.460  1.00  0.00    -0.358 N 
HETATM   26  H   UNL     1     -45.585  65.103 -48.360  1.00  0.00     0.166 HD
HETATM   27  C   UNL     1     -45.391  63.223 -47.418  1.00  0.00     0.043 A 
HETATM   28  C   UNL     1     -45.456  61.933 -47.947  1.00  0.00     0.004 A 
HETATM   29  C   UNL     1     -45.170  63.480 -46.059  1.00  0.00     0.030 A 
HETATM   30  C   UNL     1     -45.288  60.846 -47.062  1.00  0.00     0.014 A 
HETATM   31  C   UNL     1     -45.065  61.084 -45.701  1.00  0.00     0.001 A 
HETATM   32  C   UNL     1     -45.007  62.384 -45.208  1.00  0.00     0.002 A 
ENDBRANCH  21  22
ENDBRANCH   1  20
TORSDOF 7
ENDMDL
MODEL 10
REMARK VINA RESULT:      -7.5      2.938      4.978
REMARK  7 active torsions:
REMARK  status: ('A' for Active; 'I' for Inactive)
REMARK    1  A    between atoms: C_7  and  C_8 
REMARK    2  A    between atoms: N_9  and  N_10 
REMARK       I    between atoms: N_10  and  C_11 
REMARK    3  A    between atoms: C_11  and  C_12 
REMARK    4  A    between atoms: C_12  and  N_13 
REMARK       I    between atoms: N_13  and  C_14 
REMARK    5  A    between atoms: C_14  and  C_15 
REMARK    6  A    between atoms: C_16  and  C_17 
REMARK    7  A    between atoms: C_18  and  O_19 
ROOT
HETATM    1  N   UNL     1     -43.621  55.915 -55.517  1.00  0.00    -0.246 N 
HETATM    2  C   UNL     1     -42.814  55.265 -56.441  1.00  0.00     0.255 C 
HETATM    3  O   UNL     1     -41.866  54.529 -56.177  1.00  0.00    -0.270 OA
HETATM    4  H   UNL     1     -44.335  56.568 -55.853  1.00  0.00     0.192 HD
ENDROOT
BRANCH   2   5
HETATM    5  C   UNL     1     -43.236  55.543 -57.884  1.00  0.00     0.227 C 
BRANCH   5   6
HETATM    6  N   UNL     1     -42.617  56.750 -58.407  1.00  0.00    -0.349 N 
HETATM    7  C   UNL     1     -42.502  56.967 -59.754  1.00  0.00     0.241 C 
HETATM    8  O   UNL     1     -42.936  56.186 -60.595  1.00  0.00    -0.269 OA
HETATM    9  H   UNL     1     -42.370  57.477 -57.748  1.00  0.00     0.163 HD
BRANCH   7  10
HETATM   10  C   UNL     1     -41.877  58.265 -60.091  1.00  0.00     0.075 C 
HETATM   11  C   UNL     1     -42.278  59.380 -59.464  1.00  0.00     0.020 C 
BRANCH  11  12
HETATM   12  C   UNL     1     -41.640  60.674 -59.731  1.00  0.00    -0.003 A 
HETATM   13  C   UNL     1     -41.187  61.519 -58.700  1.00  0.00     0.078 A 
HETATM   14  C   UNL     1     -40.598  62.745 -59.035  1.00  0.00     0.037 A 
HETATM   15  C   UNL     1     -40.461  63.125 -60.372  1.00  0.00     0.003 A 
HETATM   16  C   UNL     1     -40.910  62.288 -61.389  1.00  0.00     0.001 A 
HETATM   17  C   UNL     1     -41.498  61.066 -61.071  1.00  0.00     0.014 A 
BRANCH  13  18
HETATM   18  O   UNL     1     -41.367  61.066 -57.417  1.00  0.00    -0.355 OA
HETATM   19  C   UNL     1     -42.332  61.739 -56.617  1.00  0.00     0.210 C 
ENDBRANCH  13  18
ENDBRANCH  11  12
ENDBRANCH   7  10
ENDBRANCH   5   6
ENDBRANCH   2   5
BRANCH   1  20
HETATM   20  N   UNL     1     -43.375  55.794 -54.181  1.00  0.00    -0.184 NA
HETATM   21  C   UNL     1     -42.372  56.479 -53.737  1.00  0.00     0.153 C 
BRANCH  21  22
HETATM   22  C   UNL     1     -42.016  56.423 -52.331  1.00  0.00     0.018 A 
HETATM   23  C   UNL     1     -42.301  57.428 -51.413  1.00  0.00     0.018 A 
HETATM   24  C   UNL     1     -42.990  58.735 -51.577  1.00  0.00     0.069 C 
HETATM   25  N   UNL     1     -41.819  57.027 -50.191  1.00  0.00    -0.358 N 
HETATM   26  H   UNL     1     -41.886  57.558 -49.335  1.00  0.00     0.166 HD
HETATM   27  C   UNL     1     -41.226  55.791 -50.284  1.00  0.00     0.043 A 
HETATM   28  C   UNL     1     -41.333  55.383 -51.614  1.00  0.00     0.004 A 
HETATM   29  C   UNL     1     -40.611  55.014 -49.294  1.00  0.00     0.030 A 
HETATM   30  C   UNL     1     -40.790  54.128 -51.967  1.00  0.00     0.014 A 
HETATM   31  C   UNL     1     -40.171  53.337 -50.992  1.00  0.00     0.001 A 
HETATM   32  C   UNL     1     -40.084  53.776 -49.674  1.00  0.00     0.002 A 
ENDBRANCH  21  22
ENDBRANCH   1  20
TORSDOF 7
ENDMDL
