MODEL 1
REMARK VINA RESULT:      -8.5      0.000      0.000
REMARK  9 active torsions:
REMARK  status: ('A' for Active; 'I' for Inactive)
REMARK    1  A    between atoms: C_4  and  C_5 
REMARK    2  A    between atoms: C_7  and  O_8 
REMARK    3  A    between atoms: C_10  and  O_11 
REMARK    4  A    between atoms: C_16  and  C_17 
REMARK    5  A    between atoms: C_20  and  C_21 
REMARK    6  A    between atoms: C_21  and  N_22 
REMARK    7  A    between atoms: N_22  and  C_23 
REMARK    8  A    between atoms: C_23  and  N_24 
REMARK    9  A    between atoms: N_24  and  C_25 
ROOT
HETATM    1  C   UNL     1     -41.401  59.701 -52.902  1.00  0.00     0.067 C 
HETATM    2  C   UNL     1     -40.250  58.702 -52.652  1.00  0.00     0.001 C 
HETATM    3  C   UNL     1     -40.747  57.348 -52.095  1.00  0.00     0.040 C 
HETATM    4  C   UNL     1     -41.481  57.526 -50.753  1.00  0.00     0.206 C 
HETATM    5  N   UNL     1     -41.632  59.023 -50.526  1.00  0.00    -0.065 N 
HETATM    6  H   UNL     1     -42.205  59.131 -49.671  1.00  0.00     0.280 HD
HETATM    7  C   UNL     1     -42.341  59.708 -51.675  1.00  0.00     0.246 C 
HETATM    8  C   UNL     1     -39.388  59.324 -51.515  1.00  0.00     0.033 C 
HETATM    9  C   UNL     1     -40.266  59.643 -50.292  1.00  0.00     0.236 C 
ENDROOT
BRANCH   4  10
HETATM   10  C   UNL     1     -42.834  56.774 -50.694  1.00  0.00     0.155 C 
BRANCH  10  11
HETATM   11  N   UNL     1     -42.867  55.528 -49.924  1.00  0.00    -0.365 N 
HETATM   12  H   UNL     1     -43.801  55.202 -49.689  1.00  0.00     0.161 HD
BRANCH  11  13
HETATM   13  C   UNL     1     -41.945  54.516 -49.958  1.00  0.00     0.172 C 
HETATM   14  S   UNL     1     -40.783  54.266 -48.791  1.00  0.00    -0.041 SA
BRANCH  13  15
HETATM   15  N   UNL     1     -42.122  53.582 -50.940  1.00  0.00    -0.333 N 
HETATM   16  H   UNL     1     -42.641  52.756 -50.654  1.00  0.00     0.168 HD
BRANCH  15  17
HETATM   17  C   UNL     1     -41.472  53.464 -52.202  1.00  0.00     0.045 A 
HETATM   18  C   UNL     1     -42.076  54.027 -53.363  1.00  0.00     0.001 A 
HETATM   19  C   UNL     1     -41.432  53.847 -54.616  1.00  0.00    -0.024 A 
HETATM   20  C   UNL     1     -43.273  54.787 -53.353  1.00  0.00     0.014 A 
HETATM   21  C   UNL     1     -41.989  54.393 -55.784  1.00  0.00     0.012 A 
HETATM   22  C   UNL     1     -40.234  53.125 -54.693  1.00  0.00     0.012 A 
HETATM   23  C   UNL     1     -43.173  55.124 -55.740  1.00  0.00     0.001 A 
HETATM   24  C   UNL     1     -43.814  55.324 -54.525  1.00  0.00     0.001 A 
HETATM   25  C   UNL     1     -39.666  52.562 -53.555  1.00  0.00     0.003 A 
HETATM   26  C   UNL     1     -40.286  52.723 -52.321  1.00  0.00     0.030 A 
ENDBRANCH  15  17
ENDBRANCH  13  15
ENDBRANCH  11  13
ENDBRANCH  10  11
ENDBRANCH   4  10
BRANCH   1  27
HETATM   27  C   UNL     1     -42.190  59.711 -54.182  1.00  0.00     0.038 C 
HETATM   28  N   UNL     1     -42.884  60.706 -54.829  1.00  0.00    -0.277 N 
HETATM   29  C   UNL     1     -43.227  62.047 -54.424  1.00  0.00     0.179 C 
HETATM   30  N   UNL     1     -43.276  60.354 -56.067  1.00  0.00    -0.172 NA
HETATM   31  C   UNL     1     -43.007  59.050 -56.182  1.00  0.00     0.089 C 
HETATM   32  C   UNL     1     -42.338  58.609 -55.017  1.00  0.00     0.061 C 
BRANCH  31  33
HETATM   33  C   UNL     1     -43.340  58.280 -57.386  1.00  0.00    -0.003 A 
HETATM   34  C   UNL     1     -44.675  58.141 -57.796  1.00  0.00     0.053 A 
HETATM   35  C   UNL     1     -45.002  57.439 -58.964  1.00  0.00     0.102 A 
HETATM   36  C   UNL     1     -43.979  56.863 -59.743  1.00  0.00     0.101 A 
HETATM   37  C   UNL     1     -42.652  56.984 -59.328  1.00  0.00     0.040 A 
HETATM   38  C   UNL     1     -42.335  57.686 -58.161  1.00  0.00     0.017 A 
BRANCH  35  39
HETATM   39  O   UNL     1     -46.282  57.273 -59.437  1.00  0.00    -0.353 OA
HETATM   40  C   UNL     1     -46.868  58.350 -60.152  1.00  0.00     0.210 C 
ENDBRANCH  35  39
BRANCH  36  41
HETATM   41  O   UNL     1     -44.380  56.201 -60.877  1.00  0.00    -0.353 OA
HETATM   42  C   UNL     1     -44.696  54.822 -60.762  1.00  0.00     0.210 C 
ENDBRANCH  36  41
ENDBRANCH  31  33
ENDBRANCH   1  27
TORSDOF 9
ENDMDL
MODEL 2
REMARK VINA RESULT:      -8.4      3.848      7.701
REMARK  9 active torsions:
REMARK  status: ('A' for Active; 'I' for Inactive)
REMARK    1  A    between atoms: C_4  and  C_5 
REMARK    2  A    between atoms: C_7  and  O_8 
REMARK    3  A    between atoms: C_10  and  O_11 
REMARK    4  A    between atoms: C_16  and  C_17 
REMARK    5  A    between atoms: C_20  and  C_21 
REMARK    6  A    between atoms: C_21  and  N_22 
REMARK    7  A    between atoms: N_22  and  C_23 
REMARK    8  A    between atoms: C_23  and  N_24 
REMARK    9  A    between atoms: N_24  and  C_25 
ROOT
HETATM    1  C   UNL     1     -42.747  57.234 -57.097  1.00  0.00     0.067 C 
HETATM    2  C   UNL     1     -42.164  58.664 -57.136  1.00  0.00     0.001 C 
HETATM    3  C   UNL     1     -43.168  59.730 -56.636  1.00  0.00     0.040 C 
HETATM    4  C   UNL     1     -44.447  59.746 -57.493  1.00  0.00     0.206 C 
HETATM    5  N   UNL     1     -44.361  58.558 -58.440  1.00  0.00    -0.065 N 
HETATM    6  H   UNL     1     -45.262  58.524 -58.946  1.00  0.00     0.280 HD
HETATM    7  C   UNL     1     -44.170  57.250 -57.701  1.00  0.00     0.246 C 
HETATM    8  C   UNL     1     -41.936  58.988 -58.641  1.00  0.00     0.033 C 
HETATM    9  C   UNL     1     -43.237  58.780 -59.436  1.00  0.00     0.236 C 
ENDROOT
BRANCH   4  10
HETATM   10  C   UNL     1     -45.745  59.745 -56.649  1.00  0.00     0.155 C 
BRANCH  10  11
HETATM   11  N   UNL     1     -45.591  59.832 -55.195  1.00  0.00    -0.365 N 
HETATM   12  H   UNL     1     -45.043  59.081 -54.783  1.00  0.00     0.161 HD
BRANCH  11  13
HETATM   13  C   UNL     1     -45.582  60.972 -54.435  1.00  0.00     0.172 C 
HETATM   14  S   UNL     1     -46.502  62.322 -54.760  1.00  0.00    -0.041 SA
BRANCH  13  15
HETATM   15  N   UNL     1     -44.886  60.900 -53.262  1.00  0.00    -0.333 N 
HETATM   16  H   UNL     1     -44.413  61.759 -52.994  1.00  0.00     0.168 HD
BRANCH  15  17
HETATM   17  C   UNL     1     -44.503  59.754 -52.509  1.00  0.00     0.045 A 
HETATM   18  C   UNL     1     -43.187  59.226 -52.645  1.00  0.00     0.001 A 
HETATM   19  C   UNL     1     -42.850  58.051 -51.922  1.00  0.00    -0.024 A 
HETATM   20  C   UNL     1     -42.168  59.813 -53.438  1.00  0.00     0.014 A 
HETATM   21  C   UNL     1     -41.561  57.503 -52.021  1.00  0.00     0.012 A 
HETATM   22  C   UNL     1     -43.803  57.433 -51.103  1.00  0.00     0.012 A 
HETATM   23  C   UNL     1     -40.588  58.099 -52.820  1.00  0.00     0.001 A 
HETATM   24  C   UNL     1     -40.890  59.255 -53.526  1.00  0.00     0.001 A 
HETATM   25  C   UNL     1     -45.091  57.945 -50.995  1.00  0.00     0.003 A 
HETATM   26  C   UNL     1     -45.440  59.092 -51.699  1.00  0.00     0.030 A 
ENDBRANCH  15  17
ENDBRANCH  13  15
ENDBRANCH  11  13
ENDBRANCH  10  11
ENDBRANCH   4  10
BRANCH   1  27
HETATM   27  C   UNL     1     -42.700  56.383 -55.859  1.00  0.00     0.038 C 
HETATM   28  N   UNL     1     -43.634  56.120 -54.885  1.00  0.00    -0.277 N 
HETATM   29  C   UNL     1     -44.932  56.696 -54.630  1.00  0.00     0.179 C 
HETATM   30  N   UNL     1     -43.265  55.130 -54.055  1.00  0.00    -0.172 NA
HETATM   31  C   UNL     1     -41.993  54.851 -54.357  1.00  0.00     0.089 C 
HETATM   32  C   UNL     1     -41.601  55.623 -55.474  1.00  0.00     0.061 C 
BRANCH  31  33
HETATM   33  C   UNL     1     -41.212  53.846 -53.627  1.00  0.00    -0.003 A 
HETATM   34  C   UNL     1     -41.099  53.908 -52.228  1.00  0.00     0.053 A 
HETATM   35  C   UNL     1     -40.387  52.934 -51.517  1.00  0.00     0.102 A 
HETATM   36  C   UNL     1     -39.773  51.872 -52.210  1.00  0.00     0.101 A 
HETATM   37  C   UNL     1     -39.867  51.816 -53.602  1.00  0.00     0.040 A 
HETATM   38  C   UNL     1     -40.581  52.794 -54.303  1.00  0.00     0.017 A 
BRANCH  35  39
HETATM   39  O   UNL     1     -40.245  52.920 -50.151  1.00  0.00    -0.353 OA
HETATM   40  C   UNL     1     -39.829  54.120 -49.516  1.00  0.00     0.210 C 
ENDBRANCH  35  39
BRANCH  36  41
HETATM   41  O   UNL     1     -39.103  50.953 -51.442  1.00  0.00    -0.353 OA
HETATM   42  C   UNL     1     -39.659  49.651 -51.330  1.00  0.00     0.210 C 
ENDBRANCH  36  41
ENDBRANCH  31  33
ENDBRANCH   1  27
TORSDOF 9
ENDMDL
MODEL 3
REMARK VINA RESULT:      -8.4      3.546      6.780
REMARK  9 active torsions:
REMARK  status: ('A' for Active; 'I' for Inactive)
REMARK    1  A    between atoms: C_4  and  C_5 
REMARK    2  A    between atoms: C_7  and  O_8 
REMARK    3  A    between atoms: C_10  and  O_11 
REMARK    4  A    between atoms: C_16  and  C_17 
REMARK    5  A    between atoms: C_20  and  C_21 
REMARK    6  A    between atoms: C_21  and  N_22 
REMARK    7  A    between atoms: N_22  and  C_23 
REMARK    8  A    between atoms: C_23  and  N_24 
REMARK    9  A    between atoms: N_24  and  C_25 
ROOT
HETATM    1  C   UNL     1     -43.384  59.050 -58.062  1.00  0.00     0.067 C 
HETATM    2  C   UNL     1     -44.076  58.363 -59.261  1.00  0.00     0.001 C 
HETATM    3  C   UNL     1     -44.393  56.873 -58.993  1.00  0.00     0.040 C 
HETATM    4  C   UNL     1     -43.113  56.070 -58.698  1.00  0.00     0.206 C 
HETATM    5  N   UNL     1     -41.975  57.074 -58.584  1.00  0.00    -0.065 N 
HETATM    6  H   UNL     1     -41.140  56.536 -58.296  1.00  0.00     0.280 HD
HETATM    7  C   UNL     1     -42.252  58.136 -57.540  1.00  0.00     0.246 C 
HETATM    8  C   UNL     1     -43.028  58.362 -60.411  1.00  0.00     0.033 C 
HETATM    9  C   UNL     1     -41.717  57.708 -59.939  1.00  0.00     0.236 C 
ENDROOT
BRANCH   4  10
HETATM   10  C   UNL     1     -43.237  55.164 -57.448  1.00  0.00     0.155 C 
BRANCH  10  11
HETATM   11  N   UNL     1     -42.071  55.088 -56.565  1.00  0.00    -0.365 N 
HETATM   12  H   UNL     1     -41.293  55.682 -56.841  1.00  0.00     0.161 HD
BRANCH  11  13
HETATM   13  C   UNL     1     -42.070  54.804 -55.225  1.00  0.00     0.172 C 
HETATM   14  S   UNL     1     -43.445  54.671 -54.294  1.00  0.00    -0.041 SA
BRANCH  13  15
HETATM   15  N   UNL     1     -40.861  54.459 -54.691  1.00  0.00    -0.333 N 
HETATM   16  H   UNL     1     -40.091  54.440 -55.355  1.00  0.00     0.168 HD
BRANCH  15  17
HETATM   17  C   UNL     1     -40.567  53.868 -53.429  1.00  0.00     0.045 A 
HETATM   18  C   UNL     1     -40.256  52.480 -53.353  1.00  0.00     0.001 A 
HETATM   19  C   UNL     1     -40.020  51.907 -52.075  1.00  0.00    -0.024 A 
HETATM   20  C   UNL     1     -40.136  51.625 -54.478  1.00  0.00     0.014 A 
HETATM   21  C   UNL     1     -39.702  50.545 -51.956  1.00  0.00     0.012 A 
HETATM   22  C   UNL     1     -40.101  52.701 -50.924  1.00  0.00     0.012 A 
HETATM   23  C   UNL     1     -39.604  49.731 -53.083  1.00  0.00     0.001 A 
HETATM   24  C   UNL     1     -39.818  50.271 -54.343  1.00  0.00     0.001 A 
HETATM   25  C   UNL     1     -40.427  54.050 -51.009  1.00  0.00     0.003 A 
HETATM   26  C   UNL     1     -40.667  54.627 -52.251  1.00  0.00     0.030 A 
ENDBRANCH  15  17
ENDBRANCH  13  15
ENDBRANCH  11  13
ENDBRANCH  10  11
ENDBRANCH   4  10
BRANCH   1  27
HETATM   27  C   UNL     1     -44.162  59.644 -56.921  1.00  0.00     0.038 C 
HETATM   28  N   UNL     1     -45.159  60.590 -56.879  1.00  0.00    -0.277 N 
HETATM   29  C   UNL     1     -45.694  61.456 -57.901  1.00  0.00     0.179 C 
HETATM   30  N   UNL     1     -45.741  60.686 -55.671  1.00  0.00    -0.172 NA
HETATM   31  C   UNL     1     -45.007  59.934 -54.846  1.00  0.00     0.089 C 
HETATM   32  C   UNL     1     -44.002  59.275 -55.591  1.00  0.00     0.061 C 
BRANCH  31  33
HETATM   33  C   UNL     1     -45.298  59.821 -53.412  1.00  0.00    -0.003 A 
HETATM   34  C   UNL     1     -45.063  58.617 -52.729  1.00  0.00     0.053 A 
HETATM   35  C   UNL     1     -45.303  58.509 -51.353  1.00  0.00     0.102 A 
HETATM   36  C   UNL     1     -45.787  59.623 -50.638  1.00  0.00     0.101 A 
HETATM   37  C   UNL     1     -46.039  60.816 -51.317  1.00  0.00     0.040 A 
HETATM   38  C   UNL     1     -45.796  60.914 -52.691  1.00  0.00     0.017 A 
BRANCH  35  39
HETATM   39  O   UNL     1     -45.085  57.371 -50.615  1.00  0.00    -0.353 OA
HETATM   40  C   UNL     1     -43.988  56.546 -50.979  1.00  0.00     0.210 C 
ENDBRANCH  35  39
BRANCH  36  41
HETATM   41  O   UNL     1     -45.987  59.440 -49.293  1.00  0.00    -0.353 OA
HETATM   42  C   UNL     1     -45.643  60.507 -48.421  1.00  0.00     0.210 C 
ENDBRANCH  36  41
ENDBRANCH  31  33
ENDBRANCH   1  27
TORSDOF 9
ENDMDL
MODEL 4
REMARK VINA RESULT:      -8.3      1.946      3.010
REMARK  9 active torsions:
REMARK  status: ('A' for Active; 'I' for Inactive)
REMARK    1  A    between atoms: C_4  and  C_5 
REMARK    2  A    between atoms: C_7  and  O_8 
REMARK    3  A    between atoms: C_10  and  O_11 
REMARK    4  A    between atoms: C_16  and  C_17 
REMARK    5  A    between atoms: C_20  and  C_21 
REMARK    6  A    between atoms: C_21  and  N_22 
REMARK    7  A    between atoms: N_22  and  C_23 
REMARK    8  A    between atoms: C_23  and  N_24 
REMARK    9  A    between atoms: N_24  and  C_25 
ROOT
HETATM    1  C   UNL     1     -45.002  60.716 -52.581  1.00  0.00     0.067 C 
HETATM    2  C   UNL     1     -43.822  61.628 -52.177  1.00  0.00     0.001 C 
HETATM    3  C   UNL     1     -42.509  60.841 -51.955  1.00  0.00     0.040 C 
HETATM    4  C   UNL     1     -42.663  59.792 -50.838  1.00  0.00     0.206 C 
HETATM    5  N   UNL     1     -44.137  59.762 -50.459  1.00  0.00    -0.065 N 
HETATM    6  H   UNL     1     -44.245  58.993 -49.776  1.00  0.00     0.280 HD
HETATM    7  C   UNL     1     -45.028  59.482 -51.650  1.00  0.00     0.246 C 
HETATM    8  C   UNL     1     -44.194  62.210 -50.783  1.00  0.00     0.033 C 
HETATM    9  C   UNL     1     -44.520  61.073 -49.798  1.00  0.00     0.236 C 
ENDROOT
BRANCH   4  10
HETATM   10  C   UNL     1     -42.119  58.397 -51.234  1.00  0.00     0.155 C 
BRANCH  10  11
HETATM   11  N   UNL     1     -42.646  57.247 -50.496  1.00  0.00    -0.365 N 
HETATM   12  H   UNL     1     -43.537  57.413 -50.034  1.00  0.00     0.161 HD
BRANCH  11  13
HETATM   13  C   UNL     1     -42.435  55.923 -50.777  1.00  0.00     0.172 C 
HETATM   14  S   UNL     1     -43.578  54.727 -50.575  1.00  0.00    -0.041 SA
BRANCH  13  15
HETATM   15  N   UNL     1     -41.259  55.628 -51.408  1.00  0.00    -0.333 N 
HETATM   16  H   UNL     1     -40.438  56.074 -51.008  1.00  0.00     0.168 HD
BRANCH  15  17
HETATM   17  C   UNL     1     -41.043  55.024 -52.679  1.00  0.00     0.045 A 
HETATM   18  C   UNL     1     -40.541  53.693 -52.753  1.00  0.00     0.001 A 
HETATM   19  C   UNL     1     -40.285  53.136 -54.034  1.00  0.00    -0.024 A 
HETATM   20  C   UNL     1     -40.303  52.865 -51.627  1.00  0.00     0.014 A 
HETATM   21  C   UNL     1     -39.798  51.825 -54.152  1.00  0.00     0.012 A 
HETATM   22  C   UNL     1     -40.519  53.893 -55.189  1.00  0.00     0.012 A 
HETATM   23  C   UNL     1     -39.563  51.043 -53.024  1.00  0.00     0.001 A 
HETATM   24  C   UNL     1     -39.818  51.561 -51.762  1.00  0.00     0.001 A 
HETATM   25  C   UNL     1     -40.989  55.199 -55.103  1.00  0.00     0.003 A 
HETATM   26  C   UNL     1     -41.241  55.763 -53.857  1.00  0.00     0.030 A 
ENDBRANCH  15  17
ENDBRANCH  13  15
ENDBRANCH  11  13
ENDBRANCH  10  11
ENDBRANCH   4  10
BRANCH   1  27
HETATM   27  C   UNL     1     -45.254  60.316 -54.008  1.00  0.00     0.038 C 
HETATM   28  N   UNL     1     -45.871  60.964 -55.051  1.00  0.00    -0.277 N 
HETATM   29  C   UNL     1     -46.632  62.189 -55.095  1.00  0.00     0.179 C 
HETATM   30  N   UNL     1     -45.698  60.345 -56.232  1.00  0.00    -0.172 NA
HETATM   31  C   UNL     1     -45.118  59.173 -55.952  1.00  0.00     0.089 C 
HETATM   32  C   UNL     1     -44.835  59.114 -54.568  1.00  0.00     0.061 C 
BRANCH  31  33
HETATM   33  C   UNL     1     -44.809  58.180 -56.987  1.00  0.00    -0.003 A 
HETATM   34  C   UNL     1     -45.555  58.133 -58.175  1.00  0.00     0.053 A 
HETATM   35  C   UNL     1     -45.246  57.213 -59.186  1.00  0.00     0.102 A 
HETATM   36  C   UNL     1     -44.169  56.320 -59.013  1.00  0.00     0.101 A 
HETATM   37  C   UNL     1     -43.437  56.352 -57.825  1.00  0.00     0.040 A 
HETATM   38  C   UNL     1     -43.753  57.274 -56.822  1.00  0.00     0.017 A 
BRANCH  35  39
HETATM   39  O   UNL     1     -45.919  57.116 -60.379  1.00  0.00    -0.353 OA
HETATM   40  C   UNL     1     -47.208  56.519 -60.366  1.00  0.00     0.210 C 
ENDBRANCH  35  39
BRANCH  36  41
HETATM   41  O   UNL     1     -43.924  55.458 -60.053  1.00  0.00    -0.353 OA
HETATM   42  C   UNL     1     -44.487  54.156 -59.981  1.00  0.00     0.210 C 
ENDBRANCH  36  41
ENDBRANCH  31  33
ENDBRANCH   1  27
TORSDOF 9
ENDMDL
MODEL 5
REMARK VINA RESULT:      -8.3      3.572      8.086
REMARK  9 active torsions:
REMARK  status: ('A' for Active; 'I' for Inactive)
REMARK    1  A    between atoms: C_4  and  C_5 
REMARK    2  A    between atoms: C_7  and  O_8 
REMARK    3  A    between atoms: C_10  and  O_11 
REMARK    4  A    between atoms: C_16  and  C_17 
REMARK    5  A    between atoms: C_20  and  C_21 
REMARK    6  A    between atoms: C_21  and  N_22 
REMARK    7  A    between atoms: N_22  and  C_23 
REMARK    8  A    between atoms: C_23  and  N_24 
REMARK    9  A    between atoms: N_24  and  C_25 
ROOT
HETATM    1  C   UNL     1     -43.040  56.744 -57.598  1.00  0.00     0.067 C 
HETATM    2  C   UNL     1     -42.056  57.772 -58.198  1.00  0.00     0.001 C 
HETATM    3  C   UNL     1     -42.421  59.230 -57.833  1.00  0.00     0.040 C 
HETATM    4  C   UNL     1     -43.825  59.604 -58.345  1.00  0.00     0.206 C 
HETATM    5  N   UNL     1     -44.456  58.328 -58.881  1.00  0.00    -0.065 N 
HETATM    6  H   UNL     1     -45.428  58.570 -59.138  1.00  0.00     0.280 HD
HETATM    7  C   UNL     1     -44.488  57.225 -57.843  1.00  0.00     0.246 C 
HETATM    8  C   UNL     1     -42.233  57.678 -59.741  1.00  0.00     0.033 C 
HETATM    9  C   UNL     1     -43.711  57.873 -60.123  1.00  0.00     0.236 C 
ENDROOT
BRANCH   4  10
HETATM   10  C   UNL     1     -44.700  60.298 -57.272  1.00  0.00     0.155 C 
BRANCH  10  11
HETATM   11  N   UNL     1     -44.065  60.587 -55.984  1.00  0.00    -0.365 N 
HETATM   12  H   UNL     1     -43.380  59.896 -55.687  1.00  0.00     0.161 HD
BRANCH  11  13
HETATM   13  C   UNL     1     -43.843  61.822 -55.434  1.00  0.00     0.172 C 
HETATM   14  S   UNL     1     -44.861  63.128 -55.622  1.00  0.00    -0.041 SA
BRANCH  13  15
HETATM   15  N   UNL     1     -42.800  61.904 -54.556  1.00  0.00    -0.333 N 
HETATM   16  H   UNL     1     -41.903  62.126 -54.980  1.00  0.00     0.168 HD
BRANCH  15  17
HETATM   17  C   UNL     1     -42.722  61.468 -53.203  1.00  0.00     0.045 A 
HETATM   18  C   UNL     1     -42.101  60.223 -52.896  1.00  0.00     0.001 A 
HETATM   19  C   UNL     1     -42.086  59.789 -51.544  1.00  0.00    -0.024 A 
HETATM   20  C   UNL     1     -41.465  59.390 -53.851  1.00  0.00     0.014 A 
HETATM   21  C   UNL     1     -41.477  58.572 -51.197  1.00  0.00     0.012 A 
HETATM   22  C   UNL     1     -42.678  60.575 -50.547  1.00  0.00     0.012 A 
HETATM   23  C   UNL     1     -40.872  57.772 -52.163  1.00  0.00     0.001 A 
HETATM   24  C   UNL     1     -40.863  58.181 -53.489  1.00  0.00     0.001 A 
HETATM   25  C   UNL     1     -43.299  61.778 -50.862  1.00  0.00     0.003 A 
HETATM   26  C   UNL     1     -43.329  62.217 -52.182  1.00  0.00     0.030 A 
ENDBRANCH  15  17
ENDBRANCH  13  15
ENDBRANCH  11  13
ENDBRANCH  10  11
ENDBRANCH   4  10
BRANCH   1  27
HETATM   27  C   UNL     1     -42.883  56.204 -56.203  1.00  0.00     0.038 C 
HETATM   28  N   UNL     1     -43.618  56.389 -55.056  1.00  0.00    -0.277 N 
HETATM   29  C   UNL     1     -44.702  57.292 -54.754  1.00  0.00     0.179 C 
HETATM   30  N   UNL     1     -43.266  55.552 -54.065  1.00  0.00    -0.172 NA
HETATM   31  C   UNL     1     -42.161  54.927 -54.486  1.00  0.00     0.089 C 
HETATM   32  C   UNL     1     -41.885  55.318 -55.816  1.00  0.00     0.061 C 
BRANCH  31  33
HETATM   33  C   UNL     1     -41.439  53.958 -53.654  1.00  0.00    -0.003 A 
HETATM   34  C   UNL     1     -40.696  52.924 -54.245  1.00  0.00     0.053 A 
HETATM   35  C   UNL     1     -39.973  52.015 -53.462  1.00  0.00     0.102 A 
HETATM   36  C   UNL     1     -39.986  52.137 -52.058  1.00  0.00     0.101 A 
HETATM   37  C   UNL     1     -40.738  53.153 -51.466  1.00  0.00     0.040 A 
HETATM   38  C   UNL     1     -41.457  54.055 -52.256  1.00  0.00     0.017 A 
BRANCH  35  39
HETATM   39  O   UNL     1     -39.213  50.988 -53.968  1.00  0.00    -0.353 OA
HETATM   40  C   UNL     1     -39.894  49.881 -54.540  1.00  0.00     0.210 C 
ENDBRANCH  35  39
BRANCH  36  41
HETATM   41  O   UNL     1     -39.245  51.215 -51.362  1.00  0.00    -0.353 OA
HETATM   42  C   UNL     1     -39.943  50.202 -50.653  1.00  0.00     0.210 C 
ENDBRANCH  36  41
ENDBRANCH  31  33
ENDBRANCH   1  27
TORSDOF 9
ENDMDL
MODEL 6
REMARK VINA RESULT:      -8.1      3.931      8.042
REMARK  9 active torsions:
REMARK  status: ('A' for Active; 'I' for Inactive)
REMARK    1  A    between atoms: C_4  and  C_5 
REMARK    2  A    between atoms: C_7  and  O_8 
REMARK    3  A    between atoms: C_10  and  O_11 
REMARK    4  A    between atoms: C_16  and  C_17 
REMARK    5  A    between atoms: C_20  and  C_21 
REMARK    6  A    between atoms: C_21  and  N_22 
REMARK    7  A    between atoms: N_22  and  C_23 
REMARK    8  A    between atoms: C_23  and  N_24 
REMARK    9  A    between atoms: N_24  and  C_25 
ROOT
HETATM    1  C   UNL     1     -42.631  58.776 -53.509  1.00  0.00     0.067 C 
HETATM    2  C   UNL     1     -44.080  59.283 -53.683  1.00  0.00     0.001 C 
HETATM    3  C   UNL     1     -44.386  59.728 -55.132  1.00  0.00     0.040 C 
HETATM    4  C   UNL     1     -43.457  60.872 -55.577  1.00  0.00     0.206 C 
HETATM    5  N   UNL     1     -42.413  61.048 -54.484  1.00  0.00    -0.065 N 
HETATM    6  H   UNL     1     -41.743  61.754 -54.833  1.00  0.00     0.280 HD
HETATM    7  C   UNL     1     -41.662  59.764 -54.198  1.00  0.00     0.246 C 
HETATM    8  C   UNL     1     -44.181  60.577 -52.824  1.00  0.00     0.033 C 
HETATM    9  C   UNL     1     -43.078  61.572 -53.224  1.00  0.00     0.236 C 
ENDROOT
BRANCH   4  10
HETATM   10  C   UNL     1     -42.826  60.637 -56.973  1.00  0.00     0.155 C 
BRANCH  10  11
HETATM   11  N   UNL     1     -43.725  60.714 -58.127  1.00  0.00    -0.365 N 
HETATM   12  H   UNL     1     -44.703  60.859 -57.892  1.00  0.00     0.161 HD
BRANCH  11  13
HETATM   13  C   UNL     1     -43.411  61.159 -59.385  1.00  0.00     0.172 C 
HETATM   14  S   UNL     1     -42.826  62.682 -59.722  1.00  0.00    -0.041 SA
BRANCH  13  15
HETATM   15  N   UNL     1     -43.443  60.217 -60.374  1.00  0.00    -0.333 N 
HETATM   16  H   UNL     1     -43.756  60.560 -61.278  1.00  0.00     0.168 HD
BRANCH  15  17
HETATM   17  C   UNL     1     -43.369  58.799 -60.273  1.00  0.00     0.045 A 
HETATM   18  C   UNL     1     -44.567  58.030 -60.219  1.00  0.00     0.001 A 
HETATM   19  C   UNL     1     -44.462  56.622 -60.064  1.00  0.00    -0.024 A 
HETATM   20  C   UNL     1     -45.871  58.573 -60.339  1.00  0.00     0.014 A 
HETATM   21  C   UNL     1     -45.617  55.826 -60.016  1.00  0.00     0.012 A 
HETATM   22  C   UNL     1     -43.202  56.018 -59.961  1.00  0.00     0.012 A 
HETATM   23  C   UNL     1     -46.885  56.394 -60.124  1.00  0.00     0.001 A 
HETATM   24  C   UNL     1     -47.012  57.767 -60.289  1.00  0.00     0.001 A 
HETATM   25  C   UNL     1     -42.040  56.782 -59.993  1.00  0.00     0.003 A 
HETATM   26  C   UNL     1     -42.124  58.163 -60.139  1.00  0.00     0.030 A 
ENDBRANCH  15  17
ENDBRANCH  13  15
ENDBRANCH  11  13
ENDBRANCH  10  11
ENDBRANCH   4  10
BRANCH   1  27
HETATM   27  C   UNL     1     -42.239  57.353 -53.799  1.00  0.00     0.038 C 
HETATM   28  N   UNL     1     -42.137  56.646 -54.973  1.00  0.00    -0.277 N 
HETATM   29  C   UNL     1     -42.523  56.980 -56.323  1.00  0.00     0.179 C 
HETATM   30  N   UNL     1     -41.544  55.450 -54.817  1.00  0.00    -0.172 NA
HETATM   31  C   UNL     1     -41.415  55.271 -53.499  1.00  0.00     0.089 C 
HETATM   32  C   UNL     1     -41.850  56.437 -52.828  1.00  0.00     0.061 C 
BRANCH  31  33
HETATM   33  C   UNL     1     -40.850  54.047 -52.921  1.00  0.00    -0.003 A 
HETATM   34  C   UNL     1     -40.348  53.032 -53.752  1.00  0.00     0.053 A 
HETATM   35  C   UNL     1     -39.773  51.875 -53.212  1.00  0.00     0.102 A 
HETATM   36  C   UNL     1     -39.694  51.721 -51.813  1.00  0.00     0.101 A 
HETATM   37  C   UNL     1     -40.209  52.719 -50.984  1.00  0.00     0.040 A 
HETATM   38  C   UNL     1     -40.781  53.871 -51.533  1.00  0.00     0.017 A 
BRANCH  35  39
HETATM   39  O   UNL     1     -39.248  50.848 -53.959  1.00  0.00    -0.353 OA
HETATM   40  C   UNL     1     -40.152  49.906 -54.517  1.00  0.00     0.210 C 
ENDBRANCH  35  39
BRANCH  36  41
HETATM   41  O   UNL     1     -39.108  50.564 -51.363  1.00  0.00    -0.353 OA
HETATM   42  C   UNL     1     -39.910  49.663 -50.614  1.00  0.00     0.210 C 
ENDBRANCH  36  41
ENDBRANCH  31  33
ENDBRANCH   1  27
TORSDOF 9
ENDMDL
MODEL 7
REMARK VINA RESULT:      -8.1      1.924      3.631
REMARK  9 active torsions:
REMARK  status: ('A' for Active; 'I' for Inactive)
REMARK    1  A    between atoms: C_4  and  C_5 
REMARK    2  A    between atoms: C_7  and  O_8 
REMARK    3  A    between atoms: C_10  and  O_11 
REMARK    4  A    between atoms: C_16  and  C_17 
REMARK    5  A    between atoms: C_20  and  C_21 
REMARK    6  A    between atoms: C_21  and  N_22 
REMARK    7  A    between atoms: N_22  and  C_23 
REMARK    8  A    between atoms: C_23  and  N_24 
REMARK    9  A    between atoms: N_24  and  C_25 
ROOT
HETATM    1  C   UNL     1     -44.951  59.256 -53.269  1.00  0.00     0.067 C 
HETATM    2  C   UNL     1     -44.277  60.486 -52.623  1.00  0.00     0.001 C 
HETATM    3  C   UNL     1     -42.845  60.186 -52.122  1.00  0.00     0.040 C 
HETATM    4  C   UNL     1     -42.841  59.068 -51.063  1.00  0.00     0.206 C 
HETATM    5  N   UNL     1     -44.253  58.503 -51.010  1.00  0.00    -0.065 N 
HETATM    6  H   UNL     1     -44.218  57.695 -50.365  1.00  0.00     0.280 HD
HETATM    7  C   UNL     1     -44.728  58.022 -52.365  1.00  0.00     0.246 C 
HETATM    8  C   UNL     1     -45.104  60.798 -51.342  1.00  0.00     0.033 C 
HETATM    9  C   UNL     1     -45.200  59.549 -50.449  1.00  0.00     0.236 C 
ENDROOT
BRANCH   4  10
HETATM   10  C   UNL     1     -41.772  57.980 -51.330  1.00  0.00     0.155 C 
BRANCH  10  11
HETATM   11  N   UNL     1     -41.673  56.893 -50.353  1.00  0.00    -0.365 N 
HETATM   12  H   UNL     1     -41.851  57.173 -49.391  1.00  0.00     0.161 HD
BRANCH  11  13
HETATM   13  C   UNL     1     -41.922  55.564 -50.572  1.00  0.00     0.172 C 
HETATM   14  S   UNL     1     -43.436  54.870 -50.505  1.00  0.00    -0.041 SA
BRANCH  13  15
HETATM   15  N   UNL     1     -40.865  54.828 -51.026  1.00  0.00    -0.333 N 
HETATM   16  H   UNL     1     -40.007  54.940 -50.493  1.00  0.00     0.168 HD
BRANCH  15  17
HETATM   17  C   UNL     1     -40.704  54.150 -52.268  1.00  0.00     0.045 A 
HETATM   18  C   UNL     1     -40.290  52.787 -52.281  1.00  0.00     0.001 A 
HETATM   19  C   UNL     1     -40.085  52.153 -53.535  1.00  0.00    -0.024 A 
HETATM   20  C   UNL     1     -40.092  52.001 -51.118  1.00  0.00     0.014 A 
HETATM   21  C   UNL     1     -39.686  50.808 -53.593  1.00  0.00     0.012 A 
HETATM   22  C   UNL     1     -40.284  52.866 -54.724  1.00  0.00     0.012 A 
HETATM   23  C   UNL     1     -39.488  50.068 -52.429  1.00  0.00     0.001 A 
HETATM   24  C   UNL     1     -39.694  50.662 -51.192  1.00  0.00     0.001 A 
HETATM   25  C   UNL     1     -40.668  54.203 -54.698  1.00  0.00     0.003 A 
HETATM   26  C   UNL     1     -40.867  54.842 -53.479  1.00  0.00     0.030 A 
ENDBRANCH  15  17
ENDBRANCH  13  15
ENDBRANCH  11  13
ENDBRANCH  10  11
ENDBRANCH   4  10
BRANCH   1  27
HETATM   27  C   UNL     1     -44.752  58.901 -54.717  1.00  0.00     0.038 C 
HETATM   28  N   UNL     1     -43.677  58.384 -55.400  1.00  0.00    -0.277 N 
HETATM   29  C   UNL     1     -42.312  58.152 -54.993  1.00  0.00     0.179 C 
HETATM   30  N   UNL     1     -43.980  58.011 -56.655  1.00  0.00    -0.172 NA
HETATM   31  C   UNL     1     -45.222  58.452 -56.880  1.00  0.00     0.089 C 
HETATM   32  C   UNL     1     -45.734  59.024 -55.693  1.00  0.00     0.061 C 
BRANCH  31  33
HETATM   33  C   UNL     1     -45.897  58.279 -58.172  1.00  0.00    -0.003 A 
HETATM   34  C   UNL     1     -45.669  57.132 -58.948  1.00  0.00     0.053 A 
HETATM   35  C   UNL     1     -46.335  56.939 -60.165  1.00  0.00     0.102 A 
HETATM   36  C   UNL     1     -47.250  57.908 -60.622  1.00  0.00     0.101 A 
HETATM   37  C   UNL     1     -47.465  59.059 -59.863  1.00  0.00     0.040 A 
HETATM   38  C   UNL     1     -46.795  59.242 -58.648  1.00  0.00     0.017 A 
BRANCH  35  39
HETATM   39  O   UNL     1     -46.175  55.838 -60.971  1.00  0.00    -0.353 OA
HETATM   40  C   UNL     1     -44.970  55.096 -60.847  1.00  0.00     0.210 C 
ENDBRANCH  35  39
BRANCH  36  41
HETATM   41  O   UNL     1     -47.869  57.641 -61.818  1.00  0.00    -0.353 OA
HETATM   42  C   UNL     1     -48.483  58.724 -62.502  1.00  0.00     0.210 C 
ENDBRANCH  36  41
ENDBRANCH  31  33
ENDBRANCH   1  27
TORSDOF 9
ENDMDL
MODEL 8
REMARK VINA RESULT:      -7.9      3.744      7.176
REMARK  9 active torsions:
REMARK  status: ('A' for Active; 'I' for Inactive)
REMARK    1  A    between atoms: C_4  and  C_5 
REMARK    2  A    between atoms: C_7  and  O_8 
REMARK    3  A    between atoms: C_10  and  O_11 
REMARK    4  A    between atoms: C_16  and  C_17 
REMARK    5  A    between atoms: C_20  and  C_21 
REMARK    6  A    between atoms: C_21  and  N_22 
REMARK    7  A    between atoms: N_22  and  C_23 
REMARK    8  A    between atoms: C_23  and  N_24 
REMARK    9  A    between atoms: N_24  and  C_25 
ROOT
HETATM    1  C   UNL     1     -43.559  58.524 -51.653  1.00  0.00     0.067 C 
HETATM    2  C   UNL     1     -45.042  58.546 -52.086  1.00  0.00     0.001 C 
HETATM    3  C   UNL     1     -45.312  59.545 -53.236  1.00  0.00     0.040 C 
HETATM    4  C   UNL     1     -44.946  60.984 -52.829  1.00  0.00     0.206 C 
HETATM    5  N   UNL     1     -44.255  60.900 -51.476  1.00  0.00    -0.065 N 
HETATM    6  H   UNL     1     -43.932  61.858 -51.255  1.00  0.00     0.280 HD
HETATM    7  C   UNL     1     -43.054  59.977 -51.502  1.00  0.00     0.246 C 
HETATM    8  C   UNL     1     -45.832  59.099 -50.865  1.00  0.00     0.033 C 
HETATM    9  C   UNL     1     -45.251  60.454 -50.421  1.00  0.00     0.236 C 
ENDROOT
BRANCH   4  10
HETATM   10  C   UNL     1     -44.091  61.718 -53.892  1.00  0.00     0.155 C 
BRANCH  10  11
HETATM   11  N   UNL     1     -43.720  60.955 -55.086  1.00  0.00    -0.365 N 
HETATM   12  H   UNL     1     -44.342  60.180 -55.302  1.00  0.00     0.161 HD
BRANCH  11  13
HETATM   13  C   UNL     1     -43.056  61.425 -56.189  1.00  0.00     0.172 C 
HETATM   14  S   UNL     1     -43.169  62.987 -56.757  1.00  0.00    -0.041 SA
BRANCH  13  15
HETATM   15  N   UNL     1     -42.135  60.577 -56.735  1.00  0.00    -0.333 N 
HETATM   16  H   UNL     1     -41.180  60.726 -56.421  1.00  0.00     0.168 HD
BRANCH  15  17
HETATM   17  C   UNL     1     -42.258  59.711 -57.859  1.00  0.00     0.045 A 
HETATM   18  C   UNL     1     -42.496  58.321 -57.658  1.00  0.00     0.001 A 
HETATM   19  C   UNL     1     -42.561  57.473 -58.795  1.00  0.00    -0.024 A 
HETATM   20  C   UNL     1     -42.704  57.721 -56.390  1.00  0.00     0.014 A 
HETATM   21  C   UNL     1     -42.803  56.099 -58.642  1.00  0.00     0.012 A 
HETATM   22  C   UNL     1     -42.387  58.006 -60.079  1.00  0.00     0.012 A 
HETATM   23  C   UNL     1     -42.990  55.540 -57.380  1.00  0.00     0.001 A 
HETATM   24  C   UNL     1     -42.943  56.350 -56.255  1.00  0.00     0.001 A 
HETATM   25  C   UNL     1     -42.134  59.361 -60.261  1.00  0.00     0.003 A 
HETATM   26  C   UNL     1     -42.061  60.205 -59.158  1.00  0.00     0.030 A 
ENDBRANCH  15  17
ENDBRANCH  13  15
ENDBRANCH  11  13
ENDBRANCH  10  11
ENDBRANCH   4  10
BRANCH   1  27
HETATM   27  C   UNL     1     -42.534  57.670 -52.345  1.00  0.00     0.038 C 
HETATM   28  N   UNL     1     -41.423  57.986 -53.090  1.00  0.00    -0.277 N 
HETATM   29  C   UNL     1     -40.944  59.248 -53.598  1.00  0.00     0.179 C 
HETATM   30  N   UNL     1     -40.646  56.920 -53.354  1.00  0.00    -0.172 NA
HETATM   31  C   UNL     1     -41.336  55.851 -52.945  1.00  0.00     0.089 C 
HETATM   32  C   UNL     1     -42.528  56.280 -52.318  1.00  0.00     0.061 C 
BRANCH  31  33
HETATM   33  C   UNL     1     -40.836  54.481 -53.109  1.00  0.00    -0.003 A 
HETATM   34  C   UNL     1     -40.562  53.683 -51.987  1.00  0.00     0.053 A 
HETATM   35  C   UNL     1     -40.119  52.361 -52.132  1.00  0.00     0.102 A 
HETATM   36  C   UNL     1     -39.946  51.820 -53.421  1.00  0.00     0.101 A 
HETATM   37  C   UNL     1     -40.201  52.616 -54.539  1.00  0.00     0.040 A 
HETATM   38  C   UNL     1     -40.642  53.935 -54.384  1.00  0.00     0.017 A 
BRANCH  35  39
HETATM   39  O   UNL     1     -39.845  51.516 -51.085  1.00  0.00    -0.353 OA
HETATM   40  C   UNL     1     -40.457  51.792 -49.833  1.00  0.00     0.210 C 
ENDBRANCH  35  39
BRANCH  36  41
HETATM   41  O   UNL     1     -39.520  50.516 -53.479  1.00  0.00    -0.353 OA
HETATM   42  C   UNL     1     -39.789  49.784 -54.666  1.00  0.00     0.210 C 
ENDBRANCH  36  41
ENDBRANCH  31  33
ENDBRANCH   1  27
TORSDOF 9
ENDMDL
MODEL 9
REMARK VINA RESULT:      -7.9      3.717      7.992
REMARK  9 active torsions:
REMARK  status: ('A' for Active; 'I' for Inactive)
REMARK    1  A    between atoms: C_4  and  C_5 
REMARK    2  A    between atoms: C_7  and  O_8 
REMARK    3  A    between atoms: C_10  and  O_11 
REMARK    4  A    between atoms: C_16  and  C_17 
REMARK    5  A    between atoms: C_20  and  C_21 
REMARK    6  A    between atoms: C_21  and  N_22 
REMARK    7  A    between atoms: N_22  and  C_23 
REMARK    8  A    between atoms: C_23  and  N_24 
REMARK    9  A    between atoms: N_24  and  C_25 
ROOT
HETATM    1  C   UNL     1     -43.229  59.372 -53.526  1.00  0.00     0.067 C 
HETATM    2  C   UNL     1     -44.456  59.764 -54.377  1.00  0.00     0.001 C 
HETATM    3  C   UNL     1     -44.224  59.551 -55.892  1.00  0.00     0.040 C 
HETATM    4  C   UNL     1     -43.039  60.392 -56.403  1.00  0.00     0.206 C 
HETATM    5  N   UNL     1     -42.375  61.011 -55.182  1.00  0.00    -0.065 N 
HETATM    6  H   UNL     1     -41.530  61.498 -55.526  1.00  0.00     0.280 HD
HETATM    7  C   UNL     1     -41.955  59.968 -54.168  1.00  0.00     0.246 C 
HETATM    8  C   UNL     1     -44.623  61.300 -54.198  1.00  0.00     0.033 C 
HETATM    9  C   UNL     1     -43.312  62.025 -54.551  1.00  0.00     0.236 C 
ENDROOT
BRANCH   4  10
HETATM   10  C   UNL     1     -42.049  59.582 -57.275  1.00  0.00     0.155 C 
BRANCH  10  11
HETATM   11  N   UNL     1     -41.846  60.043 -58.651  1.00  0.00    -0.365 N 
HETATM   12  H   UNL     1     -41.115  59.551 -59.158  1.00  0.00     0.161 HD
BRANCH  11  13
HETATM   13  C   UNL     1     -42.787  60.594 -59.481  1.00  0.00     0.172 C 
HETATM   14  S   UNL     1     -43.181  62.212 -59.508  1.00  0.00    -0.041 SA
BRANCH  13  15
HETATM   15  N   UNL     1     -43.296  59.762 -60.438  1.00  0.00    -0.333 N 
HETATM   16  H   UNL     1     -42.880  59.867 -61.359  1.00  0.00     0.168 HD
BRANCH  15  17
HETATM   17  C   UNL     1     -44.484  58.977 -60.412  1.00  0.00     0.045 A 
HETATM   18  C   UNL     1     -44.398  57.572 -60.194  1.00  0.00     0.001 A 
HETATM   19  C   UNL     1     -45.593  56.806 -60.228  1.00  0.00    -0.024 A 
HETATM   20  C   UNL     1     -43.193  56.879 -59.914  1.00  0.00     0.014 A 
HETATM   21  C   UNL     1     -45.554  55.420 -60.009  1.00  0.00     0.012 A 
HETATM   22  C   UNL     1     -46.822  57.432 -60.477  1.00  0.00     0.012 A 
HETATM   23  C   UNL     1     -44.351  54.769 -59.748  1.00  0.00     0.001 A 
HETATM   24  C   UNL     1     -43.171  55.498 -59.698  1.00  0.00     0.001 A 
HETATM   25  C   UNL     1     -46.890  58.801 -60.711  1.00  0.00     0.003 A 
HETATM   26  C   UNL     1     -45.729  59.566 -60.687  1.00  0.00     0.030 A 
ENDBRANCH  15  17
ENDBRANCH  13  15
ENDBRANCH  11  13
ENDBRANCH  10  11
ENDBRANCH   4  10
BRANCH   1  27
HETATM   27  C   UNL     1     -42.988  57.959 -53.070  1.00  0.00     0.038 C 
HETATM   28  N   UNL     1     -43.652  57.153 -52.176  1.00  0.00    -0.277 N 
HETATM   29  C   UNL     1     -44.718  57.438 -51.247  1.00  0.00     0.179 C 
HETATM   30  N   UNL     1     -43.239  55.874 -52.213  1.00  0.00    -0.172 NA
HETATM   31  C   UNL     1     -42.161  55.858 -53.003  1.00  0.00     0.089 C 
HETATM   32  C   UNL     1     -41.966  57.147 -53.549  1.00  0.00     0.061 C 
BRANCH  31  33
HETATM   33  C   UNL     1     -41.387  54.637 -53.255  1.00  0.00    -0.003 A 
HETATM   34  C   UNL     1     -40.829  53.914 -52.188  1.00  0.00     0.053 A 
HETATM   35  C   UNL     1     -40.119  52.727 -52.414  1.00  0.00     0.102 A 
HETATM   36  C   UNL     1     -39.961  52.246 -53.728  1.00  0.00     0.101 A 
HETATM   37  C   UNL     1     -40.499  52.972 -54.793  1.00  0.00     0.040 A 
HETATM   38  C   UNL     1     -41.206  54.156 -54.558  1.00  0.00     0.017 A 
BRANCH  35  39
HETATM   39  O   UNL     1     -39.558  51.959 -51.423  1.00  0.00    -0.353 OA
HETATM   40  C   UNL     1     -40.362  51.642 -50.295  1.00  0.00     0.210 C 
ENDBRANCH  35  39
BRANCH  36  41
HETATM   41  O   UNL     1     -39.263  51.072 -53.865  1.00  0.00    -0.353 OA
HETATM   42  C   UNL     1     -39.962  49.939 -54.359  1.00  0.00     0.210 C 
ENDBRANCH  36  41
ENDBRANCH  31  33
ENDBRANCH   1  27
TORSDOF 9
ENDMDL
MODEL 10
REMARK VINA RESULT:      -7.8      3.221      7.453
REMARK  9 active torsions:
REMARK  status: ('A' for Active; 'I' for Inactive)
REMARK    1  A    between atoms: C_4  and  C_5 
REMARK    2  A    between atoms: C_7  and  O_8 
REMARK    3  A    between atoms: C_10  and  O_11 
REMARK    4  A    between atoms: C_16  and  C_17 
REMARK    5  A    between atoms: C_20  and  C_21 
REMARK    6  A    between atoms: C_21  and  N_22 
REMARK    7  A    between atoms: N_22  and  C_23 
REMARK    8  A    between atoms: C_23  and  N_24 
REMARK    9  A    between atoms: N_24  and  C_25 
ROOT
HETATM    1  C   UNL     1     -43.050  59.173 -52.567  1.00  0.00     0.067 C 
HETATM    2  C   UNL     1     -44.279  59.739 -53.313  1.00  0.00     0.001 C 
HETATM    3  C   UNL     1     -44.092  59.748 -54.848  1.00  0.00     0.040 C 
HETATM    4  C   UNL     1     -42.884  60.608 -55.263  1.00  0.00     0.206 C 
HETATM    5  N   UNL     1     -42.163  61.007 -53.984  1.00  0.00    -0.065 N 
HETATM    6  H   UNL     1     -41.305  61.505 -54.277  1.00  0.00     0.280 HD
HETATM    7  C   UNL     1     -41.767  59.806 -53.152  1.00  0.00     0.246 C 
HETATM    8  C   UNL     1     -44.371  61.236 -52.900  1.00  0.00     0.033 C 
HETATM    9  C   UNL     1     -43.038  61.952 -53.180  1.00  0.00     0.236 C 
ENDROOT
BRANCH   4  10
HETATM   10  C   UNL     1     -41.952  59.899 -56.277  1.00  0.00     0.155 C 
BRANCH  10  11
HETATM   11  N   UNL     1     -42.594  59.215 -57.402  1.00  0.00    -0.365 N 
HETATM   12  H   UNL     1     -42.660  59.769 -58.252  1.00  0.00     0.161 HD
BRANCH  11  13
HETATM   13  C   UNL     1     -42.605  57.867 -57.648  1.00  0.00     0.172 C 
HETATM   14  S   UNL     1     -42.602  56.697 -56.461  1.00  0.00    -0.041 SA
BRANCH  13  15
HETATM   15  N   UNL     1     -42.790  57.501 -58.951  1.00  0.00    -0.333 N 
HETATM   16  H   UNL     1     -42.211  58.001 -59.620  1.00  0.00     0.168 HD
BRANCH  15  17
HETATM   17  C   UNL     1     -43.841  56.738 -59.534  1.00  0.00     0.045 A 
HETATM   18  C   UNL     1     -45.043  57.386 -59.943  1.00  0.00     0.001 A 
HETATM   19  C   UNL     1     -46.095  56.591 -60.471  1.00  0.00    -0.024 A 
HETATM   20  C   UNL     1     -45.254  58.786 -59.886  1.00  0.00     0.014 A 
HETATM   21  C   UNL     1     -47.292  57.191 -60.894  1.00  0.00     0.012 A 
HETATM   22  C   UNL     1     -45.942  55.203 -60.575  1.00  0.00     0.012 A 
HETATM   23  C   UNL     1     -47.471  58.569 -60.813  1.00  0.00     0.001 A 
HETATM   24  C   UNL     1     -46.452  59.368 -60.312  1.00  0.00     0.001 A 
HETATM   25  C   UNL     1     -44.773  54.579 -60.152  1.00  0.00     0.003 A 
HETATM   26  C   UNL     1     -43.735  55.341 -59.628  1.00  0.00     0.030 A 
ENDBRANCH  15  17
ENDBRANCH  13  15
ENDBRANCH  11  13
ENDBRANCH  10  11
ENDBRANCH   4  10
BRANCH   1  27
HETATM   27  C   UNL     1     -42.862  57.699 -52.336  1.00  0.00     0.038 C 
HETATM   28  N   UNL     1     -43.614  56.769 -51.659  1.00  0.00    -0.277 N 
HETATM   29  C   UNL     1     -44.764  56.917 -50.800  1.00  0.00     0.179 C 
HETATM   30  N   UNL     1     -43.206  55.506 -51.872  1.00  0.00    -0.172 NA
HETATM   31  C   UNL     1     -42.057  55.598 -52.548  1.00  0.00     0.089 C 
HETATM   32  C   UNL     1     -41.803  56.957 -52.847  1.00  0.00     0.061 C 
BRANCH  31  33
HETATM   33  C   UNL     1     -41.270  54.421 -52.928  1.00  0.00    -0.003 A 
HETATM   34  C   UNL     1     -40.708  53.590 -51.945  1.00  0.00     0.053 A 
HETATM   35  C   UNL     1     -39.985  52.442 -52.296  1.00  0.00     0.102 A 
HETATM   36  C   UNL     1     -39.816  52.111 -53.655  1.00  0.00     0.101 A 
HETATM   37  C   UNL     1     -40.357  52.944 -54.636  1.00  0.00     0.040 A 
HETATM   38  C   UNL     1     -41.077  54.088 -54.275  1.00  0.00     0.017 A 
BRANCH  35  39
HETATM   39  O   UNL     1     -39.421  51.575 -51.392  1.00  0.00    -0.353 OA
HETATM   40  C   UNL     1     -40.264  51.013 -50.398  1.00  0.00     0.210 C 
ENDBRANCH  35  39
BRANCH  36  41
HETATM   41  O   UNL     1     -39.105  50.966 -53.916  1.00  0.00    -0.353 OA
HETATM   42  C   UNL     1     -39.834  49.799 -54.267  1.00  0.00     0.210 C 
ENDBRANCH  36  41
ENDBRANCH  31  33
ENDBRANCH   1  27
TORSDOF 9
ENDMDL
