MODEL 1
REMARK VINA RESULT:      -7.6      0.000      0.000
REMARK  4 active torsions:
REMARK  status: ('A' for Active; 'I' for Inactive)
REMARK    1  A    between atoms: C_5  and  N_6 
REMARK       I    between atoms: N_6  and  C_7 
REMARK    2  A    between atoms: C_7  and  C_8 
REMARK    3  A    between atoms: C_12  and  O_13 
REMARK    4  A    between atoms: C_19  and  C_20 
ROOT
HETATM    1  C   UNL     1     -44.607  57.160 -51.716  1.00  0.00     0.015 C 
HETATM    2  C   UNL     1     -43.460  56.711 -52.642  1.00  0.00    -0.040 C 
HETATM    3  C   UNL     1     -42.289  57.697 -52.460  1.00  0.00     0.015 C 
HETATM    4  C   UNL     1     -43.964  56.699 -54.100  1.00  0.00     0.039 C 
HETATM    5  C   UNL     1     -42.904  56.207 -55.103  1.00  0.00     0.122 C 
HETATM    6  C   UNL     1     -42.149  55.006 -54.605  1.00  0.00     0.007 A 
HETATM    7  C   UNL     1     -42.173  54.591 -53.285  1.00  0.00     0.047 A 
HETATM    8  N   UNL     1     -41.464  53.528 -52.844  1.00  0.00    -0.237 NA
HETATM    9  C   UNL     1     -40.671  52.886 -53.726  1.00  0.00     0.133 A 
HETATM   10  N   UNL     1     -40.573  53.231 -55.022  1.00  0.00    -0.244 NA
HETATM   11  C   UNL     1     -41.298  54.290 -55.424  1.00  0.00     0.130 A 
HETATM   12  C   UNL     1     -43.036  55.277 -52.256  1.00  0.00     0.069 C 
ENDROOT
BRANCH   5  13
HETATM   13  N   UNL     1     -43.537  55.930 -56.384  1.00  0.00    -0.347 N 
HETATM   14  C   UNL     1     -43.183  56.601 -57.530  1.00  0.00     0.270 C 
HETATM   15  O   UNL     1     -42.297  57.448 -57.552  1.00  0.00    -0.266 OA
HETATM   16  H   UNL     1     -44.362  55.346 -56.393  1.00  0.00     0.163 HD
BRANCH  14  17
HETATM   17  C   UNL     1     -43.920  56.235 -58.709  1.00  0.00     0.122 A 
HETATM   18  N   UNL     1     -45.250  56.559 -58.847  1.00  0.00    -0.270 N 
HETATM   19  H   UNL     1     -45.827  57.056 -58.176  1.00  0.00     0.189 HD
HETATM   20  N   UNL     1     -45.792  56.161 -60.016  1.00  0.00    -0.149 NA
HETATM   21  C   UNL     1     -44.766  55.578 -60.614  1.00  0.00     0.183 A 
HETATM   22  C   UNL     1     -43.582  55.580 -59.879  1.00  0.00     0.096 A 
BRANCH  21  23
HETATM   23  O   UNL     1     -45.011  55.086 -61.823  1.00  0.00    -0.344 OA
HETATM   24  H   UNL     1     -44.287  54.456 -61.983  1.00  0.00     0.219 HD
ENDBRANCH  21  23
ENDBRANCH  14  17
ENDBRANCH   5  13
BRANCH   9  25
HETATM   25  C   UNL     1     -39.908  51.656 -53.242  1.00  0.00     0.011 C 
HETATM   26  C   UNL     1     -39.884  51.672 -51.705  1.00  0.00     0.023 C 
HETATM   27  C   UNL     1     -40.580  50.355 -53.723  1.00  0.00     0.023 C 
HETATM   28  C   UNL     1     -38.462  51.668 -53.776  1.00  0.00     0.023 C 
ENDBRANCH   9  25
TORSDOF 4
ENDMDL
MODEL 2
REMARK VINA RESULT:      -7.6      2.747      6.713
REMARK  4 active torsions:
REMARK  status: ('A' for Active; 'I' for Inactive)
REMARK    1  A    between atoms: C_5  and  N_6 
REMARK       I    between atoms: N_6  and  C_7 
REMARK    2  A    between atoms: C_7  and  C_8 
REMARK    3  A    between atoms: C_12  and  O_13 
REMARK    4  A    between atoms: C_19  and  C_20 
ROOT
HETATM    1  C   UNL     1     -40.643  58.144 -51.352  1.00  0.00     0.015 C 
HETATM    2  C   UNL     1     -41.642  57.346 -52.211  1.00  0.00    -0.040 C 
HETATM    3  C   UNL     1     -43.066  57.724 -51.759  1.00  0.00     0.015 C 
HETATM    4  C   UNL     1     -41.375  55.838 -52.026  1.00  0.00     0.039 C 
HETATM    5  C   UNL     1     -42.288  54.950 -52.891  1.00  0.00     0.122 C 
HETATM    6  C   UNL     1     -42.447  55.474 -54.291  1.00  0.00     0.007 A 
HETATM    7  C   UNL     1     -42.086  56.757 -54.665  1.00  0.00     0.047 A 
HETATM    8  N   UNL     1     -42.263  57.226 -55.920  1.00  0.00    -0.237 NA
HETATM    9  C   UNL     1     -42.858  56.417 -56.820  1.00  0.00     0.133 A 
HETATM   10  N   UNL     1     -43.256  55.164 -56.541  1.00  0.00    -0.244 NA
HETATM   11  C   UNL     1     -43.058  54.731 -55.282  1.00  0.00     0.130 A 
HETATM   12  C   UNL     1     -41.424  57.705 -53.698  1.00  0.00     0.069 C 
ENDROOT
BRANCH   5  13
HETATM   13  N   UNL     1     -41.777  53.587 -52.899  1.00  0.00    -0.347 N 
HETATM   14  C   UNL     1     -40.606  53.254 -53.535  1.00  0.00     0.270 C 
HETATM   15  O   UNL     1     -39.906  54.083 -54.106  1.00  0.00    -0.266 OA
HETATM   16  H   UNL     1     -42.381  52.848 -52.566  1.00  0.00     0.163 HD
BRANCH  14  17
HETATM   17  C   UNL     1     -40.250  51.863 -53.479  1.00  0.00     0.122 A 
HETATM   18  N   UNL     1     -40.339  51.059 -54.593  1.00  0.00    -0.270 N 
HETATM   19  H   UNL     1     -40.650  51.336 -55.519  1.00  0.00     0.189 HD
HETATM   20  N   UNL     1     -39.953  49.784 -54.380  1.00  0.00    -0.149 NA
HETATM   21  C   UNL     1     -39.616  49.805 -53.102  1.00  0.00     0.183 A 
HETATM   22  C   UNL     1     -39.770  51.040 -52.476  1.00  0.00     0.096 A 
BRANCH  21  23
HETATM   23  O   UNL     1     -39.176  48.654 -52.606  1.00  0.00    -0.344 OA
HETATM   24  H   UNL     1     -39.812  48.430 -51.904  1.00  0.00     0.219 HD
ENDBRANCH  21  23
ENDBRANCH  14  17
ENDBRANCH   5  13
BRANCH   9  25
HETATM   25  C   UNL     1     -43.015  56.927 -58.251  1.00  0.00     0.011 C 
HETATM   26  C   UNL     1     -44.439  57.481 -58.416  1.00  0.00     0.023 C 
HETATM   27  C   UNL     1     -41.999  58.043 -58.561  1.00  0.00     0.023 C 
HETATM   28  C   UNL     1     -42.790  55.786 -59.262  1.00  0.00     0.023 C 
ENDBRANCH   9  25
TORSDOF 4
ENDMDL
MODEL 3
REMARK VINA RESULT:      -7.6      2.864      7.000
REMARK  4 active torsions:
REMARK  status: ('A' for Active; 'I' for Inactive)
REMARK    1  A    between atoms: C_5  and  N_6 
REMARK       I    between atoms: N_6  and  C_7 
REMARK    2  A    between atoms: C_7  and  C_8 
REMARK    3  A    between atoms: C_12  and  O_13 
REMARK    4  A    between atoms: C_19  and  C_20 
ROOT
HETATM    1  C   UNL     1     -41.090  59.352 -52.798  1.00  0.00     0.015 C 
HETATM    2  C   UNL     1     -41.942  58.363 -53.615  1.00  0.00    -0.040 C 
HETATM    3  C   UNL     1     -43.406  58.501 -53.151  1.00  0.00     0.015 C 
HETATM    4  C   UNL     1     -41.413  56.932 -53.387  1.00  0.00     0.039 C 
HETATM    5  C   UNL     1     -42.167  55.869 -54.208  1.00  0.00     0.122 C 
HETATM    6  C   UNL     1     -42.431  56.309 -55.622  1.00  0.00     0.007 A 
HETATM    7  C   UNL     1     -42.304  57.622 -56.041  1.00  0.00     0.047 A 
HETATM    8  N   UNL     1     -42.574  58.010 -57.307  1.00  0.00    -0.237 NA
HETATM    9  C   UNL     1     -43.029  57.080 -58.172  1.00  0.00     0.133 A 
HETATM   10  N   UNL     1     -43.198  55.786 -57.846  1.00  0.00    -0.244 NA
HETATM   11  C   UNL     1     -42.913  55.438 -56.578  1.00  0.00     0.130 A 
HETATM   12  C   UNL     1     -41.807  58.703 -55.116  1.00  0.00     0.069 C 
ENDROOT
BRANCH   5  13
HETATM   13  N   UNL     1     -41.425  54.617 -54.182  1.00  0.00    -0.347 N 
HETATM   14  C   UNL     1     -41.644  53.662 -53.219  1.00  0.00     0.270 C 
HETATM   15  O   UNL     1     -42.493  53.790 -52.343  1.00  0.00    -0.266 OA
HETATM   16  H   UNL     1     -40.625  54.522 -54.793  1.00  0.00     0.163 HD
BRANCH  14  17
HETATM   17  C   UNL     1     -40.812  52.494 -53.311  1.00  0.00     0.122 A 
HETATM   18  N   UNL     1     -40.006  52.108 -52.264  1.00  0.00    -0.270 N 
HETATM   19  H   UNL     1     -39.909  52.576 -51.368  1.00  0.00     0.189 HD
HETATM   20  N   UNL     1     -39.301  50.983 -52.501  1.00  0.00    -0.149 NA
HETATM   21  C   UNL     1     -39.687  50.666 -53.726  1.00  0.00     0.183 A 
HETATM   22  C   UNL     1     -40.609  51.542 -54.294  1.00  0.00     0.096 A 
BRANCH  21  23
HETATM   23  O   UNL     1     -39.146  49.563 -54.230  1.00  0.00    -0.344 OA
HETATM   24  H   UNL     1     -39.141  48.931 -53.491  1.00  0.00     0.219 HD
ENDBRANCH  21  23
ENDBRANCH  14  17
ENDBRANCH   5  13
BRANCH   9  25
HETATM   25  C   UNL     1     -43.288  57.505 -59.614  1.00  0.00     0.011 C 
HETATM   26  C   UNL     1     -43.942  56.329 -60.357  1.00  0.00     0.023 C 
HETATM   27  C   UNL     1     -44.226  58.726 -59.678  1.00  0.00     0.023 C 
HETATM   28  C   UNL     1     -41.969  57.883 -60.315  1.00  0.00     0.023 C 
ENDBRANCH   9  25
TORSDOF 4
ENDMDL
MODEL 4
REMARK VINA RESULT:      -7.5      3.267      7.041
REMARK  4 active torsions:
REMARK  status: ('A' for Active; 'I' for Inactive)
REMARK    1  A    between atoms: C_5  and  N_6 
REMARK       I    between atoms: N_6  and  C_7 
REMARK    2  A    between atoms: C_7  and  C_8 
REMARK    3  A    between atoms: C_12  and  O_13 
REMARK    4  A    between atoms: C_19  and  C_20 
ROOT
HETATM    1  C   UNL     1     -40.683  59.508 -50.676  1.00  0.00     0.015 C 
HETATM    2  C   UNL     1     -41.504  58.802 -51.771  1.00  0.00    -0.040 C 
HETATM    3  C   UNL     1     -42.995  58.917 -51.395  1.00  0.00     0.015 C 
HETATM    4  C   UNL     1     -41.061  57.327 -51.863  1.00  0.00     0.039 C 
HETATM    5  C   UNL     1     -41.787  56.544 -52.972  1.00  0.00     0.122 C 
HETATM    6  C   UNL     1     -41.908  57.328 -54.250  1.00  0.00     0.007 A 
HETATM    7  C   UNL     1     -41.688  58.692 -54.324  1.00  0.00     0.047 A 
HETATM    8  N   UNL     1     -41.831  59.390 -55.473  1.00  0.00    -0.237 NA
HETATM    9  C   UNL     1     -42.250  58.727 -56.569  1.00  0.00     0.133 A 
HETATM   10  N   UNL     1     -42.504  57.406 -56.584  1.00  0.00    -0.244 NA
HETATM   11  C   UNL     1     -42.345  56.745 -55.423  1.00  0.00     0.130 A 
HETATM   12  C   UNL     1     -41.226  59.485 -53.128  1.00  0.00     0.069 C 
ENDROOT
BRANCH   5  13
HETATM   13  N   UNL     1     -41.106  55.278 -53.201  1.00  0.00    -0.347 N 
HETATM   14  C   UNL     1     -41.698  54.072 -52.911  1.00  0.00     0.270 C 
HETATM   15  O   UNL     1     -42.840  53.985 -52.474  1.00  0.00    -0.266 OA
HETATM   16  H   UNL     1     -40.121  55.299 -53.427  1.00  0.00     0.163 HD
BRANCH  14  17
HETATM   17  C   UNL     1     -40.887  52.913 -53.165  1.00  0.00     0.122 A 
HETATM   18  N   UNL     1     -40.052  52.402 -52.198  1.00  0.00    -0.270 N 
HETATM   19  H   UNL     1     -39.917  52.764 -51.259  1.00  0.00     0.189 HD
HETATM   20  N   UNL     1     -39.373  51.303 -52.586  1.00  0.00    -0.149 NA
HETATM   21  C   UNL     1     -39.803  51.133 -53.824  1.00  0.00     0.183 A 
HETATM   22  C   UNL     1     -40.732  52.077 -54.257  1.00  0.00     0.096 A 
BRANCH  21  23
HETATM   23  O   UNL     1     -39.296  50.088 -54.469  1.00  0.00    -0.344 OA
HETATM   24  H   UNL     1     -40.023  49.443 -54.502  1.00  0.00     0.219 HD
ENDBRANCH  21  23
ENDBRANCH  14  17
ENDBRANCH   5  13
BRANCH   9  25
HETATM   25  C   UNL     1     -42.365  59.503 -57.879  1.00  0.00     0.011 C 
HETATM   26  C   UNL     1     -42.065  58.543 -59.040  1.00  0.00     0.023 C 
HETATM   27  C   UNL     1     -43.780  60.088 -58.060  1.00  0.00     0.023 C 
HETATM   28  C   UNL     1     -41.361  60.672 -57.908  1.00  0.00     0.023 C 
ENDBRANCH   9  25
TORSDOF 4
ENDMDL
MODEL 5
REMARK VINA RESULT:      -7.5      1.920      2.674
REMARK  4 active torsions:
REMARK  status: ('A' for Active; 'I' for Inactive)
REMARK    1  A    between atoms: C_5  and  N_6 
REMARK       I    between atoms: N_6  and  C_7 
REMARK    2  A    between atoms: C_7  and  C_8 
REMARK    3  A    between atoms: C_12  and  O_13 
REMARK    4  A    between atoms: C_19  and  C_20 
ROOT
HETATM    1  C   UNL     1     -45.732  60.234 -53.444  1.00  0.00     0.015 C 
HETATM    2  C   UNL     1     -44.498  59.385 -53.803  1.00  0.00    -0.040 C 
HETATM    3  C   UNL     1     -43.265  60.310 -53.792  1.00  0.00     0.015 C 
HETATM    4  C   UNL     1     -44.711  58.748 -55.192  1.00  0.00     0.039 C 
HETATM    5  C   UNL     1     -43.552  57.830 -55.621  1.00  0.00     0.122 C 
HETATM    6  C   UNL     1     -43.069  56.946 -54.504  1.00  0.00     0.007 A 
HETATM    7  C   UNL     1     -43.399  57.157 -53.177  1.00  0.00     0.047 A 
HETATM    8  N   UNL     1     -42.933  56.374 -52.179  1.00  0.00    -0.237 NA
HETATM    9  C   UNL     1     -42.076  55.383 -52.498  1.00  0.00     0.133 A 
HETATM   10  N   UNL     1     -41.688  55.117 -53.758  1.00  0.00    -0.244 NA
HETATM   11  C   UNL     1     -42.177  55.915 -54.725  1.00  0.00     0.130 A 
HETATM   12  C   UNL     1     -44.346  58.254 -52.762  1.00  0.00     0.069 C 
ENDROOT
BRANCH   5  13
HETATM   13  N   UNL     1     -43.958  57.037 -56.773  1.00  0.00    -0.347 N 
HETATM   14  C   UNL     1     -43.305  57.120 -57.979  1.00  0.00     0.270 C 
HETATM   15  O   UNL     1     -42.327  57.838 -58.152  1.00  0.00    -0.266 OA
HETATM   16  H   UNL     1     -44.836  56.538 -56.724  1.00  0.00     0.163 HD
BRANCH  14  17
HETATM   17  C   UNL     1     -43.844  56.297 -59.027  1.00  0.00     0.122 A 
HETATM   18  N   UNL     1     -44.232  54.999 -58.787  1.00  0.00    -0.270 N 
HETATM   19  H   UNL     1     -44.181  54.504 -57.902  1.00  0.00     0.189 HD
HETATM   20  N   UNL     1     -44.731  54.367 -59.869  1.00  0.00    -0.149 NA
HETATM   21  C   UNL     1     -44.651  55.303 -60.799  1.00  0.00     0.183 A 
HETATM   22  C   UNL     1     -44.116  56.515 -60.366  1.00  0.00     0.096 A 
BRANCH  21  23
HETATM   23  O   UNL     1     -45.094  54.956 -62.002  1.00  0.00    -0.344 OA
HETATM   24  H   UNL     1     -46.027  55.230 -62.008  1.00  0.00     0.219 HD
ENDBRANCH  21  23
ENDBRANCH  14  17
ENDBRANCH   5  13
BRANCH   9  25
HETATM   25  C   UNL     1     -41.587  54.467 -51.379  1.00  0.00     0.011 C 
HETATM   26  C   UNL     1     -42.812  53.882 -50.660  1.00  0.00     0.023 C 
HETATM   27  C   UNL     1     -40.729  53.314 -51.936  1.00  0.00     0.023 C 
HETATM   28  C   UNL     1     -40.727  55.253 -50.370  1.00  0.00     0.023 C 
ENDBRANCH   9  25
TORSDOF 4
ENDMDL
MODEL 6
REMARK VINA RESULT:      -7.5      3.380      7.315
REMARK  4 active torsions:
REMARK  status: ('A' for Active; 'I' for Inactive)
REMARK    1  A    between atoms: C_5  and  N_6 
REMARK       I    between atoms: N_6  and  C_7 
REMARK    2  A    between atoms: C_7  and  C_8 
REMARK    3  A    between atoms: C_12  and  O_13 
REMARK    4  A    between atoms: C_19  and  C_20 
ROOT
HETATM    1  C   UNL     1     -41.461  53.143 -53.475  1.00  0.00     0.015 C 
HETATM    2  C   UNL     1     -41.347  54.397 -54.362  1.00  0.00    -0.040 C 
HETATM    3  C   UNL     1     -39.929  54.424 -54.966  1.00  0.00     0.015 C 
HETATM    4  C   UNL     1     -41.615  55.650 -53.502  1.00  0.00     0.039 C 
HETATM    5  C   UNL     1     -41.579  56.959 -54.312  1.00  0.00     0.122 C 
HETATM    6  C   UNL     1     -42.288  56.843 -55.634  1.00  0.00     0.007 A 
HETATM    7  C   UNL     1     -42.644  55.629 -56.196  1.00  0.00     0.047 A 
HETATM    8  N   UNL     1     -43.253  55.537 -57.399  1.00  0.00    -0.237 NA
HETATM    9  C   UNL     1     -43.472  56.675 -58.088  1.00  0.00     0.133 A 
HETATM   10  N   UNL     1     -43.144  57.895 -57.626  1.00  0.00    -0.244 NA
HETATM   11  C   UNL     1     -42.545  57.947 -56.423  1.00  0.00     0.130 A 
HETATM   12  C   UNL     1     -42.416  54.326 -55.474  1.00  0.00     0.069 C 
ENDROOT
BRANCH   5  13
HETATM   13  N   UNL     1     -42.139  58.041 -53.515  1.00  0.00    -0.347 N 
HETATM   14  C   UNL     1     -41.372  59.092 -53.075  1.00  0.00     0.270 C 
HETATM   15  O   UNL     1     -40.182  59.201 -53.349  1.00  0.00    -0.266 OA
HETATM   16  H   UNL     1     -43.075  57.929 -53.148  1.00  0.00     0.163 HD
BRANCH  14  17
HETATM   17  C   UNL     1     -42.063  60.065 -52.274  1.00  0.00     0.122 A 
HETATM   18  N   UNL     1     -42.665  61.162 -52.846  1.00  0.00    -0.270 N 
HETATM   19  H   UNL     1     -42.686  61.397 -53.834  1.00  0.00     0.189 HD
HETATM   20  N   UNL     1     -43.285  61.970 -51.963  1.00  0.00    -0.149 NA
HETATM   21  C   UNL     1     -43.060  61.352 -50.815  1.00  0.00     0.183 A 
HETATM   22  C   UNL     1     -42.317  60.178 -50.918  1.00  0.00     0.096 A 
BRANCH  21  23
HETATM   23  O   UNL     1     -43.578  61.933 -49.739  1.00  0.00    -0.344 OA
HETATM   24  H   UNL     1     -44.458  62.235 -50.022  1.00  0.00     0.219 HD
ENDBRANCH  21  23
ENDBRANCH  14  17
ENDBRANCH   5  13
BRANCH   9  25
HETATM   25  C   UNL     1     -44.203  56.578 -59.425  1.00  0.00     0.011 C 
HETATM   26  C   UNL     1     -43.441  57.423 -60.458  1.00  0.00     0.023 C 
HETATM   27  C   UNL     1     -44.273  55.120 -59.918  1.00  0.00     0.023 C 
HETATM   28  C   UNL     1     -45.645  57.105 -59.296  1.00  0.00     0.023 C 
ENDBRANCH   9  25
TORSDOF 4
ENDMDL
MODEL 7
REMARK VINA RESULT:      -7.2      3.387      7.400
REMARK  4 active torsions:
REMARK  status: ('A' for Active; 'I' for Inactive)
REMARK    1  A    between atoms: C_5  and  N_6 
REMARK       I    between atoms: N_6  and  C_7 
REMARK    2  A    between atoms: C_7  and  C_8 
REMARK    3  A    between atoms: C_12  and  O_13 
REMARK    4  A    between atoms: C_19  and  C_20 
ROOT
HETATM    1  C   UNL     1     -41.477  52.886 -53.955  1.00  0.00     0.015 C 
HETATM    2  C   UNL     1     -41.572  54.332 -54.478  1.00  0.00    -0.040 C 
HETATM    3  C   UNL     1     -40.139  54.838 -54.737  1.00  0.00     0.015 C 
HETATM    4  C   UNL     1     -42.294  55.202 -53.428  1.00  0.00     0.039 C 
HETATM    5  C   UNL     1     -42.490  56.660 -53.882  1.00  0.00     0.122 C 
HETATM    6  C   UNL     1     -42.933  56.767 -55.314  1.00  0.00     0.007 A 
HETATM    7  C   UNL     1     -42.861  55.713 -56.209  1.00  0.00     0.047 A 
HETATM    8  N   UNL     1     -43.233  55.830 -57.503  1.00  0.00    -0.237 NA
HETATM    9  C   UNL     1     -43.644  57.040 -57.936  1.00  0.00     0.133 A 
HETATM   10  N   UNL     1     -43.729  58.121 -57.142  1.00  0.00    -0.244 NA
HETATM   11  C   UNL     1     -43.355  57.963 -55.860  1.00  0.00     0.130 A 
HETATM   12  C   UNL     1     -42.402  54.342 -55.780  1.00  0.00     0.069 C 
ENDROOT
BRANCH   5  13
HETATM   13  N   UNL     1     -43.434  57.324 -52.994  1.00  0.00    -0.347 N 
HETATM   14  C   UNL     1     -43.061  58.376 -52.193  1.00  0.00     0.270 C 
HETATM   15  O   UNL     1     -41.926  58.840 -52.197  1.00  0.00    -0.266 OA
HETATM   16  H   UNL     1     -44.338  56.896 -52.851  1.00  0.00     0.163 HD
BRANCH  14  17
HETATM   17  C   UNL     1     -44.099  58.906 -51.352  1.00  0.00     0.122 A 
HETATM   18  N   UNL     1     -45.218  58.165 -51.047  1.00  0.00    -0.270 N 
HETATM   19  H   UNL     1     -45.427  57.223 -51.364  1.00  0.00     0.189 HD
HETATM   20  N   UNL     1     -46.089  58.796 -50.234  1.00  0.00    -0.149 NA
HETATM   21  C   UNL     1     -45.488  59.956 -50.030  1.00  0.00     0.183 A 
HETATM   22  C   UNL     1     -44.265  60.105 -50.681  1.00  0.00     0.096 A 
BRANCH  21  23
HETATM   23  O   UNL     1     -46.131  60.804 -49.235  1.00  0.00    -0.344 OA
HETATM   24  H   UNL     1     -46.614  60.236 -48.610  1.00  0.00     0.219 HD
ENDBRANCH  21  23
ENDBRANCH  14  17
ENDBRANCH   5  13
BRANCH   9  25
HETATM   25  C   UNL     1     -44.111  57.163 -59.384  1.00  0.00     0.011 C 
HETATM   26  C   UNL     1     -44.924  55.909 -59.741  1.00  0.00     0.023 C 
HETATM   27  C   UNL     1     -44.994  58.410 -59.582  1.00  0.00     0.023 C 
HETATM   28  C   UNL     1     -42.906  57.279 -60.337  1.00  0.00     0.023 C 
ENDBRANCH   9  25
TORSDOF 4
ENDMDL
MODEL 8
REMARK VINA RESULT:      -6.7      6.482      9.858
REMARK  4 active torsions:
REMARK  status: ('A' for Active; 'I' for Inactive)
REMARK    1  A    between atoms: C_5  and  N_6 
REMARK       I    between atoms: N_6  and  C_7 
REMARK    2  A    between atoms: C_7  and  C_8 
REMARK    3  A    between atoms: C_12  and  O_13 
REMARK    4  A    between atoms: C_19  and  C_20 
ROOT
HETATM    1  C   UNL     1     -42.980  63.988 -51.189  1.00  0.00     0.015 C 
HETATM    2  C   UNL     1     -43.831  62.721 -51.394  1.00  0.00    -0.040 C 
HETATM    3  C   UNL     1     -45.047  63.100 -52.262  1.00  0.00     0.015 C 
HETATM    4  C   UNL     1     -44.269  62.178 -50.018  1.00  0.00     0.039 C 
HETATM    5  C   UNL     1     -45.082  60.874 -50.112  1.00  0.00     0.122 C 
HETATM    6  C   UNL     1     -44.506  59.902 -51.105  1.00  0.00     0.007 A 
HETATM    7  C   UNL     1     -43.558  60.258 -52.049  1.00  0.00     0.047 A 
HETATM    8  N   UNL     1     -43.071  59.383 -52.956  1.00  0.00    -0.237 NA
HETATM    9  C   UNL     1     -43.571  58.130 -52.960  1.00  0.00     0.133 A 
HETATM   10  N   UNL     1     -44.504  57.703 -52.091  1.00  0.00    -0.244 NA
HETATM   11  C   UNL     1     -44.960  58.602 -51.200  1.00  0.00     0.130 A 
HETATM   12  C   UNL     1     -42.971  61.646 -52.095  1.00  0.00     0.069 C 
ENDROOT
BRANCH   5  13
HETATM   13  N   UNL     1     -45.187  60.269 -48.792  1.00  0.00    -0.347 N 
HETATM   14  C   UNL     1     -46.063  60.740 -47.845  1.00  0.00     0.270 C 
HETATM   15  O   UNL     1     -46.828  61.674 -48.059  1.00  0.00    -0.266 OA
HETATM   16  H   UNL     1     -44.488  59.591 -48.520  1.00  0.00     0.163 HD
BRANCH  14  17
HETATM   17  C   UNL     1     -46.028  60.056 -46.581  1.00  0.00     0.122 A 
HETATM   18  N   UNL     1     -45.167  60.448 -45.582  1.00  0.00    -0.270 N 
HETATM   19  H   UNL     1     -44.499  61.211 -45.621  1.00  0.00     0.189 HD
HETATM   20  N   UNL     1     -45.269  59.716 -44.453  1.00  0.00    -0.149 NA
HETATM   21  C   UNL     1     -46.219  58.852 -44.766  1.00  0.00     0.183 A 
HETATM   22  C   UNL     1     -46.737  58.991 -46.053  1.00  0.00     0.096 A 
BRANCH  21  23
HETATM   23  O   UNL     1     -46.545  57.987 -43.813  1.00  0.00    -0.344 OA
HETATM   24  H   UNL     1     -47.513  58.052 -43.742  1.00  0.00     0.219 HD
ENDBRANCH  21  23
ENDBRANCH  14  17
ENDBRANCH   5  13
BRANCH   9  25
HETATM   25  C   UNL     1     -42.987  57.127 -53.951  1.00  0.00     0.011 C 
HETATM   26  C   UNL     1     -41.705  56.536 -53.345  1.00  0.00     0.023 C 
HETATM   27  C   UNL     1     -43.981  55.985 -54.241  1.00  0.00     0.023 C 
HETATM   28  C   UNL     1     -42.652  57.815 -55.288  1.00  0.00     0.023 C 
ENDBRANCH   9  25
TORSDOF 4
ENDMDL
MODEL 9
REMARK VINA RESULT:      -6.7      3.905      6.240
REMARK  4 active torsions:
REMARK  status: ('A' for Active; 'I' for Inactive)
REMARK    1  A    between atoms: C_5  and  N_6 
REMARK       I    between atoms: N_6  and  C_7 
REMARK    2  A    between atoms: C_7  and  C_8 
REMARK    3  A    between atoms: C_12  and  O_13 
REMARK    4  A    between atoms: C_19  and  C_20 
ROOT
HETATM    1  C   UNL     1     -44.733  55.442 -61.217  1.00  0.00     0.015 C 
HETATM    2  C   UNL     1     -44.492  56.211 -59.905  1.00  0.00    -0.040 C 
HETATM    3  C   UNL     1     -45.867  56.549 -59.293  1.00  0.00     0.015 C 
HETATM    4  C   UNL     1     -43.684  57.489 -60.209  1.00  0.00     0.039 C 
HETATM    5  C   UNL     1     -43.341  58.304 -58.948  1.00  0.00     0.122 C 
HETATM    6  C   UNL     1     -42.892  57.438 -57.804  1.00  0.00     0.007 A 
HETATM    7  C   UNL     1     -43.072  56.066 -57.777  1.00  0.00     0.047 A 
HETATM    8  N   UNL     1     -42.692  55.303 -56.728  1.00  0.00    -0.237 NA
HETATM    9  C   UNL     1     -42.162  55.922 -55.654  1.00  0.00     0.133 A 
HETATM   10  N   UNL     1     -41.965  57.251 -55.587  1.00  0.00    -0.244 NA
HETATM   11  C   UNL     1     -42.351  57.976 -56.652  1.00  0.00     0.130 A 
HETATM   12  C   UNL     1     -43.667  55.324 -58.946  1.00  0.00     0.069 C 
ENDROOT
BRANCH   5  13
HETATM   13  N   UNL     1     -42.333  59.303 -59.272  1.00  0.00    -0.347 N 
HETATM   14  C   UNL     1     -42.587  60.649 -59.177  1.00  0.00     0.270 C 
HETATM   15  O   UNL     1     -43.661  61.093 -58.787  1.00  0.00    -0.266 OA
HETATM   16  H   UNL     1     -41.484  58.995 -59.728  1.00  0.00     0.163 HD
BRANCH  14  17
HETATM   17  C   UNL     1     -41.500  61.509 -59.560  1.00  0.00     0.122 A 
HETATM   18  N   UNL     1     -41.291  61.851 -60.876  1.00  0.00    -0.270 N 
HETATM   19  H   UNL     1     -41.841  61.551 -61.676  1.00  0.00     0.189 HD
HETATM   20  N   UNL     1     -40.243  62.676 -61.068  1.00  0.00    -0.149 NA
HETATM   21  C   UNL     1     -39.796  62.849 -59.836  1.00  0.00     0.183 A 
HETATM   22  C   UNL     1     -40.509  62.167 -58.853  1.00  0.00     0.096 A 
BRANCH  21  23
HETATM   23  O   UNL     1     -38.742  63.648 -59.715  1.00  0.00    -0.344 OA
HETATM   24  H   UNL     1     -38.286  63.334 -58.915  1.00  0.00     0.219 HD
ENDBRANCH  21  23
ENDBRANCH  14  17
ENDBRANCH   5  13
BRANCH   9  25
HETATM   25  C   UNL     1     -41.687  55.058 -54.488  1.00  0.00     0.011 C 
HETATM   26  C   UNL     1     -40.509  54.196 -54.971  1.00  0.00     0.023 C 
HETATM   27  C   UNL     1     -41.225  55.926 -53.301  1.00  0.00     0.023 C 
HETATM   28  C   UNL     1     -42.822  54.142 -53.993  1.00  0.00     0.023 C 
ENDBRANCH   9  25
TORSDOF 4
ENDMDL
MODEL 10
REMARK VINA RESULT:      -6.6      2.933      7.077
REMARK  4 active torsions:
REMARK  status: ('A' for Active; 'I' for Inactive)
REMARK    1  A    between atoms: C_5  and  N_6 
REMARK       I    between atoms: N_6  and  C_7 
REMARK    2  A    between atoms: C_7  and  C_8 
REMARK    3  A    between atoms: C_12  and  O_13 
REMARK    4  A    between atoms: C_19  and  C_20 
ROOT
HETATM    1  C   UNL     1     -44.257  56.407 -58.757  1.00  0.00     0.015 C 
HETATM    2  C   UNL     1     -43.445  56.799 -57.508  1.00  0.00    -0.040 C 
HETATM    3  C   UNL     1     -42.397  57.847 -57.932  1.00  0.00     0.015 C 
HETATM    4  C   UNL     1     -42.774  55.537 -56.927  1.00  0.00     0.039 C 
HETATM    5  C   UNL     1     -41.980  55.814 -55.636  1.00  0.00     0.122 C 
HETATM    6  C   UNL     1     -42.710  56.727 -54.691  1.00  0.00     0.007 A 
HETATM    7  C   UNL     1     -43.807  57.483 -55.066  1.00  0.00     0.047 A 
HETATM    8  N   UNL     1     -44.436  58.324 -54.215  1.00  0.00    -0.237 NA
HETATM    9  C   UNL     1     -43.935  58.457 -52.970  1.00  0.00     0.133 A 
HETATM   10  N   UNL     1     -42.864  57.775 -52.526  1.00  0.00    -0.244 NA
HETATM   11  C   UNL     1     -42.269  56.944 -53.400  1.00  0.00     0.130 A 
HETATM   12  C   UNL     1     -44.404  57.380 -56.446  1.00  0.00     0.069 C 
ENDROOT
BRANCH   5  13
HETATM   13  N   UNL     1     -41.646  54.553 -54.989  1.00  0.00    -0.347 N 
HETATM   14  C   UNL     1     -40.346  54.182 -54.748  1.00  0.00     0.270 C 
HETATM   15  O   UNL     1     -39.391  54.896 -55.033  1.00  0.00    -0.266 OA
HETATM   16  H   UNL     1     -42.383  53.872 -54.862  1.00  0.00     0.163 HD
BRANCH  14  17
HETATM   17  C   UNL     1     -40.179  52.895 -54.129  1.00  0.00     0.122 A 
HETATM   18  N   UNL     1     -40.026  52.774 -52.767  1.00  0.00    -0.270 N 
HETATM   19  H   UNL     1     -40.010  53.530 -52.088  1.00  0.00     0.189 HD
HETATM   20  N   UNL     1     -39.897  51.501 -52.341  1.00  0.00    -0.149 NA
HETATM   21  C   UNL     1     -39.975  50.821 -53.472  1.00  0.00     0.183 A 
HETATM   22  C   UNL     1     -40.146  51.600 -54.614  1.00  0.00     0.096 A 
BRANCH  21  23
HETATM   23  O   UNL     1     -39.887  49.501 -53.354  1.00  0.00    -0.344 OA
HETATM   24  H   UNL     1     -40.464  49.281 -52.603  1.00  0.00     0.219 HD
ENDBRANCH  21  23
ENDBRANCH  14  17
ENDBRANCH   5  13
BRANCH   9  25
HETATM   25  C   UNL     1     -44.672  59.368 -51.992  1.00  0.00     0.011 C 
HETATM   26  C   UNL     1     -45.383  58.490 -50.951  1.00  0.00     0.023 C 
HETATM   27  C   UNL     1     -43.697  60.318 -51.270  1.00  0.00     0.023 C 
HETATM   28  C   UNL     1     -45.714  60.230 -52.731  1.00  0.00     0.023 C 
ENDBRANCH   9  25
TORSDOF 4
ENDMDL
