MODEL 1
REMARK VINA RESULT:      -8.2      0.000      0.000
REMARK  4 active torsions:
REMARK  status: ('A' for Active; 'I' for Inactive)
REMARK    1  A    between atoms: C_2  and  C_3 
REMARK    2  A    between atoms: C_7  and  N_8 
REMARK       I    between atoms: N_8  and  C_9 
REMARK    3  A    between atoms: C_9  and  C_10 
REMARK    4  A    between atoms: C_12  and  C_13 
ROOT
HETATM    1  C   UNL     1     -42.665  55.590 -55.833  1.00  0.00     0.149 A 
HETATM    2  N   UNL     1     -41.690  54.644 -55.548  1.00  0.00    -0.223 NA
HETATM    3  C   UNL     1     -41.830  54.324 -54.273  1.00  0.00     0.139 A 
HETATM    4  N   UNL     1     -42.863  55.052 -53.726  1.00  0.00    -0.342 N 
HETATM    5  H   UNL     1     -43.172  55.004 -52.766  1.00  0.00     0.167 HD
HETATM    6  C   UNL     1     -43.406  55.855 -54.698  1.00  0.00     0.041 A 
HETATM    7  C   UNL     1     -44.547  56.766 -54.451  1.00  0.00     0.071 C 
ENDROOT
BRANCH   1   8
HETATM    8  C   UNL     1     -42.828  56.175 -57.167  1.00  0.00     0.278 C 
HETATM    9  N   UNL     1     -42.076  57.325 -57.319  1.00  0.00    -0.306 N 
HETATM   10  H   UNL     1     -41.526  57.619 -56.516  1.00  0.00     0.170 HD
HETATM   11  O   UNL     1     -43.547  55.685 -58.037  1.00  0.00    -0.265 OA
BRANCH   9  12
HETATM   12  C   UNL     1     -42.038  58.043 -58.493  1.00  0.00     0.126 A 
HETATM   13  N   UNL     1     -41.737  57.509 -59.717  1.00  0.00    -0.262 N 
HETATM   14  N   UNL     1     -41.746  58.411 -60.716  1.00  0.00    -0.178 NA
HETATM   15  H   UNL     1     -41.511  56.538 -59.920  1.00  0.00     0.191 HD
HETATM   16  C   UNL     1     -42.074  59.558 -60.108  1.00  0.00     0.058 A 
HETATM   17  C   UNL     1     -42.270  59.379 -58.716  1.00  0.00     0.079 A 
BRANCH  16  18
HETATM   18  C   UNL     1     -42.185  60.822 -60.892  1.00  0.00     0.056 C 
HETATM   19  C   UNL     1     -41.217  61.892 -60.409  1.00  0.00     0.011 C 
ENDBRANCH  16  18
ENDBRANCH   9  12
ENDBRANCH   1   8
BRANCH   3  20
HETATM   20  C   UNL     1     -41.014  53.348 -53.539  1.00  0.00     0.012 A 
HETATM   21  C   UNL     1     -40.592  52.181 -54.197  1.00  0.00     0.039 A 
HETATM   22  C   UNL     1     -39.819  51.229 -53.533  1.00  0.00     0.035 A 
HETATM   23 CL   UNL     1     -39.316  49.808 -54.363  1.00  0.00    -0.084 Cl
HETATM   24  C   UNL     1     -39.452  51.419 -52.205  1.00  0.00     0.024 A 
HETATM   25  C   UNL     1     -39.863  52.570 -51.535  1.00  0.00     0.003 A 
HETATM   26  C   UNL     1     -40.639  53.528 -52.198  1.00  0.00     0.015 A 
ENDBRANCH   3  20
TORSDOF 4
ENDMDL
MODEL 2
REMARK VINA RESULT:      -7.5      1.691      2.008
REMARK  4 active torsions:
REMARK  status: ('A' for Active; 'I' for Inactive)
REMARK    1  A    between atoms: C_2  and  C_3 
REMARK    2  A    between atoms: C_7  and  N_8 
REMARK       I    between atoms: N_8  and  C_9 
REMARK    3  A    between atoms: C_9  and  C_10 
REMARK    4  A    between atoms: C_12  and  C_13 
ROOT
HETATM    1  C   UNL     1     -42.091  56.020 -54.052  1.00  0.00     0.149 A 
HETATM    2  N   UNL     1     -41.729  54.684 -54.152  1.00  0.00    -0.223 NA
HETATM    3  C   UNL     1     -41.097  54.375 -53.033  1.00  0.00     0.139 A 
HETATM    4  N   UNL     1     -41.031  55.485 -52.221  1.00  0.00    -0.342 N 
HETATM    5  H   UNL     1     -40.592  55.522 -51.312  1.00  0.00     0.167 HD
HETATM    6  C   UNL     1     -41.657  56.533 -52.845  1.00  0.00     0.041 A 
HETATM    7  C   UNL     1     -41.777  57.880 -52.243  1.00  0.00     0.071 C 
ENDROOT
BRANCH   1   8
HETATM    8  C   UNL     1     -42.829  56.717 -55.110  1.00  0.00     0.278 C 
HETATM    9  N   UNL     1     -42.223  56.567 -56.344  1.00  0.00    -0.306 N 
HETATM   10  H   UNL     1     -41.367  56.016 -56.367  1.00  0.00     0.170 HD
HETATM   11  O   UNL     1     -43.864  57.350 -54.909  1.00  0.00    -0.265 OA
BRANCH   9  12
HETATM   12  C   UNL     1     -42.739  57.105 -57.501  1.00  0.00     0.126 A 
HETATM   13  N   UNL     1     -43.992  56.839 -57.985  1.00  0.00    -0.262 N 
HETATM   14  N   UNL     1     -44.268  57.468 -59.142  1.00  0.00    -0.178 NA
HETATM   15  H   UNL     1     -44.691  56.230 -57.566  1.00  0.00     0.191 HD
HETATM   16  C   UNL     1     -43.154  58.167 -59.399  1.00  0.00     0.058 A 
HETATM   17  C   UNL     1     -42.169  57.974 -58.398  1.00  0.00     0.079 A 
BRANCH  16  18
HETATM   18  C   UNL     1     -43.059  59.011 -60.625  1.00  0.00     0.056 C 
HETATM   19  C   UNL     1     -42.138  60.207 -60.437  1.00  0.00     0.011 C 
ENDBRANCH  16  18
ENDBRANCH   9  12
ENDBRANCH   1   8
BRANCH   3  20
HETATM   20  C   UNL     1     -40.542  53.058 -52.698  1.00  0.00     0.012 A 
HETATM   21  C   UNL     1     -40.319  52.130 -53.728  1.00  0.00     0.039 A 
HETATM   22  C   UNL     1     -39.797  50.867 -53.449  1.00  0.00     0.035 A 
HETATM   23 CL   UNL     1     -39.533  49.749 -54.730  1.00  0.00    -0.084 Cl
HETATM   24  C   UNL     1     -39.488  50.503 -52.142  1.00  0.00     0.024 A 
HETATM   25  C   UNL     1     -39.705  51.410 -51.107  1.00  0.00     0.003 A 
HETATM   26  C   UNL     1     -40.228  52.679 -51.383  1.00  0.00     0.015 A 
ENDBRANCH   3  20
TORSDOF 4
ENDMDL
MODEL 3
REMARK VINA RESULT:      -7.4      3.182      5.410
REMARK  4 active torsions:
REMARK  status: ('A' for Active; 'I' for Inactive)
REMARK    1  A    between atoms: C_2  and  C_3 
REMARK    2  A    between atoms: C_7  and  N_8 
REMARK       I    between atoms: N_8  and  C_9 
REMARK    3  A    between atoms: C_9  and  C_10 
REMARK    4  A    between atoms: C_12  and  C_13 
ROOT
HETATM    1  C   UNL     1     -43.332  56.008 -54.510  1.00  0.00     0.149 A 
HETATM    2  N   UNL     1     -42.777  55.190 -53.536  1.00  0.00    -0.223 NA
HETATM    3  C   UNL     1     -41.904  54.407 -54.147  1.00  0.00     0.139 A 
HETATM    4  N   UNL     1     -41.893  54.693 -55.493  1.00  0.00    -0.342 N 
HETATM    5  H   UNL     1     -41.322  54.232 -56.186  1.00  0.00     0.167 HD
HETATM    6  C   UNL     1     -42.786  55.704 -55.742  1.00  0.00     0.041 A 
HETATM    7  C   UNL     1     -43.019  56.264 -57.093  1.00  0.00     0.071 C 
ENDROOT
BRANCH   1   8
HETATM    8  C   UNL     1     -44.341  57.025 -54.202  1.00  0.00     0.278 C 
HETATM    9  N   UNL     1     -43.937  57.853 -53.171  1.00  0.00    -0.306 N 
HETATM   10  H   UNL     1     -43.026  57.661 -52.763  1.00  0.00     0.170 HD
HETATM   11  O   UNL     1     -45.412  57.121 -54.801  1.00  0.00    -0.265 OA
BRANCH   9  12
HETATM   12  C   UNL     1     -44.700  58.905 -52.715  1.00  0.00     0.126 A 
HETATM   13  N   UNL     1     -45.561  59.631 -53.494  1.00  0.00    -0.262 N 
HETATM   14  N   UNL     1     -46.184  60.622 -52.831  1.00  0.00    -0.178 NA
HETATM   15  H   UNL     1     -45.751  59.493 -54.483  1.00  0.00     0.191 HD
HETATM   16  C   UNL     1     -45.710  60.518 -51.582  1.00  0.00     0.058 A 
HETATM   17  C   UNL     1     -44.779  59.456 -51.459  1.00  0.00     0.079 A 
BRANCH  16  18
HETATM   18  C   UNL     1     -46.164  61.463 -50.522  1.00  0.00     0.056 C 
HETATM   19  C   UNL     1     -45.545  61.156 -49.166  1.00  0.00     0.011 C 
ENDBRANCH  16  18
ENDBRANCH   9  12
ENDBRANCH   1   8
BRANCH   3  20
HETATM   20  C   UNL     1     -41.071  53.385 -53.500  1.00  0.00     0.012 A 
HETATM   21  C   UNL     1     -40.715  52.237 -54.227  1.00  0.00     0.039 A 
HETATM   22  C   UNL     1     -39.929  51.242 -53.647  1.00  0.00     0.035 A 
HETATM   23 CL   UNL     1     -39.507  49.845 -54.559  1.00  0.00    -0.084 Cl
HETATM   24  C   UNL     1     -39.483  51.369 -52.335  1.00  0.00     0.024 A 
HETATM   25  C   UNL     1     -39.828  52.501 -51.598  1.00  0.00     0.003 A 
HETATM   26  C   UNL     1     -40.617  53.502 -52.177  1.00  0.00     0.015 A 
ENDBRANCH   3  20
TORSDOF 4
ENDMDL
MODEL 4
REMARK VINA RESULT:      -7.3      2.302      2.494
REMARK  4 active torsions:
REMARK  status: ('A' for Active; 'I' for Inactive)
REMARK    1  A    between atoms: C_2  and  C_3 
REMARK    2  A    between atoms: C_7  and  N_8 
REMARK       I    between atoms: N_8  and  C_9 
REMARK    3  A    between atoms: C_9  and  C_10 
REMARK    4  A    between atoms: C_12  and  C_13 
ROOT
HETATM    1  C   UNL     1     -42.127  56.160 -54.979  1.00  0.00     0.149 A 
HETATM    2  N   UNL     1     -41.489  54.927 -54.962  1.00  0.00    -0.223 NA
HETATM    3  C   UNL     1     -41.318  54.604 -53.692  1.00  0.00     0.139 A 
HETATM    4  N   UNL     1     -41.818  55.605 -52.891  1.00  0.00    -0.342 N 
HETATM    5  H   UNL     1     -41.804  55.611 -51.881  1.00  0.00     0.167 HD
HETATM    6  C   UNL     1     -42.336  56.596 -53.685  1.00  0.00     0.041 A 
HETATM    7  C   UNL     1     -42.965  57.823 -53.144  1.00  0.00     0.071 C 
ENDROOT
BRANCH   1   8
HETATM    8  C   UNL     1     -42.496  56.837 -56.225  1.00  0.00     0.278 C 
HETATM    9  N   UNL     1     -43.251  56.023 -57.049  1.00  0.00    -0.306 N 
HETATM   10  H   UNL     1     -43.448  55.086 -56.706  1.00  0.00     0.170 HD
HETATM   11  O   UNL     1     -42.169  57.994 -56.490  1.00  0.00    -0.265 OA
BRANCH   9  12
HETATM   12  C   UNL     1     -43.743  56.440 -58.265  1.00  0.00     0.126 A 
HETATM   13  N   UNL     1     -43.227  56.066 -59.477  1.00  0.00    -0.262 N 
HETATM   14  N   UNL     1     -43.864  56.616 -60.527  1.00  0.00    -0.178 NA
HETATM   15  H   UNL     1     -42.438  55.446 -59.638  1.00  0.00     0.191 HD
HETATM   16  C   UNL     1     -44.827  57.358 -59.964  1.00  0.00     0.058 A 
HETATM   17  C   UNL     1     -44.793  57.279 -58.549  1.00  0.00     0.079 A 
BRANCH  16  18
HETATM   18  C   UNL     1     -45.766  58.146 -60.814  1.00  0.00     0.056 C 
HETATM   19  C   UNL     1     -47.200  57.654 -60.705  1.00  0.00     0.011 C 
ENDBRANCH  16  18
ENDBRANCH   9  12
ENDBRANCH   1   8
BRANCH   3  20
HETATM   20  C   UNL     1     -40.690  53.371 -53.198  1.00  0.00     0.012 A 
HETATM   21  C   UNL     1     -40.482  52.307 -54.092  1.00  0.00     0.039 A 
HETATM   22  C   UNL     1     -39.893  51.120 -53.660  1.00  0.00     0.035 A 
HETATM   23 CL   UNL     1     -39.650  49.832 -54.775  1.00  0.00    -0.084 Cl
HETATM   24  C   UNL     1     -39.499  50.967 -52.334  1.00  0.00     0.024 A 
HETATM   25  C   UNL     1     -39.699  52.012 -51.433  1.00  0.00     0.003 A 
HETATM   26  C   UNL     1     -40.291  53.206 -51.863  1.00  0.00     0.015 A 
ENDBRANCH   3  20
TORSDOF 4
ENDMDL
MODEL 5
REMARK VINA RESULT:      -7.3     15.307     17.979
REMARK  4 active torsions:
REMARK  status: ('A' for Active; 'I' for Inactive)
REMARK    1  A    between atoms: C_2  and  C_3 
REMARK    2  A    between atoms: C_7  and  N_8 
REMARK       I    between atoms: N_8  and  C_9 
REMARK    3  A    between atoms: C_9  and  C_10 
REMARK    4  A    between atoms: C_12  and  C_13 
ROOT
HETATM    1  C   UNL     1     -36.483  41.442 -53.943  1.00  0.00     0.149 A 
HETATM    2  N   UNL     1     -36.161  41.413 -55.293  1.00  0.00    -0.223 NA
HETATM    3  C   UNL     1     -37.296  41.260 -55.953  1.00  0.00     0.139 A 
HETATM    4  N   UNL     1     -38.340  41.175 -55.060  1.00  0.00    -0.342 N 
HETATM    5  H   UNL     1     -39.311  41.047 -55.303  1.00  0.00     0.167 HD
HETATM    6  C   UNL     1     -37.847  41.292 -53.785  1.00  0.00     0.041 A 
HETATM    7  C   UNL     1     -38.705  41.253 -52.579  1.00  0.00     0.071 C 
ENDROOT
BRANCH   1   8
HETATM    8  C   UNL     1     -35.472  41.614 -52.896  1.00  0.00     0.278 C 
HETATM    9  N   UNL     1     -34.736  40.461 -52.697  1.00  0.00    -0.306 N 
HETATM   10  H   UNL     1     -34.980  39.660 -53.276  1.00  0.00     0.170 HD
HETATM   11  O   UNL     1     -35.307  42.667 -52.281  1.00  0.00    -0.265 OA
BRANCH   9  12
HETATM   12  C   UNL     1     -33.708  40.377 -51.786  1.00  0.00     0.126 A 
HETATM   13  N   UNL     1     -32.395  40.634 -52.077  1.00  0.00    -0.262 N 
HETATM   14  N   UNL     1     -31.568  40.470 -51.027  1.00  0.00    -0.178 NA
HETATM   15  H   UNL     1     -32.013  40.917 -52.976  1.00  0.00     0.191 HD
HETATM   16  C   UNL     1     -32.385  40.105 -50.031  1.00  0.00     0.058 A 
HETATM   17  C   UNL     1     -33.736  40.035 -50.456  1.00  0.00     0.079 A 
BRANCH  16  18
HETATM   18  C   UNL     1     -31.838  39.819 -48.673  1.00  0.00     0.056 C 
HETATM   19  C   UNL     1     -32.474  38.591 -48.038  1.00  0.00     0.011 C 
ENDBRANCH  16  18
ENDBRANCH   9  12
ENDBRANCH   1   8
BRANCH   3  20
HETATM   20  C   UNL     1     -37.434  41.185 -57.413  1.00  0.00     0.012 A 
HETATM   21  C   UNL     1     -38.003  40.036 -57.986  1.00  0.00     0.039 A 
HETATM   22  C   UNL     1     -38.147  39.926 -59.369  1.00  0.00     0.035 A 
HETATM   23 CL   UNL     1     -38.847  38.507 -60.045  1.00  0.00    -0.084 Cl
HETATM   24  C   UNL     1     -37.730  40.956 -60.207  1.00  0.00     0.024 A 
HETATM   25  C   UNL     1     -37.162  42.103 -59.656  1.00  0.00     0.003 A 
HETATM   26  C   UNL     1     -37.015  42.217 -58.268  1.00  0.00     0.015 A 
ENDBRANCH   3  20
TORSDOF 4
ENDMDL
MODEL 6
REMARK VINA RESULT:      -7.2      2.882      3.258
REMARK  4 active torsions:
REMARK  status: ('A' for Active; 'I' for Inactive)
REMARK    1  A    between atoms: C_2  and  C_3 
REMARK    2  A    between atoms: C_7  and  N_8 
REMARK       I    between atoms: N_8  and  C_9 
REMARK    3  A    between atoms: C_9  and  C_10 
REMARK    4  A    between atoms: C_12  and  C_13 
ROOT
HETATM    1  C   UNL     1     -41.439  57.282 -53.395  1.00  0.00     0.149 A 
HETATM    2  N   UNL     1     -40.783  56.161 -53.885  1.00  0.00    -0.223 NA
HETATM    3  C   UNL     1     -41.098  55.156 -53.087  1.00  0.00     0.139 A 
HETATM    4  N   UNL     1     -41.931  55.605 -52.087  1.00  0.00    -0.342 N 
HETATM    5  H   UNL     1     -42.311  55.040 -51.342  1.00  0.00     0.167 HD
HETATM    6  C   UNL     1     -42.161  56.945 -52.267  1.00  0.00     0.041 A 
HETATM    7  C   UNL     1     -43.025  57.746 -51.369  1.00  0.00     0.071 C 
ENDROOT
BRANCH   1   8
HETATM    8  C   UNL     1     -41.338  58.596 -54.036  1.00  0.00     0.278 C 
HETATM    9  N   UNL     1     -42.145  58.687 -55.154  1.00  0.00    -0.306 N 
HETATM   10  H   UNL     1     -42.688  57.860 -55.391  1.00  0.00     0.170 HD
HETATM   11  O   UNL     1     -40.618  59.501 -53.614  1.00  0.00    -0.265 OA
BRANCH   9  12
HETATM   12  C   UNL     1     -42.246  59.831 -55.913  1.00  0.00     0.126 A 
HETATM   13  N   UNL     1     -42.619  61.053 -55.423  1.00  0.00    -0.262 N 
HETATM   14  N   UNL     1     -42.662  62.019 -56.359  1.00  0.00    -0.178 NA
HETATM   15  H   UNL     1     -42.861  61.276 -54.461  1.00  0.00     0.191 HD
HETATM   16  C   UNL     1     -42.293  61.391 -57.483  1.00  0.00     0.058 A 
HETATM   17  C   UNL     1     -42.020  60.020 -57.255  1.00  0.00     0.079 A 
BRANCH  16  18
HETATM   18  C   UNL     1     -42.221  62.135 -58.774  1.00  0.00     0.056 C 
HETATM   19  C   UNL     1     -41.288  61.471 -59.776  1.00  0.00     0.011 C 
ENDBRANCH  16  18
ENDBRANCH   9  12
ENDBRANCH   1   8
BRANCH   3  20
HETATM   20  C   UNL     1     -40.635  53.770 -53.232  1.00  0.00     0.012 A 
HETATM   21  C   UNL     1     -40.438  52.992 -52.078  1.00  0.00     0.039 A 
HETATM   22  C   UNL     1     -39.996  51.674 -52.175  1.00  0.00     0.035 A 
HETATM   23 CL   UNL     1     -39.763  50.744 -50.746  1.00  0.00    -0.084 Cl
HETATM   24  C   UNL     1     -39.740  51.103 -53.418  1.00  0.00     0.024 A 
HETATM   25  C   UNL     1     -39.928  51.860 -54.573  1.00  0.00     0.003 A 
HETATM   26  C   UNL     1     -40.373  53.184 -54.481  1.00  0.00     0.015 A 
ENDBRANCH   3  20
TORSDOF 4
ENDMDL
MODEL 7
REMARK VINA RESULT:      -7.0      4.264      4.888
REMARK  4 active torsions:
REMARK  status: ('A' for Active; 'I' for Inactive)
REMARK    1  A    between atoms: C_2  and  C_3 
REMARK    2  A    between atoms: C_7  and  N_8 
REMARK       I    between atoms: N_8  and  C_9 
REMARK    3  A    between atoms: C_9  and  C_10 
REMARK    4  A    between atoms: C_12  and  C_13 
ROOT
HETATM    1  C   UNL     1     -41.449  55.693 -52.300  1.00  0.00     0.149 A 
HETATM    2  N   UNL     1     -41.203  54.429 -52.817  1.00  0.00    -0.223 NA
HETATM    3  C   UNL     1     -40.681  53.710 -51.838  1.00  0.00     0.139 A 
HETATM    4  N   UNL     1     -40.572  54.485 -50.706  1.00  0.00    -0.342 N 
HETATM    5  H   UNL     1     -40.197  54.180 -49.820  1.00  0.00     0.167 HD
HETATM    6  C   UNL     1     -41.056  55.741 -50.976  1.00  0.00     0.041 A 
HETATM    7  C   UNL     1     -41.095  56.827 -49.971  1.00  0.00     0.071 C 
ENDROOT
BRANCH   1   8
HETATM    8  C   UNL     1     -42.044  56.768 -53.098  1.00  0.00     0.278 C 
HETATM    9  N   UNL     1     -43.328  57.066 -52.683  1.00  0.00    -0.306 N 
HETATM   10  H   UNL     1     -43.694  56.521 -51.906  1.00  0.00     0.170 HD
HETATM   11  O   UNL     1     -41.456  57.331 -54.021  1.00  0.00    -0.265 OA
BRANCH   9  12
HETATM   12  C   UNL     1     -44.088  58.059 -53.258  1.00  0.00     0.126 A 
HETATM   13  N   UNL     1     -44.396  58.124 -54.591  1.00  0.00    -0.262 N 
HETATM   14  N   UNL     1     -45.138  59.196 -54.922  1.00  0.00    -0.178 NA
HETATM   15  H   UNL     1     -44.116  57.465 -55.313  1.00  0.00     0.191 HD
HETATM   16  C   UNL     1     -45.317  59.832 -53.757  1.00  0.00     0.058 A 
HETATM   17  C   UNL     1     -44.681  59.158 -52.685  1.00  0.00     0.079 A 
BRANCH  16  18
HETATM   18  C   UNL     1     -46.102  61.100 -53.703  1.00  0.00     0.056 C 
HETATM   19  C   UNL     1     -46.830  61.276 -52.380  1.00  0.00     0.011 C 
ENDBRANCH  16  18
ENDBRANCH   9  12
ENDBRANCH   1   8
BRANCH   3  20
HETATM   20  C   UNL     1     -40.273  52.303 -51.932  1.00  0.00     0.012 A 
HETATM   21  C   UNL     1     -40.115  51.722 -53.201  1.00  0.00     0.039 A 
HETATM   22  C   UNL     1     -39.732  50.387 -53.331  1.00  0.00     0.035 A 
HETATM   23 CL   UNL     1     -39.545  49.701 -54.898  1.00  0.00    -0.084 Cl
HETATM   24  C   UNL     1     -39.500  49.606 -52.204  1.00  0.00     0.024 A 
HETATM   25  C   UNL     1     -39.654  50.165 -50.936  1.00  0.00     0.003 A 
HETATM   26  C   UNL     1     -40.038  51.504 -50.801  1.00  0.00     0.015 A 
ENDBRANCH   3  20
TORSDOF 4
ENDMDL
MODEL 8
REMARK VINA RESULT:      -7.0      3.206      8.769
REMARK  4 active torsions:
REMARK  status: ('A' for Active; 'I' for Inactive)
REMARK    1  A    between atoms: C_2  and  C_3 
REMARK    2  A    between atoms: C_7  and  N_8 
REMARK       I    between atoms: N_8  and  C_9 
REMARK    3  A    between atoms: C_9  and  C_10 
REMARK    4  A    between atoms: C_12  and  C_13 
ROOT
HETATM    1  C   UNL     1     -42.701  56.820 -57.570  1.00  0.00     0.149 A 
HETATM    2  N   UNL     1     -42.163  58.084 -57.768  1.00  0.00    -0.223 NA
HETATM    3  C   UNL     1     -42.394  58.404 -59.030  1.00  0.00     0.139 A 
HETATM    4  N   UNL     1     -43.057  57.371 -59.653  1.00  0.00    -0.342 N 
HETATM    5  H   UNL     1     -43.344  57.356 -60.621  1.00  0.00     0.167 HD
HETATM    6  C   UNL     1     -43.264  56.362 -58.746  1.00  0.00     0.041 A 
HETATM    7  C   UNL     1     -43.960  55.100 -59.084  1.00  0.00     0.071 C 
ENDROOT
BRANCH   1   8
HETATM    8  C   UNL     1     -42.648  56.136 -56.275  1.00  0.00     0.278 C 
HETATM    9  N   UNL     1     -41.428  55.520 -56.069  1.00  0.00    -0.306 N 
HETATM   10  H   UNL     1     -40.742  55.608 -56.815  1.00  0.00     0.170 HD
HETATM   11  O   UNL     1     -43.584  56.126 -55.476  1.00  0.00    -0.265 OA
BRANCH   9  12
HETATM   12  C   UNL     1     -41.121  54.835 -54.915  1.00  0.00     0.126 A 
HETATM   13  N   UNL     1     -41.219  55.362 -53.655  1.00  0.00    -0.262 N 
HETATM   14  N   UNL     1     -40.848  54.507 -52.683  1.00  0.00    -0.178 NA
HETATM   15  H   UNL     1     -41.525  56.299 -53.408  1.00  0.00     0.191 HD
HETATM   16  C   UNL     1     -40.512  53.394 -53.348  1.00  0.00     0.058 A 
HETATM   17  C   UNL     1     -40.668  53.549 -54.748  1.00  0.00     0.079 A 
BRANCH  16  18
HETATM   18  C   UNL     1     -40.032  52.190 -52.610  1.00  0.00     0.056 C 
HETATM   19  C   UNL     1     -39.476  51.122 -53.539  1.00  0.00     0.011 C 
ENDBRANCH  16  18
ENDBRANCH   9  12
ENDBRANCH   1   8
BRANCH   3  20
HETATM   20  C   UNL     1     -42.006  59.663 -59.680  1.00  0.00     0.012 A 
HETATM   21  C   UNL     1     -41.497  60.708 -58.892  1.00  0.00     0.039 A 
HETATM   22  C   UNL     1     -41.121  61.919 -59.471  1.00  0.00     0.035 A 
HETATM   23 CL   UNL     1     -40.500  63.184 -58.483  1.00  0.00    -0.084 Cl
HETATM   24  C   UNL     1     -41.245  62.114 -60.844  1.00  0.00     0.024 A 
HETATM   25  C   UNL     1     -41.750  61.089 -61.641  1.00  0.00     0.003 A 
HETATM   26  C   UNL     1     -42.129  59.871 -61.063  1.00  0.00     0.015 A 
ENDBRANCH   3  20
TORSDOF 4
ENDMDL
MODEL 9
REMARK VINA RESULT:      -7.0      1.604      1.888
REMARK  4 active torsions:
REMARK  status: ('A' for Active; 'I' for Inactive)
REMARK    1  A    between atoms: C_2  and  C_3 
REMARK    2  A    between atoms: C_7  and  N_8 
REMARK       I    between atoms: N_8  and  C_9 
REMARK    3  A    between atoms: C_9  and  C_10 
REMARK    4  A    between atoms: C_12  and  C_13 
ROOT
HETATM    1  C   UNL     1     -42.361  56.503 -55.134  1.00  0.00     0.149 A 
HETATM    2  N   UNL     1     -41.391  55.519 -54.998  1.00  0.00    -0.223 NA
HETATM    3  C   UNL     1     -41.722  54.800 -53.939  1.00  0.00     0.139 A 
HETATM    4  N   UNL     1     -42.874  55.307 -53.381  1.00  0.00    -0.342 N 
HETATM    5  H   UNL     1     -43.335  54.947 -52.558  1.00  0.00     0.167 HD
HETATM    6  C   UNL     1     -43.296  56.380 -54.124  1.00  0.00     0.041 A 
HETATM    7  C   UNL     1     -44.516  57.157 -53.806  1.00  0.00     0.071 C 
ENDROOT
BRANCH   1   8
HETATM    8  C   UNL     1     -42.334  57.489 -56.217  1.00  0.00     0.278 C 
HETATM    9  N   UNL     1     -42.456  56.893 -57.458  1.00  0.00    -0.306 N 
HETATM   10  H   UNL     1     -42.542  55.880 -57.471  1.00  0.00     0.170 HD
HETATM   11  O   UNL     1     -42.220  58.700 -56.027  1.00  0.00    -0.265 OA
BRANCH   9  12
HETATM   12  C   UNL     1     -42.486  57.611 -58.633  1.00  0.00     0.126 A 
HETATM   13  N   UNL     1     -41.534  57.527 -59.614  1.00  0.00    -0.262 N 
HETATM   14  N   UNL     1     -41.769  58.338 -60.663  1.00  0.00    -0.178 NA
HETATM   15  H   UNL     1     -40.706  56.939 -59.611  1.00  0.00     0.191 HD
HETATM   16  C   UNL     1     -42.914  58.952 -60.342  1.00  0.00     0.058 A 
HETATM   17  C   UNL     1     -43.404  58.529 -59.081  1.00  0.00     0.079 A 
BRANCH  16  18
HETATM   18  C   UNL     1     -43.517  59.956 -61.266  1.00  0.00     0.056 C 
HETATM   19  C   UNL     1     -42.502  60.977 -61.757  1.00  0.00     0.011 C 
ENDBRANCH  16  18
ENDBRANCH   9  12
ENDBRANCH   1   8
BRANCH   3  20
HETATM   20  C   UNL     1     -40.981  53.642 -53.424  1.00  0.00     0.012 A 
HETATM   21  C   UNL     1     -40.994  53.384 -52.043  1.00  0.00     0.039 A 
HETATM   22  C   UNL     1     -40.299  52.296 -51.515  1.00  0.00     0.035 A 
HETATM   23 CL   UNL     1     -40.330  52.002 -49.820  1.00  0.00    -0.084 Cl
HETATM   24  C   UNL     1     -39.580  51.445 -52.349  1.00  0.00     0.024 A 
HETATM   25  C   UNL     1     -39.555  51.687 -53.721  1.00  0.00     0.003 A 
HETATM   26  C   UNL     1     -40.251  52.778 -54.255  1.00  0.00     0.015 A 
ENDBRANCH   3  20
TORSDOF 4
ENDMDL
MODEL 10
REMARK VINA RESULT:      -7.0      5.420      6.178
REMARK  4 active torsions:
REMARK  status: ('A' for Active; 'I' for Inactive)
REMARK    1  A    between atoms: C_2  and  C_3 
REMARK    2  A    between atoms: C_7  and  N_8 
REMARK       I    between atoms: N_8  and  C_9 
REMARK    3  A    between atoms: C_9  and  C_10 
REMARK    4  A    between atoms: C_12  and  C_13 
ROOT
HETATM    1  C   UNL     1     -42.487  56.000 -51.278  1.00  0.00     0.149 A 
HETATM    2  N   UNL     1     -42.464  54.750 -51.881  1.00  0.00    -0.223 NA
HETATM    3  C   UNL     1     -41.201  54.359 -51.903  1.00  0.00     0.139 A 
HETATM    4  N   UNL     1     -40.408  55.334 -51.342  1.00  0.00    -0.342 N 
HETATM    5  H   UNL     1     -39.405  55.290 -51.244  1.00  0.00     0.167 HD
HETATM    6  C   UNL     1     -41.202  56.377 -50.937  1.00  0.00     0.041 A 
HETATM    7  C   UNL     1     -40.670  57.593 -50.281  1.00  0.00     0.071 C 
ENDROOT
BRANCH   1   8
HETATM    8  C   UNL     1     -43.729  56.748 -51.064  1.00  0.00     0.278 C 
HETATM    9  N   UNL     1     -43.624  58.054 -51.504  1.00  0.00    -0.306 N 
HETATM   10  H   UNL     1     -42.730  58.330 -51.903  1.00  0.00     0.170 HD
HETATM   11  O   UNL     1     -44.736  56.256 -50.557  1.00  0.00    -0.265 OA
BRANCH   9  12
HETATM   12  C   UNL     1     -44.666  58.951 -51.437  1.00  0.00     0.126 A 
HETATM   13  N   UNL     1     -45.301  59.314 -50.279  1.00  0.00    -0.262 N 
HETATM   14  N   UNL     1     -46.302  60.194 -50.466  1.00  0.00    -0.178 NA
HETATM   15  H   UNL     1     -45.092  58.985 -49.340  1.00  0.00     0.191 HD
HETATM   16  C   UNL     1     -46.299  60.405 -51.789  1.00  0.00     0.058 A 
HETATM   17  C   UNL     1     -45.291  59.651 -52.440  1.00  0.00     0.079 A 
BRANCH  16  18
HETATM   18  C   UNL     1     -47.287  61.336 -52.406  1.00  0.00     0.056 C 
HETATM   19  C   UNL     1     -46.693  62.137 -53.554  1.00  0.00     0.011 C 
ENDBRANCH  16  18
ENDBRANCH   9  12
ENDBRANCH   1   8
BRANCH   3  20
HETATM   20  C   UNL     1     -40.708  53.087 -52.445  1.00  0.00     0.012 A 
HETATM   21  C   UNL     1     -40.189  52.126 -51.561  1.00  0.00     0.039 A 
HETATM   22  C   UNL     1     -39.706  50.907 -52.038  1.00  0.00     0.035 A 
HETATM   23 CL   UNL     1     -39.076  49.747 -50.934  1.00  0.00    -0.084 Cl
HETATM   24  C   UNL     1     -39.731  50.621 -53.399  1.00  0.00     0.024 A 
HETATM   25  C   UNL     1     -40.240  51.564 -54.291  1.00  0.00     0.003 A 
HETATM   26  C   UNL     1     -40.725  52.788 -53.817  1.00  0.00     0.015 A 
ENDBRANCH   3  20
TORSDOF 4
ENDMDL
