MODEL 1
REMARK VINA RESULT:      -8.9      0.000      0.000
REMARK  6 active torsions:
REMARK  status: ('A' for Active; 'I' for Inactive)
REMARK    1  A    between atoms: C_6  and  C_7 
REMARK    2  A    between atoms: C_7  and  N_8 
REMARK    3  A    between atoms: C_12  and  C_13 
REMARK    4  A    between atoms: C_13  and  C_14 
REMARK    5  A    between atoms: N_23  and  C_24 
REMARK    6  A    between atoms: C_24  and  C_25 
ROOT
HETATM    1  C   UNL     1     -42.510  59.712 -52.724  1.00  0.00     0.164 C 
HETATM    2  N   UNL     1     -42.147  60.737 -53.695  1.00  0.00    -0.319 N 
HETATM    3  C   UNL     1     -42.857  60.642 -54.865  1.00  0.00     0.326 C 
HETATM    4  O   UNL     1     -42.852  61.489 -55.739  1.00  0.00    -0.247 OA
HETATM    5  N   UNL     1     -43.540  59.471 -54.856  1.00  0.00    -0.265 N 
HETATM    6  C   UNL     1     -43.421  58.869 -53.637  1.00  0.00     0.263 C 
HETATM    7  O   UNL     1     -43.949  57.811 -53.306  1.00  0.00    -0.270 OA
HETATM    8  H   UNL     1     -41.785  61.643 -53.410  1.00  0.00     0.166 HD
ENDROOT
BRANCH   1   9
HETATM    9  C   UNL     1     -41.205  58.981 -52.240  1.00  0.00     0.033 C 
HETATM   10  C   UNL     1     -40.572  58.004 -53.252  1.00  0.00     0.036 C 
HETATM   11  C   UNL     1     -41.199  56.615 -53.301  1.00  0.00     0.235 C 
HETATM   12  N   UNL     1     -41.334  56.018 -51.923  1.00  0.00    -0.067 N 
HETATM   13  H   UNL     1     -40.385  55.785 -51.607  1.00  0.00     0.280 HD
HETATM   14  C   UNL     1     -41.958  56.923 -50.895  1.00  0.00     0.235 C 
HETATM   15  C   UNL     1     -41.274  58.275 -50.873  1.00  0.00     0.036 C 
BRANCH  12  16
HETATM   16  C   UNL     1     -42.107  54.704 -51.967  1.00  0.00     0.273 C 
BRANCH  16  17
HETATM   17  C   UNL     1     -41.352  53.562 -52.598  1.00  0.00    -0.027 A 
HETATM   18  C   UNL     1     -41.588  53.133 -53.922  1.00  0.00    -0.054 A 
HETATM   19  C   UNL     1     -40.859  52.043 -54.430  1.00  0.00     0.014 A 
HETATM   20  C   UNL     1     -42.621  53.772 -54.812  1.00  0.00     0.049 C 
HETATM   21  C   UNL     1     -39.912  51.372 -53.650  1.00  0.00    -0.061 A 
HETATM   22  C   UNL     1     -39.157  50.195 -54.196  1.00  0.00     0.048 C 
HETATM   23  C   UNL     1     -39.678  51.806 -52.345  1.00  0.00     0.007 A 
HETATM   24  C   UNL     1     -40.389  52.888 -51.824  1.00  0.00     0.010 A 
ENDBRANCH  16  17
ENDBRANCH  12  16
ENDBRANCH   1   9
BRANCH   1  25
HETATM   25  C   UNL     1     -43.253  60.391 -51.573  1.00  0.00     0.072 A 
HETATM   26  N   UNL     1     -44.435  59.806 -51.227  1.00  0.00    -0.262 NA
HETATM   27  C   UNL     1     -45.139  60.346 -50.206  1.00  0.00     0.117 A 
HETATM   28  C   UNL     1     -44.737  61.469 -49.510  1.00  0.00     0.019 A 
HETATM   29  C   UNL     1     -43.542  62.071 -49.876  1.00  0.00     0.003 A 
HETATM   30  C   UNL     1     -42.787  61.531 -50.916  1.00  0.00     0.030 A 
ENDBRANCH   1  25
BRANCH   5  31
HETATM   31  C   UNL     1     -44.286  58.931 -55.979  1.00  0.00     0.168 C 
BRANCH  31  32
HETATM   32  C   UNL     1     -43.389  58.392 -57.110  1.00  0.00     0.140 C 
HETATM   33  O   UNL     1     -44.157  58.130 -58.311  1.00  0.00    -0.384 OA
HETATM   34  C   UNL     1     -43.641  56.917 -58.884  1.00  0.00     0.168 C 
HETATM   35  C   UNL     1     -43.184  56.082 -57.713  1.00  0.00     0.029 C 
HETATM   36  C   UNL     1     -42.615  57.120 -56.778  1.00  0.00     0.036 C 
ENDBRANCH  31  32
ENDBRANCH   5  31
TORSDOF 6
ENDMDL
MODEL 2
REMARK VINA RESULT:      -8.7      0.572      1.475
REMARK  6 active torsions:
REMARK  status: ('A' for Active; 'I' for Inactive)
REMARK    1  A    between atoms: C_6  and  C_7 
REMARK    2  A    between atoms: C_7  and  N_8 
REMARK    3  A    between atoms: C_12  and  C_13 
REMARK    4  A    between atoms: C_13  and  C_14 
REMARK    5  A    between atoms: N_23  and  C_24 
REMARK    6  A    between atoms: C_24  and  C_25 
ROOT
HETATM    1  C   UNL     1     -42.512  59.704 -52.795  1.00  0.00     0.164 C 
HETATM    2  N   UNL     1     -42.152  60.705 -53.792  1.00  0.00    -0.319 N 
HETATM    3  C   UNL     1     -42.872  60.587 -54.954  1.00  0.00     0.326 C 
HETATM    4  O   UNL     1     -42.871  61.413 -55.847  1.00  0.00    -0.247 OA
HETATM    5  N   UNL     1     -43.561  59.419 -54.912  1.00  0.00    -0.265 N 
HETATM    6  C   UNL     1     -43.434  58.845 -53.681  1.00  0.00     0.263 C 
HETATM    7  O   UNL     1     -43.964  57.797 -53.322  1.00  0.00    -0.270 OA
HETATM    8  H   UNL     1     -41.784  61.615 -53.531  1.00  0.00     0.166 HD
ENDROOT
BRANCH   1   9
HETATM    9  C   UNL     1     -41.206  58.978 -52.305  1.00  0.00     0.033 C 
HETATM   10  C   UNL     1     -40.585  57.977 -53.301  1.00  0.00     0.036 C 
HETATM   11  C   UNL     1     -41.218  56.590 -53.313  1.00  0.00     0.235 C 
HETATM   12  N   UNL     1     -41.344  56.024 -51.921  1.00  0.00    -0.067 N 
HETATM   13  H   UNL     1     -40.394  55.794 -51.608  1.00  0.00     0.280 HD
HETATM   14  C   UNL     1     -41.957  56.954 -50.909  1.00  0.00     0.235 C 
HETATM   15  C   UNL     1     -41.267  58.304 -50.922  1.00  0.00     0.036 C 
BRANCH  12  16
HETATM   16  C   UNL     1     -42.123  54.712 -51.930  1.00  0.00     0.273 C 
BRANCH  16  17
HETATM   17  C   UNL     1     -41.354  53.539 -52.481  1.00  0.00    -0.027 A 
HETATM   18  C   UNL     1     -40.384  52.844 -51.726  1.00  0.00    -0.054 A 
HETATM   19  C   UNL     1     -39.690  51.774 -52.321  1.00  0.00     0.014 A 
HETATM   20  C   UNL     1     -40.029  53.222 -50.313  1.00  0.00     0.049 C 
HETATM   21  C   UNL     1     -39.935  51.391 -53.644  1.00  0.00    -0.061 A 
HETATM   22  C   UNL     1     -39.171  50.263 -54.274  1.00  0.00     0.048 C 
HETATM   23  C   UNL     1     -40.900  52.077 -54.381  1.00  0.00     0.007 A 
HETATM   24  C   UNL     1     -41.602  53.139 -53.808  1.00  0.00     0.010 A 
ENDBRANCH  16  17
ENDBRANCH  12  16
ENDBRANCH   1   9
BRANCH   1  25
HETATM   25  C   UNL     1     -43.242  60.413 -51.654  1.00  0.00     0.072 A 
HETATM   26  N   UNL     1     -42.652  61.564 -51.221  1.00  0.00    -0.262 NA
HETATM   27  C   UNL     1     -43.251  62.252 -50.222  1.00  0.00     0.117 A 
HETATM   28  C   UNL     1     -44.416  61.840 -49.603  1.00  0.00     0.019 A 
HETATM   29  C   UNL     1     -45.003  60.660 -50.034  1.00  0.00     0.003 A 
HETATM   30  C   UNL     1     -44.415  59.935 -51.070  1.00  0.00     0.030 A 
ENDBRANCH   1  25
BRANCH   5  31
HETATM   31  C   UNL     1     -44.318  58.857 -56.017  1.00  0.00     0.168 C 
BRANCH  31  32
HETATM   32  C   UNL     1     -43.433  58.303 -57.150  1.00  0.00     0.140 C 
HETATM   33  O   UNL     1     -44.228  57.928 -58.302  1.00  0.00    -0.384 OA
HETATM   34  C   UNL     1     -43.664  56.713 -58.825  1.00  0.00     0.168 C 
HETATM   35  C   UNL     1     -43.118  55.975 -57.628  1.00  0.00     0.029 C 
HETATM   36  C   UNL     1     -42.576  57.097 -56.776  1.00  0.00     0.036 C 
ENDBRANCH  31  32
ENDBRANCH   5  31
TORSDOF 6
ENDMDL
MODEL 3
REMARK VINA RESULT:      -8.7      1.485      2.246
REMARK  6 active torsions:
REMARK  status: ('A' for Active; 'I' for Inactive)
REMARK    1  A    between atoms: C_6  and  C_7 
REMARK    2  A    between atoms: C_7  and  N_8 
REMARK    3  A    between atoms: C_12  and  C_13 
REMARK    4  A    between atoms: C_13  and  C_14 
REMARK    5  A    between atoms: N_23  and  C_24 
REMARK    6  A    between atoms: C_24  and  C_25 
ROOT
HETATM    1  C   UNL     1     -43.919  58.911 -53.087  1.00  0.00     0.164 C 
HETATM    2  N   UNL     1     -42.552  58.964 -53.589  1.00  0.00    -0.319 N 
HETATM    3  C   UNL     1     -42.438  59.673 -54.759  1.00  0.00     0.326 C 
HETATM    4  O   UNL     1     -41.379  60.000 -55.261  1.00  0.00    -0.247 OA
HETATM    5  N   UNL     1     -43.686  59.932 -55.224  1.00  0.00    -0.265 N 
HETATM    6  C   UNL     1     -44.617  59.548 -54.303  1.00  0.00     0.263 C 
HETATM    7  O   UNL     1     -45.833  59.678 -54.418  1.00  0.00    -0.270 OA
HETATM    8  H   UNL     1     -41.749  58.903 -52.970  1.00  0.00     0.166 HD
ENDROOT
BRANCH   1   9
HETATM    9  C   UNL     1     -44.307  57.411 -52.816  1.00  0.00     0.033 C 
HETATM   10  C   UNL     1     -43.643  56.760 -51.585  1.00  0.00     0.036 C 
HETATM   11  C   UNL     1     -42.227  56.239 -51.806  1.00  0.00     0.235 C 
HETATM   12  N   UNL     1     -42.139  55.375 -53.039  1.00  0.00    -0.067 N 
HETATM   13  H   UNL     1     -42.630  54.500 -52.823  1.00  0.00     0.280 HD
HETATM   14  C   UNL     1     -42.760  55.966 -54.276  1.00  0.00     0.235 C 
HETATM   15  C   UNL     1     -44.175  56.438 -54.003  1.00  0.00     0.036 C 
BRANCH  12  16
HETATM   16  C   UNL     1     -40.693  54.993 -53.339  1.00  0.00     0.273 C 
BRANCH  16  17
HETATM   17  C   UNL     1     -40.399  53.522 -53.196  1.00  0.00    -0.027 A 
HETATM   18  C   UNL     1     -40.025  52.937 -51.967  1.00  0.00    -0.054 A 
HETATM   19  C   UNL     1     -39.741  51.560 -51.921  1.00  0.00     0.014 A 
HETATM   20  C   UNL     1     -39.877  53.734 -50.699  1.00  0.00     0.049 C 
HETATM   21  C   UNL     1     -39.816  50.760 -53.067  1.00  0.00    -0.061 A 
HETATM   22  C   UNL     1     -39.489  49.297 -53.009  1.00  0.00     0.048 C 
HETATM   23  C   UNL     1     -40.195  51.344 -54.276  1.00  0.00     0.007 A 
HETATM   24  C   UNL     1     -40.482  52.708 -54.342  1.00  0.00     0.010 A 
ENDBRANCH  16  17
ENDBRANCH  12  16
ENDBRANCH   1   9
BRANCH   1  25
HETATM   25  C   UNL     1     -43.992  59.764 -51.820  1.00  0.00     0.072 A 
HETATM   26  N   UNL     1     -45.229  59.847 -51.254  1.00  0.00    -0.262 NA
HETATM   27  C   UNL     1     -45.366  60.574 -50.121  1.00  0.00     0.117 A 
HETATM   28  C   UNL     1     -44.324  61.254 -49.520  1.00  0.00     0.019 A 
HETATM   29  C   UNL     1     -43.070  61.180 -50.108  1.00  0.00     0.003 A 
HETATM   30  C   UNL     1     -42.896  60.429 -51.270  1.00  0.00     0.030 A 
ENDBRANCH   1  25
BRANCH   5  31
HETATM   31  C   UNL     1     -43.989  60.526 -56.514  1.00  0.00     0.168 C 
BRANCH  31  32
HETATM   32  C   UNL     1     -43.980  59.512 -57.674  1.00  0.00     0.140 C 
HETATM   33  O   UNL     1     -44.291  58.176 -57.208  1.00  0.00    -0.384 OA
HETATM   34  C   UNL     1     -43.440  57.270 -57.931  1.00  0.00     0.168 C 
HETATM   35  C   UNL     1     -42.165  58.034 -58.188  1.00  0.00     0.029 C 
HETATM   36  C   UNL     1     -42.672  59.429 -58.456  1.00  0.00     0.036 C 
ENDBRANCH  31  32
ENDBRANCH   5  31
TORSDOF 6
ENDMDL
MODEL 4
REMARK VINA RESULT:      -8.7      1.969      2.771
REMARK  6 active torsions:
REMARK  status: ('A' for Active; 'I' for Inactive)
REMARK    1  A    between atoms: C_6  and  C_7 
REMARK    2  A    between atoms: C_7  and  N_8 
REMARK    3  A    between atoms: C_12  and  C_13 
REMARK    4  A    between atoms: C_13  and  C_14 
REMARK    5  A    between atoms: N_23  and  C_24 
REMARK    6  A    between atoms: C_24  and  C_25 
ROOT
HETATM    1  C   UNL     1     -44.536  58.826 -54.058  1.00  0.00     0.164 C 
HETATM    2  N   UNL     1     -43.128  59.202 -54.021  1.00  0.00    -0.319 N 
HETATM    3  C   UNL     1     -42.606  59.448 -55.267  1.00  0.00     0.326 C 
HETATM    4  O   UNL     1     -41.514  59.945 -55.465  1.00  0.00    -0.247 OA
HETATM    5  N   UNL     1     -43.511  59.049 -56.194  1.00  0.00    -0.265 N 
HETATM    6  C   UNL     1     -44.680  58.694 -55.586  1.00  0.00     0.263 C 
HETATM    7  O   UNL     1     -45.699  58.317 -56.158  1.00  0.00    -0.270 OA
HETATM    8  H   UNL     1     -42.715  59.661 -53.214  1.00  0.00     0.166 HD
ENDROOT
BRANCH   1   9
HETATM    9  C   UNL     1     -44.728  57.485 -53.260  1.00  0.00     0.033 C 
HETATM   10  C   UNL     1     -43.939  57.374 -51.939  1.00  0.00     0.036 C 
HETATM   11  C   UNL     1     -42.482  56.950 -52.083  1.00  0.00     0.235 C 
HETATM   12  N   UNL     1     -42.342  55.723 -52.948  1.00  0.00    -0.067 N 
HETATM   13  H   UNL     1     -42.715  54.934 -52.407  1.00  0.00     0.280 HD
HETATM   14  C   UNL     1     -43.082  55.780 -54.258  1.00  0.00     0.235 C 
HETATM   15  C   UNL     1     -44.530  56.177 -54.048  1.00  0.00     0.036 C 
BRANCH  12  16
HETATM   16  C   UNL     1     -40.875  55.404 -53.217  1.00  0.00     0.273 C 
BRANCH  16  17
HETATM   17  C   UNL     1     -40.550  53.932 -53.209  1.00  0.00    -0.027 A 
HETATM   18  C   UNL     1     -40.184  53.240 -52.034  1.00  0.00    -0.054 A 
HETATM   19  C   UNL     1     -39.871  51.871 -52.114  1.00  0.00     0.014 A 
HETATM   20  C   UNL     1     -40.077  53.916 -50.692  1.00  0.00     0.049 C 
HETATM   21  C   UNL     1     -39.907  51.184 -53.331  1.00  0.00    -0.061 A 
HETATM   22  C   UNL     1     -39.548  49.729 -53.407  1.00  0.00     0.048 C 
HETATM   23  C   UNL     1     -40.277  51.872 -54.487  1.00  0.00     0.007 A 
HETATM   24  C   UNL     1     -40.595  53.230 -54.428  1.00  0.00     0.010 A 
ENDBRANCH  16  17
ENDBRANCH  12  16
ENDBRANCH   1   9
BRANCH   1  25
HETATM   25  C   UNL     1     -45.349  59.975 -53.461  1.00  0.00     0.072 A 
HETATM   26  N   UNL     1     -45.543  61.036 -54.295  1.00  0.00    -0.262 NA
HETATM   27  C   UNL     1     -46.266  62.084 -53.838  1.00  0.00     0.117 A 
HETATM   28  C   UNL     1     -46.801  62.146 -52.566  1.00  0.00     0.019 A 
HETATM   29  C   UNL     1     -46.587  61.072 -51.714  1.00  0.00     0.003 A 
HETATM   30  C   UNL     1     -45.855  59.972 -52.161  1.00  0.00     0.030 A 
ENDBRANCH   1  25
BRANCH   5  31
HETATM   31  C   UNL     1     -43.272  58.999 -57.626  1.00  0.00     0.168 C 
BRANCH  31  32
HETATM   32  C   UNL     1     -42.433  57.785 -58.067  1.00  0.00     0.140 C 
HETATM   33  O   UNL     1     -41.986  57.924 -59.439  1.00  0.00    -0.384 OA
HETATM   34  C   UNL     1     -42.083  56.626 -60.047  1.00  0.00     0.168 C 
HETATM   35  C   UNL     1     -43.255  55.954 -59.377  1.00  0.00     0.029 C 
HETATM   36  C   UNL     1     -43.132  56.433 -57.952  1.00  0.00     0.036 C 
ENDBRANCH  31  32
ENDBRANCH   5  31
TORSDOF 6
ENDMDL
MODEL 5
REMARK VINA RESULT:      -8.6      2.182      5.647
REMARK  6 active torsions:
REMARK  status: ('A' for Active; 'I' for Inactive)
REMARK    1  A    between atoms: C_6  and  C_7 
REMARK    2  A    between atoms: C_7  and  N_8 
REMARK    3  A    between atoms: C_12  and  C_13 
REMARK    4  A    between atoms: C_13  and  C_14 
REMARK    5  A    between atoms: N_23  and  C_24 
REMARK    6  A    between atoms: C_24  and  C_25 
ROOT
HETATM    1  C   UNL     1     -43.744  59.517 -52.688  1.00  0.00     0.164 C 
HETATM    2  N   UNL     1     -44.637  58.564 -52.040  1.00  0.00    -0.319 N 
HETATM    3  C   UNL     1     -45.486  59.153 -51.137  1.00  0.00     0.326 C 
HETATM    4  O   UNL     1     -46.429  58.588 -50.615  1.00  0.00    -0.247 OA
HETATM    5  N   UNL     1     -45.087  60.436 -50.951  1.00  0.00    -0.265 N 
HETATM    6  C   UNL     1     -44.093  60.750 -51.832  1.00  0.00     0.263 C 
HETATM    7  O   UNL     1     -43.545  61.844 -51.932  1.00  0.00    -0.270 OA
HETATM    8  H   UNL     1     -44.921  57.700 -52.493  1.00  0.00     0.166 HD
ENDROOT
BRANCH   1   9
HETATM    9  C   UNL     1     -42.262  59.012 -52.541  1.00  0.00     0.033 C 
HETATM   10  C   UNL     1     -41.777  58.037 -53.633  1.00  0.00     0.036 C 
HETATM   11  C   UNL     1     -42.177  56.579 -53.432  1.00  0.00     0.235 C 
HETATM   12  N   UNL     1     -41.851  56.101 -52.039  1.00  0.00    -0.067 N 
HETATM   13  H   UNL     1     -40.829  56.025 -51.983  1.00  0.00     0.280 HD
HETATM   14  C   UNL     1     -42.313  57.008 -50.930  1.00  0.00     0.235 C 
HETATM   15  C   UNL     1     -41.861  58.435 -51.171  1.00  0.00     0.036 C 
BRANCH  12  16
HETATM   16  C   UNL     1     -42.400  54.698 -51.798  1.00  0.00     0.273 C 
BRANCH  16  17
HETATM   17  C   UNL     1     -41.566  53.596 -52.400  1.00  0.00    -0.027 A 
HETATM   18  C   UNL     1     -40.550  52.931 -51.680  1.00  0.00    -0.054 A 
HETATM   19  C   UNL     1     -39.799  51.929 -52.321  1.00  0.00     0.014 A 
HETATM   20  C   UNL     1     -40.205  53.274 -50.255  1.00  0.00     0.049 C 
HETATM   21  C   UNL     1     -40.032  51.583 -53.656  1.00  0.00    -0.061 A 
HETATM   22  C   UNL     1     -39.208  50.529 -54.336  1.00  0.00     0.048 C 
HETATM   23  C   UNL     1     -41.043  52.239 -54.359  1.00  0.00     0.007 A 
HETATM   24  C   UNL     1     -41.802  53.234 -53.740  1.00  0.00     0.010 A 
ENDBRANCH  16  17
ENDBRANCH  12  16
ENDBRANCH   1   9
BRANCH   1  25
HETATM   25  C   UNL     1     -44.169  59.644 -54.151  1.00  0.00     0.072 A 
HETATM   26  N   UNL     1     -43.574  60.663 -54.835  1.00  0.00    -0.262 NA
HETATM   27  C   UNL     1     -43.892  60.827 -56.139  1.00  0.00     0.117 A 
HETATM   28  C   UNL     1     -44.802  60.032 -56.810  1.00  0.00     0.019 A 
HETATM   29  C   UNL     1     -45.417  59.007 -56.106  1.00  0.00     0.003 A 
HETATM   30  C   UNL     1     -45.101  58.806 -54.763  1.00  0.00     0.030 A 
ENDBRANCH   1  25
BRANCH   5  31
HETATM   31  C   UNL     1     -45.633  61.344 -49.958  1.00  0.00     0.168 C 
BRANCH  31  32
HETATM   32  C   UNL     1     -45.125  61.070 -48.530  1.00  0.00     0.140 C 
HETATM   33  O   UNL     1     -46.029  60.198 -47.807  1.00  0.00    -0.384 OA
HETATM   34  C   UNL     1     -46.093  60.685 -46.456  1.00  0.00     0.168 C 
HETATM   35  C   UNL     1     -45.916  62.180 -46.558  1.00  0.00     0.029 C 
HETATM   36  C   UNL     1     -44.903  62.311 -47.668  1.00  0.00     0.036 C 
ENDBRANCH  31  32
ENDBRANCH   5  31
TORSDOF 6
ENDMDL
MODEL 6
REMARK VINA RESULT:      -8.4      2.275      7.374
REMARK  6 active torsions:
REMARK  status: ('A' for Active; 'I' for Inactive)
REMARK    1  A    between atoms: C_6  and  C_7 
REMARK    2  A    between atoms: C_7  and  N_8 
REMARK    3  A    between atoms: C_12  and  C_13 
REMARK    4  A    between atoms: C_13  and  C_14 
REMARK    5  A    between atoms: N_23  and  C_24 
REMARK    6  A    between atoms: C_24  and  C_25 
ROOT
HETATM    1  C   UNL     1     -41.980  55.189 -53.002  1.00  0.00     0.164 C 
HETATM    2  N   UNL     1     -41.250  56.166 -53.799  1.00  0.00    -0.319 N 
HETATM    3  C   UNL     1     -40.905  57.288 -53.088  1.00  0.00     0.326 C 
HETATM    4  O   UNL     1     -40.144  58.147 -53.492  1.00  0.00    -0.247 OA
HETATM    5  N   UNL     1     -41.546  57.250 -51.894  1.00  0.00    -0.265 N 
HETATM    6  C   UNL     1     -42.179  56.051 -51.740  1.00  0.00     0.263 C 
HETATM    7  O   UNL     1     -42.821  55.701 -50.753  1.00  0.00    -0.270 OA
HETATM    8  H   UNL     1     -40.682  55.893 -54.596  1.00  0.00     0.166 HD
ENDROOT
BRANCH   1   9
HETATM    9  C   UNL     1     -43.307  54.804 -53.753  1.00  0.00     0.033 C 
HETATM   10  C   UNL     1     -43.126  54.064 -55.093  1.00  0.00     0.036 C 
HETATM   11  C   UNL     1     -42.834  54.953 -56.297  1.00  0.00     0.235 C 
HETATM   12  N   UNL     1     -43.811  56.098 -56.392  1.00  0.00    -0.067 N 
HETATM   13  H   UNL     1     -44.713  55.695 -56.671  1.00  0.00     0.280 HD
HETATM   14  C   UNL     1     -44.018  56.866 -55.114  1.00  0.00     0.235 C 
HETATM   15  C   UNL     1     -44.334  55.933 -53.963  1.00  0.00     0.036 C 
BRANCH  12  16
HETATM   16  C   UNL     1     -43.413  57.069 -57.500  1.00  0.00     0.273 C 
BRANCH  16  17
HETATM   17  C   UNL     1     -44.523  57.391 -58.468  1.00  0.00    -0.027 A 
HETATM   18  C   UNL     1     -44.872  56.538 -59.536  1.00  0.00    -0.054 A 
HETATM   19  C   UNL     1     -45.903  56.923 -60.412  1.00  0.00     0.014 A 
HETATM   20  C   UNL     1     -44.160  55.239 -59.806  1.00  0.00     0.049 C 
HETATM   21  C   UNL     1     -46.584  58.134 -60.251  1.00  0.00    -0.061 A 
HETATM   22  C   UNL     1     -47.667  58.544 -61.206  1.00  0.00     0.048 C 
HETATM   23  C   UNL     1     -46.239  58.969 -59.188  1.00  0.00     0.007 A 
HETATM   24  C   UNL     1     -45.220  58.603 -58.306  1.00  0.00     0.010 A 
ENDBRANCH  16  17
ENDBRANCH  12  16
ENDBRANCH   1   9
BRANCH   1  25
HETATM   25  C   UNL     1     -41.069  53.980 -52.783  1.00  0.00     0.072 A 
HETATM   26  N   UNL     1     -40.689  53.775 -51.490  1.00  0.00    -0.262 NA
HETATM   27  C   UNL     1     -39.893  52.714 -51.220  1.00  0.00     0.117 A 
HETATM   28  C   UNL     1     -39.429  51.842 -52.185  1.00  0.00     0.019 A 
HETATM   29  C   UNL     1     -39.805  52.064 -53.502  1.00  0.00     0.003 A 
HETATM   30  C   UNL     1     -40.634  53.142 -53.810  1.00  0.00     0.030 A 
ENDBRANCH   1  25
BRANCH   5  31
HETATM   31  C   UNL     1     -41.564  58.328 -50.921  1.00  0.00     0.168 C 
BRANCH  31  32
HETATM   32  C   UNL     1     -42.698  59.345 -51.150  1.00  0.00     0.140 C 
HETATM   33  O   UNL     1     -43.930  58.683 -51.532  1.00  0.00    -0.384 OA
HETATM   34  C   UNL     1     -44.551  59.497 -52.540  1.00  0.00     0.168 C 
HETATM   35  C   UNL     1     -43.413  60.138 -53.296  1.00  0.00     0.029 C 
HETATM   36  C   UNL     1     -42.412  60.414 -52.201  1.00  0.00     0.036 C 
ENDBRANCH  31  32
ENDBRANCH   5  31
TORSDOF 6
ENDMDL
MODEL 7
REMARK VINA RESULT:      -8.4      2.314      6.412
REMARK  6 active torsions:
REMARK  status: ('A' for Active; 'I' for Inactive)
REMARK    1  A    between atoms: C_6  and  C_7 
REMARK    2  A    between atoms: C_7  and  N_8 
REMARK    3  A    between atoms: C_12  and  C_13 
REMARK    4  A    between atoms: C_13  and  C_14 
REMARK    5  A    between atoms: N_23  and  C_24 
REMARK    6  A    between atoms: C_24  and  C_25 
ROOT
HETATM    1  C   UNL     1     -42.034  55.406 -52.294  1.00  0.00     0.164 C 
HETATM    2  N   UNL     1     -40.975  56.179 -52.931  1.00  0.00    -0.319 N 
HETATM    3  C   UNL     1     -41.168  57.534 -52.835  1.00  0.00     0.326 C 
HETATM    4  O   UNL     1     -40.332  58.367 -53.131  1.00  0.00    -0.247 OA
HETATM    5  N   UNL     1     -42.419  57.754 -52.359  1.00  0.00    -0.265 N 
HETATM    6  C   UNL     1     -42.994  56.573 -51.990  1.00  0.00     0.263 C 
HETATM    7  O   UNL     1     -44.111  56.443 -51.497  1.00  0.00    -0.270 OA
HETATM    8  H   UNL     1     -40.029  55.821 -53.021  1.00  0.00     0.166 HD
ENDROOT
BRANCH   1   9
HETATM    9  C   UNL     1     -42.586  54.350 -53.320  1.00  0.00     0.033 C 
HETATM   10  C   UNL     1     -41.580  53.866 -54.386  1.00  0.00     0.036 C 
HETATM   11  C   UNL     1     -41.413  54.785 -55.591  1.00  0.00     0.235 C 
HETATM   12  N   UNL     1     -42.744  55.176 -56.182  1.00  0.00    -0.067 N 
HETATM   13  H   UNL     1     -43.124  54.337 -56.636  1.00  0.00     0.280 HD
HETATM   14  C   UNL     1     -43.762  55.669 -55.188  1.00  0.00     0.235 C 
HETATM   15  C   UNL     1     -43.906  54.700 -54.031  1.00  0.00     0.036 C 
BRANCH  12  16
HETATM   16  C   UNL     1     -42.572  56.219 -57.281  1.00  0.00     0.273 C 
BRANCH  16  17
HETATM   17  C   UNL     1     -43.735  56.309 -58.236  1.00  0.00    -0.027 A 
HETATM   18  C   UNL     1     -44.610  57.417 -58.267  1.00  0.00    -0.054 A 
HETATM   19  C   UNL     1     -45.688  57.414 -59.171  1.00  0.00     0.014 A 
HETATM   20  C   UNL     1     -44.463  58.596 -57.342  1.00  0.00     0.049 C 
HETATM   21  C   UNL     1     -45.914  56.336 -60.034  1.00  0.00    -0.061 A 
HETATM   22  C   UNL     1     -47.081  56.335 -60.978  1.00  0.00     0.048 C 
HETATM   23  C   UNL     1     -45.040  55.249 -60.003  1.00  0.00     0.007 A 
HETATM   24  C   UNL     1     -43.963  55.234 -59.115  1.00  0.00     0.010 A 
ENDBRANCH  16  17
ENDBRANCH  12  16
ENDBRANCH   1   9
BRANCH   1  25
HETATM   25  C   UNL     1     -41.453  54.747 -51.043  1.00  0.00     0.072 A 
HETATM   26  N   UNL     1     -41.552  55.489 -49.904  1.00  0.00    -0.262 NA
HETATM   27  C   UNL     1     -41.071  54.963 -48.754  1.00  0.00     0.117 A 
HETATM   28  C   UNL     1     -40.467  53.723 -48.677  1.00  0.00     0.019 A 
HETATM   29  C   UNL     1     -40.353  52.977 -49.841  1.00  0.00     0.003 A 
HETATM   30  C   UNL     1     -40.850  53.489 -51.039  1.00  0.00     0.030 A 
ENDBRANCH   1  25
BRANCH   5  31
HETATM   31  C   UNL     1     -43.058  59.054 -52.262  1.00  0.00     0.168 C 
BRANCH  31  32
HETATM   32  C   UNL     1     -43.713  59.518 -53.577  1.00  0.00     0.140 C 
HETATM   33  O   UNL     1     -42.970  60.608 -54.179  1.00  0.00    -0.384 OA
HETATM   34  C   UNL     1     -43.934  61.529 -54.715  1.00  0.00     0.168 C 
HETATM   35  C   UNL     1     -45.129  61.439 -53.799  1.00  0.00     0.029 C 
HETATM   36  C   UNL     1     -45.166  59.970 -53.458  1.00  0.00     0.036 C 
ENDBRANCH  31  32
ENDBRANCH   5  31
TORSDOF 6
ENDMDL
MODEL 8
REMARK VINA RESULT:      -8.2      2.394      4.863
REMARK  6 active torsions:
REMARK  status: ('A' for Active; 'I' for Inactive)
REMARK    1  A    between atoms: C_6  and  C_7 
REMARK    2  A    between atoms: C_7  and  N_8 
REMARK    3  A    between atoms: C_12  and  C_13 
REMARK    4  A    between atoms: C_13  and  C_14 
REMARK    5  A    between atoms: N_23  and  C_24 
REMARK    6  A    between atoms: C_24  and  C_25 
ROOT
HETATM    1  C   UNL     1     -44.327  59.032 -52.069  1.00  0.00     0.164 C 
HETATM    2  N   UNL     1     -44.473  59.677 -53.369  1.00  0.00    -0.319 N 
HETATM    3  C   UNL     1     -45.276  60.789 -53.328  1.00  0.00     0.326 C 
HETATM    4  O   UNL     1     -45.394  61.581 -54.244  1.00  0.00    -0.247 OA
HETATM    5  N   UNL     1     -45.882  60.833 -52.115  1.00  0.00    -0.265 N 
HETATM    6  C   UNL     1     -45.373  59.863 -51.301  1.00  0.00     0.263 C 
HETATM    7  O   UNL     1     -45.696  59.667 -50.133  1.00  0.00    -0.270 OA
HETATM    8  H   UNL     1     -43.754  59.613 -54.084  1.00  0.00     0.166 HD
ENDROOT
BRANCH   1   9
HETATM    9  C   UNL     1     -44.676  57.505 -52.213  1.00  0.00     0.033 C 
HETATM   10  C   UNL     1     -44.221  56.603 -51.048  1.00  0.00     0.036 C 
HETATM   11  C   UNL     1     -42.763  56.160 -51.096  1.00  0.00     0.235 C 
HETATM   12  N   UNL     1     -42.398  55.595 -52.446  1.00  0.00    -0.067 N 
HETATM   13  H   UNL     1     -42.872  54.689 -52.526  1.00  0.00     0.280 HD
HETATM   14  C   UNL     1     -42.807  56.441 -53.622  1.00  0.00     0.235 C 
HETATM   15  C   UNL     1     -44.271  56.825 -53.533  1.00  0.00     0.036 C 
BRANCH  12  16
HETATM   16  C   UNL     1     -40.902  55.307 -52.534  1.00  0.00     0.273 C 
BRANCH  16  17
HETATM   17  C   UNL     1     -40.567  53.877 -52.871  1.00  0.00    -0.027 A 
HETATM   18  C   UNL     1     -40.114  52.953 -51.904  1.00  0.00    -0.054 A 
HETATM   19  C   UNL     1     -39.797  51.642 -52.304  1.00  0.00     0.014 A 
HETATM   20  C   UNL     1     -39.918  53.321 -50.458  1.00  0.00     0.049 C 
HETATM   21  C   UNL     1     -39.914  51.237 -53.638  1.00  0.00    -0.061 A 
HETATM   22  C   UNL     1     -39.551  49.842 -54.055  1.00  0.00     0.048 C 
HETATM   23  C   UNL     1     -40.370  52.153 -54.586  1.00  0.00     0.007 A 
HETATM   24  C   UNL     1     -40.692  53.457 -54.209  1.00  0.00     0.010 A 
ENDBRANCH  16  17
ENDBRANCH  12  16
ENDBRANCH   1   9
BRANCH   1  25
HETATM   25  C   UNL     1     -42.892  59.254 -51.589  1.00  0.00     0.072 A 
HETATM   26  N   UNL     1     -41.929  58.987 -52.515  1.00  0.00    -0.262 NA
HETATM   27  C   UNL     1     -40.636  59.175 -52.164  1.00  0.00     0.117 A 
HETATM   28  C   UNL     1     -40.239  59.601 -50.911  1.00  0.00     0.019 A 
HETATM   29  C   UNL     1     -41.222  59.855 -49.966  1.00  0.00     0.003 A 
HETATM   30  C   UNL     1     -42.564  59.682 -50.302  1.00  0.00     0.030 A 
ENDBRANCH   1  25
BRANCH   5  31
HETATM   31  C   UNL     1     -46.924  61.771 -51.737  1.00  0.00     0.168 C 
BRANCH  31  32
HETATM   32  C   UNL     1     -46.401  62.993 -50.959  1.00  0.00     0.140 C 
HETATM   33  O   UNL     1     -44.984  63.195 -51.187  1.00  0.00    -0.384 OA
HETATM   34  C   UNL     1     -44.408  63.591 -49.931  1.00  0.00     0.168 C 
HETATM   35  C   UNL     1     -45.222  62.886 -48.875  1.00  0.00     0.029 C 
HETATM   36  C   UNL     1     -46.616  62.944 -49.449  1.00  0.00     0.036 C 
ENDBRANCH  31  32
ENDBRANCH   5  31
TORSDOF 6
ENDMDL
MODEL 9
REMARK VINA RESULT:      -8.1      2.399      3.720
REMARK  6 active torsions:
REMARK  status: ('A' for Active; 'I' for Inactive)
REMARK    1  A    between atoms: C_6  and  C_7 
REMARK    2  A    between atoms: C_7  and  N_8 
REMARK    3  A    between atoms: C_12  and  C_13 
REMARK    4  A    between atoms: C_13  and  C_14 
REMARK    5  A    between atoms: N_23  and  C_24 
REMARK    6  A    between atoms: C_24  and  C_25 
ROOT
HETATM    1  C   UNL     1     -44.516  59.466 -55.777  1.00  0.00     0.164 C 
HETATM    2  N   UNL     1     -43.159  59.176 -56.224  1.00  0.00    -0.319 N 
HETATM    3  C   UNL     1     -43.094  58.829 -57.550  1.00  0.00     0.326 C 
HETATM    4  O   UNL     1     -42.058  58.721 -58.179  1.00  0.00    -0.247 OA
HETATM    5  N   UNL     1     -44.358  58.643 -58.004  1.00  0.00    -0.265 N 
HETATM    6  C   UNL     1     -45.259  59.015 -57.049  1.00  0.00     0.263 C 
HETATM    7  O   UNL     1     -46.481  58.992 -57.169  1.00  0.00    -0.270 OA
HETATM    8  H   UNL     1     -42.347  59.598 -55.784  1.00  0.00     0.166 HD
ENDROOT
BRANCH   1   9
HETATM    9  C   UNL     1     -44.827  58.609 -54.495  1.00  0.00     0.033 C 
HETATM   10  C   UNL     1     -44.120  59.063 -53.201  1.00  0.00     0.036 C 
HETATM   11  C   UNL     1     -42.682  58.581 -53.038  1.00  0.00     0.235 C 
HETATM   12  N   UNL     1     -42.563  57.097 -53.276  1.00  0.00    -0.067 N 
HETATM   13  H   UNL     1     -43.009  56.632 -52.477  1.00  0.00     0.280 HD
HETATM   14  C   UNL     1     -43.224  56.599 -54.534  1.00  0.00     0.235 C 
HETATM   15  C   UNL     1     -44.657  57.084 -54.624  1.00  0.00     0.036 C 
BRANCH  12  16
HETATM   16  C   UNL     1     -41.103  56.656 -53.271  1.00  0.00     0.273 C 
BRANCH  16  17
HETATM   17  C   UNL     1     -40.902  55.178 -53.490  1.00  0.00    -0.027 A 
HETATM   18  C   UNL     1     -41.177  54.217 -52.492  1.00  0.00    -0.054 A 
HETATM   19  C   UNL     1     -40.939  52.858 -52.765  1.00  0.00     0.014 A 
HETATM   20  C   UNL     1     -41.683  54.588 -51.123  1.00  0.00     0.049 C 
HETATM   21  C   UNL     1     -40.430  52.440 -53.999  1.00  0.00    -0.061 A 
HETATM   22  C   UNL     1     -40.159  50.988 -54.270  1.00  0.00     0.048 C 
HETATM   23  C   UNL     1     -40.169  53.394 -54.983  1.00  0.00     0.007 A 
HETATM   24  C   UNL     1     -40.401  54.747 -54.732  1.00  0.00     0.010 A 
ENDBRANCH  16  17
ENDBRANCH  12  16
ENDBRANCH   1   9
BRANCH   1  25
HETATM   25  C   UNL     1     -44.615  60.967 -55.506  1.00  0.00     0.072 A 
HETATM   26  N   UNL     1     -45.865  61.414 -55.199  1.00  0.00    -0.262 NA
HETATM   27  C   UNL     1     -46.025  62.731 -54.933  1.00  0.00     0.117 A 
HETATM   28  C   UNL     1     -44.994  63.650 -54.978  1.00  0.00     0.019 A 
HETATM   29  C   UNL     1     -43.727  63.194 -55.308  1.00  0.00     0.003 A 
HETATM   30  C   UNL     1     -43.528  61.840 -55.575  1.00  0.00     0.030 A 
ENDBRANCH   1  25
BRANCH   5  31
HETATM   31  C   UNL     1     -44.706  58.119 -59.313  1.00  0.00     0.168 C 
BRANCH  31  32
HETATM   32  C   UNL     1     -45.250  56.678 -59.275  1.00  0.00     0.140 C 
HETATM   33  O   UNL     1     -44.214  55.734 -58.904  1.00  0.00    -0.384 OA
HETATM   34  C   UNL     1     -44.406  54.561 -59.712  1.00  0.00     0.168 C 
HETATM   35  C   UNL     1     -44.967  55.060 -61.020  1.00  0.00     0.029 C 
HETATM   36  C   UNL     1     -45.873  56.182 -60.577  1.00  0.00     0.036 C 
ENDBRANCH  31  32
ENDBRANCH   5  31
TORSDOF 6
ENDMDL
MODEL 10
REMARK VINA RESULT:      -8.0      3.083      5.309
REMARK  6 active torsions:
REMARK  status: ('A' for Active; 'I' for Inactive)
REMARK    1  A    between atoms: C_6  and  C_7 
REMARK    2  A    between atoms: C_7  and  N_8 
REMARK    3  A    between atoms: C_12  and  C_13 
REMARK    4  A    between atoms: C_13  and  C_14 
REMARK    5  A    between atoms: N_23  and  C_24 
REMARK    6  A    between atoms: C_24  and  C_25 
ROOT
HETATM    1  C   UNL     1     -43.444  58.948 -57.285  1.00  0.00     0.164 C 
HETATM    2  N   UNL     1     -43.021  57.629 -57.738  1.00  0.00    -0.319 N 
HETATM    3  C   UNL     1     -43.968  56.995 -58.502  1.00  0.00     0.326 C 
HETATM    4  O   UNL     1     -43.767  55.974 -59.132  1.00  0.00    -0.247 OA
HETATM    5  N   UNL     1     -45.122  57.703 -58.425  1.00  0.00    -0.265 N 
HETATM    6  C   UNL     1     -44.909  58.874 -57.757  1.00  0.00     0.263 C 
HETATM    7  O   UNL     1     -45.752  59.743 -57.549  1.00  0.00    -0.270 OA
HETATM    8  H   UNL     1     -42.041  57.397 -57.875  1.00  0.00     0.166 HD
ENDROOT
BRANCH   1   9
HETATM    9  C   UNL     1     -43.259  59.038 -55.726  1.00  0.00     0.033 C 
HETATM   10  C   UNL     1     -42.035  58.293 -55.155  1.00  0.00     0.036 C 
HETATM   11  C   UNL     1     -42.225  56.796 -54.935  1.00  0.00     0.235 C 
HETATM   12  N   UNL     1     -43.492  56.503 -54.172  1.00  0.00    -0.067 N 
HETATM   13  H   UNL     1     -43.336  56.816 -53.207  1.00  0.00     0.280 HD
HETATM   14  C   UNL     1     -44.723  57.193 -54.693  1.00  0.00     0.235 C 
HETATM   15  C   UNL     1     -44.483  58.681 -54.862  1.00  0.00     0.036 C 
BRANCH  12  16
HETATM   16  C   UNL     1     -43.754  55.002 -54.099  1.00  0.00     0.273 C 
BRANCH  16  17
HETATM   17  C   UNL     1     -42.647  54.211 -53.450  1.00  0.00    -0.027 A 
HETATM   18  C   UNL     1     -42.441  54.195 -52.054  1.00  0.00    -0.054 A 
HETATM   19  C   UNL     1     -41.369  53.452 -51.527  1.00  0.00     0.014 A 
HETATM   20  C   UNL     1     -43.302  54.975 -51.096  1.00  0.00     0.049 C 
HETATM   21  C   UNL     1     -40.501  52.735 -52.357  1.00  0.00    -0.061 A 
HETATM   22  C   UNL     1     -39.347  51.965 -51.784  1.00  0.00     0.048 C 
HETATM   23  C   UNL     1     -40.715  52.748 -53.735  1.00  0.00     0.007 A 
HETATM   24  C   UNL     1     -41.775  53.478 -54.277  1.00  0.00     0.010 A 
ENDBRANCH  16  17
ENDBRANCH  12  16
ENDBRANCH   1   9
BRANCH   1  25
HETATM   25  C   UNL     1     -42.612  59.995 -58.027  1.00  0.00     0.072 A 
HETATM   26  N   UNL     1     -42.576  59.845 -59.381  1.00  0.00    -0.262 NA
HETATM   27  C   UNL     1     -41.870  60.744 -60.104  1.00  0.00     0.117 A 
HETATM   28  C   UNL     1     -41.166  61.792 -59.543  1.00  0.00     0.019 A 
HETATM   29  C   UNL     1     -41.191  61.930 -58.163  1.00  0.00     0.003 A 
HETATM   30  C   UNL     1     -41.920  61.026 -57.392  1.00  0.00     0.030 A 
ENDBRANCH   1  25
BRANCH   5  31
HETATM   31  C   UNL     1     -46.400  57.278 -58.968  1.00  0.00     0.168 C 
BRANCH  31  32
HETATM   32  C   UNL     1     -46.551  57.555 -60.475  1.00  0.00     0.140 C 
HETATM   33  O   UNL     1     -47.382  58.718 -60.716  1.00  0.00    -0.384 OA
HETATM   34  C   UNL     1     -48.202  58.421 -61.858  1.00  0.00     0.168 C 
HETATM   35  C   UNL     1     -48.451  56.934 -61.798  1.00  0.00     0.029 C 
HETATM   36  C   UNL     1     -47.131  56.405 -61.294  1.00  0.00     0.036 C 
ENDBRANCH  31  32
ENDBRANCH   5  31
TORSDOF 6
ENDMDL
