MODEL 1
REMARK VINA RESULT:      -7.5      0.000      0.000
REMARK  3 active torsions:
REMARK  status: ('A' for Active; 'I' for Inactive)
REMARK    1  A    between atoms: C_8  and  C_9 
REMARK    2  A    between atoms: C_10  and  O_11 
REMARK    3  A    between atoms: C_24  and  N_25 
ROOT
HETATM    1  C   UNL     1     -44.060  54.204 -50.595  1.00  0.00     0.073 C 
HETATM    2  C   UNL     1     -42.875  55.030 -50.254  1.00  0.00     0.062 A 
HETATM    3  N   UNL     1     -42.216  54.813 -49.103  1.00  0.00    -0.177 NA
HETATM    4  N   UNL     1     -41.235  55.737 -49.102  1.00  0.00    -0.256 N 
HETATM    5  H   UNL     1     -40.594  55.770 -48.317  1.00  0.00     0.191 HD
HETATM    6  C   UNL     1     -41.263  56.533 -50.199  1.00  0.00     0.175 A 
HETATM    7  C   UNL     1     -42.295  56.092 -50.989  1.00  0.00     0.034 A 
HETATM    8  C   UNL     1     -42.603  56.803 -52.263  1.00  0.00     0.108 A 
HETATM    9  C   UNL     1     -41.574  57.903 -52.524  1.00  0.00     0.067 A 
HETATM   10  C   UNL     1     -41.696  58.660 -53.836  1.00  0.00     0.020 C 
HETATM   11  N   UNL     1     -41.799  59.288 -54.925  1.00  0.00    -0.096 N 
HETATM   12  C   UNL     1     -40.585  58.226 -51.645  1.00  0.00     0.139 A 
HETATM   13  O   UNL     1     -40.425  57.539 -50.426  1.00  0.00    -0.279 OA
ENDROOT
BRANCH   8  14
HETATM   14  C   UNL     1     -42.753  55.754 -53.370  1.00  0.00     0.000 A 
HETATM   15  C   UNL     1     -43.817  55.934 -54.297  1.00  0.00     0.076 A 
HETATM   16  C   UNL     1     -43.979  55.055 -55.367  1.00  0.00     0.038 A 
HETATM   17  C   UNL     1     -43.100  53.992 -55.540  1.00  0.00     0.015 A 
HETATM   18  C   UNL     1     -42.048  53.772 -54.648  1.00  0.00    -0.025 A 
HETATM   19  C   UNL     1     -41.857  54.637 -53.539  1.00  0.00    -0.016 A 
HETATM   20  C   UNL     1     -41.189  52.683 -54.877  1.00  0.00     0.012 A 
HETATM   21  C   UNL     1     -40.773  54.311 -52.682  1.00  0.00     0.013 A 
HETATM   22  C   UNL     1     -39.923  53.225 -52.918  1.00  0.00     0.001 A 
HETATM   23  C   UNL     1     -40.128  52.413 -54.020  1.00  0.00     0.001 A 
BRANCH  15  24
HETATM   24  O   UNL     1     -44.648  57.004 -54.072  1.00  0.00    -0.355 OA
HETATM   25  C   UNL     1     -45.131  57.726 -55.200  1.00  0.00     0.210 C 
ENDBRANCH  15  24
ENDBRANCH   8  14
BRANCH  12  26
HETATM   26  N   UNL     1     -39.644  59.213 -51.827  1.00  0.00    -0.282 NA
HETATM   27  H   UNL     1     -38.825  58.948 -52.368  1.00  0.00     0.126 HD
HETATM   28  H   UNL     1     -40.060  60.088 -52.134  1.00  0.00     0.126 HD
ENDBRANCH  12  26
TORSDOF 3
ENDMDL
MODEL 2
REMARK VINA RESULT:      -7.4      2.247      4.327
REMARK  3 active torsions:
REMARK  status: ('A' for Active; 'I' for Inactive)
REMARK    1  A    between atoms: C_8  and  C_9 
REMARK    2  A    between atoms: C_10  and  O_11 
REMARK    3  A    between atoms: C_24  and  N_25 
ROOT
HETATM    1  C   UNL     1     -43.179  55.541 -56.939  1.00  0.00     0.073 C 
HETATM    2  C   UNL     1     -43.491  56.962 -56.649  1.00  0.00     0.062 A 
HETATM    3  N   UNL     1     -44.421  57.605 -57.376  1.00  0.00    -0.177 NA
HETATM    4  N   UNL     1     -44.429  58.856 -56.875  1.00  0.00    -0.256 N 
HETATM    5  H   UNL     1     -45.063  59.539 -57.272  1.00  0.00     0.191 HD
HETATM    6  C   UNL     1     -43.531  59.025 -55.873  1.00  0.00     0.175 A 
HETATM    7  C   UNL     1     -42.918  57.813 -55.673  1.00  0.00     0.034 A 
HETATM    8  C   UNL     1     -41.842  57.692 -54.649  1.00  0.00     0.108 A 
HETATM    9  C   UNL     1     -41.681  59.005 -53.883  1.00  0.00     0.067 A 
HETATM   10  C   UNL     1     -40.683  59.013 -52.737  1.00  0.00     0.020 C 
HETATM   11  N   UNL     1     -39.855  59.019 -51.786  1.00  0.00    -0.096 N 
HETATM   12  C   UNL     1     -42.372  60.138 -54.188  1.00  0.00     0.139 A 
HETATM   13  O   UNL     1     -43.318  60.169 -55.231  1.00  0.00    -0.279 OA
ENDROOT
BRANCH   8  14
HETATM   14  C   UNL     1     -42.135  56.454 -53.794  1.00  0.00     0.000 A 
HETATM   15  C   UNL     1     -43.172  56.562 -52.826  1.00  0.00     0.076 A 
HETATM   16  C   UNL     1     -43.536  55.460 -52.055  1.00  0.00     0.038 A 
HETATM   17  C   UNL     1     -42.889  54.241 -52.223  1.00  0.00     0.015 A 
HETATM   18  C   UNL     1     -41.858  54.093 -53.153  1.00  0.00    -0.025 A 
HETATM   19  C   UNL     1     -41.449  55.195 -53.950  1.00  0.00    -0.016 A 
HETATM   20  C   UNL     1     -41.244  52.836 -53.282  1.00  0.00     0.012 A 
HETATM   21  C   UNL     1     -40.378  54.943 -54.847  1.00  0.00     0.013 A 
HETATM   22  C   UNL     1     -39.773  53.687 -54.969  1.00  0.00     0.001 A 
HETATM   23  C   UNL     1     -40.209  52.631 -54.188  1.00  0.00     0.001 A 
BRANCH  15  24
HETATM   24  O   UNL     1     -43.774  57.791 -52.712  1.00  0.00    -0.355 OA
HETATM   25  C   UNL     1     -44.715  57.981 -51.661  1.00  0.00     0.210 C 
ENDBRANCH  15  24
ENDBRANCH   8  14
BRANCH  12  26
HETATM   26  N   UNL     1     -42.256  61.345 -53.539  1.00  0.00    -0.282 NA
HETATM   27  H   UNL     1     -41.325  61.754 -53.530  1.00  0.00     0.126 HD
HETATM   28  H   UNL     1     -42.978  62.003 -53.822  1.00  0.00     0.126 HD
ENDBRANCH  12  26
TORSDOF 3
ENDMDL
MODEL 3
REMARK VINA RESULT:      -7.1      2.453      5.550
REMARK  3 active torsions:
REMARK  status: ('A' for Active; 'I' for Inactive)
REMARK    1  A    between atoms: C_8  and  C_9 
REMARK    2  A    between atoms: C_10  and  O_11 
REMARK    3  A    between atoms: C_24  and  N_25 
ROOT
HETATM    1  C   UNL     1     -40.977  55.931 -49.838  1.00  0.00     0.073 C 
HETATM    2  C   UNL     1     -41.774  55.402 -50.972  1.00  0.00     0.062 A 
HETATM    3  N   UNL     1     -42.306  54.170 -50.900  1.00  0.00    -0.177 NA
HETATM    4  N   UNL     1     -42.927  54.005 -52.085  1.00  0.00    -0.256 N 
HETATM    5  H   UNL     1     -43.410  53.134 -52.268  1.00  0.00     0.191 HD
HETATM    6  C   UNL     1     -42.793  55.080 -52.901  1.00  0.00     0.175 A 
HETATM    7  C   UNL     1     -42.075  56.023 -52.209  1.00  0.00     0.034 A 
HETATM    8  C   UNL     1     -41.730  57.315 -52.867  1.00  0.00     0.108 A 
HETATM    9  C   UNL     1     -42.375  57.400 -54.251  1.00  0.00     0.067 A 
HETATM   10  C   UNL     1     -42.194  58.702 -55.014  1.00  0.00     0.020 C 
HETATM   11  N   UNL     1     -42.043  59.782 -55.646  1.00  0.00    -0.096 N 
HETATM   12  C   UNL     1     -43.078  56.378 -54.812  1.00  0.00     0.139 A 
HETATM   13  O   UNL     1     -43.284  55.161 -54.133  1.00  0.00    -0.279 OA
ENDROOT
BRANCH   8  14
HETATM   14  C   UNL     1     -42.078  58.452 -51.899  1.00  0.00     0.000 A 
HETATM   15  C   UNL     1     -41.003  59.254 -51.424  1.00  0.00     0.076 A 
HETATM   16  C   UNL     1     -41.250  60.343 -50.590  1.00  0.00     0.038 A 
HETATM   17  C   UNL     1     -42.550  60.658 -50.212  1.00  0.00     0.015 A 
HETATM   18  C   UNL     1     -43.633  59.890 -50.646  1.00  0.00    -0.025 A 
HETATM   19  C   UNL     1     -43.423  58.766 -51.487  1.00  0.00    -0.016 A 
HETATM   20  C   UNL     1     -44.926  60.259 -50.236  1.00  0.00     0.012 A 
HETATM   21  C   UNL     1     -44.589  58.042 -51.851  1.00  0.00     0.013 A 
HETATM   22  C   UNL     1     -45.872  58.417 -51.438  1.00  0.00     0.001 A 
HETATM   23  C   UNL     1     -46.041  59.530 -50.633  1.00  0.00     0.001 A 
BRANCH  15  24
HETATM   24  O   UNL     1     -39.744  58.893 -51.836  1.00  0.00    -0.355 OA
HETATM   25  C   UNL     1     -38.652  59.158 -50.962  1.00  0.00     0.210 C 
ENDBRANCH  15  24
ENDBRANCH   8  14
BRANCH  12  26
HETATM   26  N   UNL     1     -43.666  56.399 -56.055  1.00  0.00    -0.282 NA
HETATM   27  H   UNL     1     -43.028  56.396 -56.846  1.00  0.00     0.126 HD
HETATM   28  H   UNL     1     -44.410  55.710 -56.139  1.00  0.00     0.126 HD
ENDBRANCH  12  26
TORSDOF 3
ENDMDL
MODEL 4
REMARK VINA RESULT:      -7.1     15.429     17.272
REMARK  3 active torsions:
REMARK  status: ('A' for Active; 'I' for Inactive)
REMARK    1  A    between atoms: C_8  and  C_9 
REMARK    2  A    between atoms: C_10  and  O_11 
REMARK    3  A    between atoms: C_24  and  N_25 
ROOT
HETATM    1  C   UNL     1     -39.357  41.358 -54.878  1.00  0.00     0.073 C 
HETATM    2  C   UNL     1     -38.420  41.035 -53.774  1.00  0.00     0.062 A 
HETATM    3  N   UNL     1     -38.883  40.904 -52.519  1.00  0.00    -0.177 NA
HETATM    4  N   UNL     1     -37.783  40.644 -51.784  1.00  0.00    -0.256 N 
HETATM    5  H   UNL     1     -37.884  40.505 -50.786  1.00  0.00     0.191 HD
HETATM    6  C   UNL     1     -36.649  40.622 -52.527  1.00  0.00     0.175 A 
HETATM    7  C   UNL     1     -37.018  40.843 -53.830  1.00  0.00     0.034 A 
HETATM    8  C   UNL     1     -35.972  40.914 -54.890  1.00  0.00     0.108 A 
HETATM    9  C   UNL     1     -34.595  40.600 -54.304  1.00  0.00     0.067 A 
HETATM   10  C   UNL     1     -33.432  40.540 -55.280  1.00  0.00     0.020 C 
HETATM   11  N   UNL     1     -32.467  40.490 -56.091  1.00  0.00    -0.096 N 
HETATM   12  C   UNL     1     -34.378  40.388 -52.977  1.00  0.00     0.139 A 
HETATM   13  O   UNL     1     -35.429  40.418 -52.041  1.00  0.00    -0.279 OA
ENDROOT
BRANCH   8  14
HETATM   14  C   UNL     1     -36.416  40.028 -56.059  1.00  0.00     0.000 A 
HETATM   15  C   UNL     1     -36.540  38.633 -55.808  1.00  0.00     0.076 A 
HETATM   16  C   UNL     1     -36.997  37.773 -56.805  1.00  0.00     0.038 A 
HETATM   17  C   UNL     1     -37.339  38.270 -58.057  1.00  0.00     0.015 A 
HETATM   18  C   UNL     1     -37.223  39.631 -58.350  1.00  0.00    -0.025 A 
HETATM   19  C   UNL     1     -36.749  40.537 -57.366  1.00  0.00    -0.016 A 
HETATM   20  C   UNL     1     -37.589  40.077 -59.633  1.00  0.00     0.012 A 
HETATM   21  C   UNL     1     -36.648  41.893 -57.775  1.00  0.00     0.013 A 
HETATM   22  C   UNL     1     -37.014  42.328 -59.053  1.00  0.00     0.001 A 
HETATM   23  C   UNL     1     -37.490  41.418 -59.982  1.00  0.00     0.001 A 
BRANCH  15  24
HETATM   24  O   UNL     1     -36.189  38.206 -54.551  1.00  0.00    -0.355 OA
HETATM   25  C   UNL     1     -35.462  36.988 -54.435  1.00  0.00     0.210 C 
ENDBRANCH  15  24
ENDBRANCH   8  14
BRANCH  12  26
HETATM   26  N   UNL     1     -33.160  40.114 -52.399  1.00  0.00    -0.282 NA
HETATM   27  H   UNL     1     -32.821  40.804 -51.734  1.00  0.00     0.126 HD
HETATM   28  H   UNL     1     -33.107  39.161 -52.047  1.00  0.00     0.126 HD
ENDBRANCH  12  26
TORSDOF 3
ENDMDL
MODEL 5
REMARK VINA RESULT:      -6.8      3.024      5.652
REMARK  3 active torsions:
REMARK  status: ('A' for Active; 'I' for Inactive)
REMARK    1  A    between atoms: C_8  and  C_9 
REMARK    2  A    between atoms: C_10  and  O_11 
REMARK    3  A    between atoms: C_24  and  N_25 
ROOT
HETATM    1  C   UNL     1     -40.311  59.202 -51.425  1.00  0.00     0.073 C 
HETATM    2  C   UNL     1     -41.027  57.904 -51.490  1.00  0.00     0.062 A 
HETATM    3  N   UNL     1     -40.850  56.991 -50.519  1.00  0.00    -0.177 NA
HETATM    4  N   UNL     1     -41.610  55.946 -50.901  1.00  0.00    -0.256 N 
HETATM    5  H   UNL     1     -41.637  55.120 -50.315  1.00  0.00     0.191 HD
HETATM    6  C   UNL     1     -42.244  56.163 -52.080  1.00  0.00     0.175 A 
HETATM    7  C   UNL     1     -41.917  57.432 -52.485  1.00  0.00     0.034 A 
HETATM    8  C   UNL     1     -42.439  57.949 -53.783  1.00  0.00     0.108 A 
HETATM    9  C   UNL     1     -43.395  56.937 -54.416  1.00  0.00     0.067 A 
HETATM   10  C   UNL     1     -44.086  57.358 -55.702  1.00  0.00     0.020 C 
HETATM   11  N   UNL     1     -44.659  57.708 -56.770  1.00  0.00    -0.096 N 
HETATM   12  C   UNL     1     -43.635  55.705 -53.890  1.00  0.00     0.139 A 
HETATM   13  O   UNL     1     -43.029  55.281 -52.691  1.00  0.00    -0.279 OA
ENDROOT
BRANCH   8  14
HETATM   14  C   UNL     1     -43.014  59.349 -53.542  1.00  0.00     0.000 A 
HETATM   15  C   UNL     1     -42.557  60.396 -54.390  1.00  0.00     0.076 A 
HETATM   16  C   UNL     1     -43.080  61.682 -54.271  1.00  0.00     0.038 A 
HETATM   17  C   UNL     1     -44.057  61.956 -53.321  1.00  0.00     0.015 A 
HETATM   18  C   UNL     1     -44.527  60.962 -52.461  1.00  0.00    -0.025 A 
HETATM   19  C   UNL     1     -44.010  59.642 -52.542  1.00  0.00    -0.016 A 
HETATM   20  C   UNL     1     -45.519  61.297 -51.523  1.00  0.00     0.012 A 
HETATM   21  C   UNL     1     -44.540  58.714 -51.607  1.00  0.00     0.013 A 
HETATM   22  C   UNL     1     -45.527  59.057 -50.677  1.00  0.00     0.001 A 
HETATM   23  C   UNL     1     -46.021  60.350 -50.638  1.00  0.00     0.001 A 
BRANCH  15  24
HETATM   24  O   UNL     1     -41.594  60.059 -55.310  1.00  0.00    -0.355 OA
HETATM   25  C   UNL     1     -41.891  60.243 -56.690  1.00  0.00     0.210 C 
ENDBRANCH  15  24
ENDBRANCH   8  14
BRANCH  12  26
HETATM   26  N   UNL     1     -44.475  54.756 -54.425  1.00  0.00    -0.282 NA
HETATM   27  H   UNL     1     -44.041  53.869 -54.668  1.00  0.00     0.126 HD
HETATM   28  H   UNL     1     -45.327  54.648 -53.882  1.00  0.00     0.126 HD
ENDBRANCH  12  26
TORSDOF 3
ENDMDL
MODEL 6
REMARK VINA RESULT:      -6.7      2.641      5.334
REMARK  3 active torsions:
REMARK  status: ('A' for Active; 'I' for Inactive)
REMARK    1  A    between atoms: C_8  and  C_9 
REMARK    2  A    between atoms: C_10  and  O_11 
REMARK    3  A    between atoms: C_24  and  N_25 
ROOT
HETATM    1  C   UNL     1     -45.291  58.008 -51.477  1.00  0.00     0.073 C 
HETATM    2  C   UNL     1     -44.906  58.055 -52.909  1.00  0.00     0.062 A 
HETATM    3  N   UNL     1     -45.336  59.063 -53.687  1.00  0.00    -0.177 NA
HETATM    4  N   UNL     1     -44.835  58.782 -54.905  1.00  0.00    -0.256 N 
HETATM    5  H   UNL     1     -45.030  59.413 -55.673  1.00  0.00     0.191 HD
HETATM    6  C   UNL     1     -44.120  57.629 -54.925  1.00  0.00     0.175 A 
HETATM    7  C   UNL     1     -44.116  57.137 -53.644  1.00  0.00     0.034 A 
HETATM    8  C   UNL     1     -43.435  55.843 -53.354  1.00  0.00     0.108 A 
HETATM    9  C   UNL     1     -42.725  55.321 -54.603  1.00  0.00     0.067 A 
HETATM   10  C   UNL     1     -41.902  54.053 -54.445  1.00  0.00     0.020 C 
HETATM   11  N   UNL     1     -41.219  53.001 -54.314  1.00  0.00    -0.096 N 
HETATM   12  C   UNL     1     -42.809  55.927 -55.819  1.00  0.00     0.139 A 
HETATM   13  O   UNL     1     -43.546  57.112 -56.006  1.00  0.00    -0.279 OA
ENDROOT
BRANCH   8  14
HETATM   14  C   UNL     1     -42.550  56.037 -52.117  1.00  0.00     0.000 A 
HETATM   15  C   UNL     1     -42.661  55.071 -51.079  1.00  0.00     0.076 A 
HETATM   16  C   UNL     1     -41.845  55.148 -49.952  1.00  0.00     0.038 A 
HETATM   17  C   UNL     1     -40.911  56.170 -49.830  1.00  0.00     0.015 A 
HETATM   18  C   UNL     1     -40.776  57.146 -50.819  1.00  0.00    -0.025 A 
HETATM   19  C   UNL     1     -41.597  57.111 -51.977  1.00  0.00    -0.016 A 
HETATM   20  C   UNL     1     -39.811  58.153 -50.644  1.00  0.00     0.012 A 
HETATM   21  C   UNL     1     -41.393  58.162 -52.909  1.00  0.00     0.013 A 
HETATM   22  C   UNL     1     -40.431  59.160 -52.726  1.00  0.00     0.001 A 
HETATM   23  C   UNL     1     -39.635  59.153 -51.593  1.00  0.00     0.001 A 
BRANCH  15  24
HETATM   24  O   UNL     1     -43.600  54.085 -51.262  1.00  0.00    -0.355 OA
HETATM   25  C   UNL     1     -44.677  54.006 -50.335  1.00  0.00     0.210 C 
ENDBRANCH  15  24
ENDBRANCH   8  14
BRANCH  12  26
HETATM   26  N   UNL     1     -42.201  55.492 -56.974  1.00  0.00    -0.282 NA
HETATM   27  H   UNL     1     -41.656  56.188 -57.476  1.00  0.00     0.126 HD
HETATM   28  H   UNL     1     -41.703  54.616 -56.839  1.00  0.00     0.126 HD
ENDBRANCH  12  26
TORSDOF 3
ENDMDL
MODEL 7
REMARK VINA RESULT:      -6.7      2.369      3.276
REMARK  3 active torsions:
REMARK  status: ('A' for Active; 'I' for Inactive)
REMARK    1  A    between atoms: C_8  and  C_9 
REMARK    2  A    between atoms: C_10  and  O_11 
REMARK    3  A    between atoms: C_24  and  N_25 
ROOT
HETATM    1  C   UNL     1     -44.952  56.884 -54.155  1.00  0.00     0.073 C 
HETATM    2  C   UNL     1     -44.668  57.698 -52.947  1.00  0.00     0.062 A 
HETATM    3  N   UNL     1     -45.669  58.041 -52.120  1.00  0.00    -0.177 NA
HETATM    4  N   UNL     1     -45.073  58.785 -51.166  1.00  0.00    -0.256 N 
HETATM    5  H   UNL     1     -45.639  59.165 -50.417  1.00  0.00     0.191 HD
HETATM    6  C   UNL     1     -43.741  58.932 -51.373  1.00  0.00     0.175 A 
HETATM    7  C   UNL     1     -43.428  58.220 -52.503  1.00  0.00     0.034 A 
HETATM    8  C   UNL     1     -42.027  58.223 -53.011  1.00  0.00     0.108 A 
HETATM    9  C   UNL     1     -41.112  58.985 -52.052  1.00  0.00     0.067 A 
HETATM   10  C   UNL     1     -39.629  58.998 -52.384  1.00  0.00     0.020 C 
HETATM   11  N   UNL     1     -38.398  59.008 -52.659  1.00  0.00    -0.096 N 
HETATM   12  C   UNL     1     -41.565  59.642 -50.950  1.00  0.00     0.139 A 
HETATM   13  O   UNL     1     -42.929  59.642 -50.597  1.00  0.00    -0.279 OA
ENDROOT
BRANCH   8  14
HETATM   14  C   UNL     1     -41.623  56.774 -53.305  1.00  0.00     0.000 A 
HETATM   15  C   UNL     1     -41.497  56.398 -54.672  1.00  0.00     0.076 A 
HETATM   16  C   UNL     1     -41.075  55.115 -55.016  1.00  0.00     0.038 A 
HETATM   17  C   UNL     1     -40.772  54.187 -54.027  1.00  0.00     0.015 A 
HETATM   18  C   UNL     1     -40.892  54.510 -52.674  1.00  0.00    -0.025 A 
HETATM   19  C   UNL     1     -41.331  55.801 -52.281  1.00  0.00    -0.016 A 
HETATM   20  C   UNL     1     -40.567  53.532 -51.717  1.00  0.00     0.012 A 
HETATM   21  C   UNL     1     -41.441  56.017 -50.882  1.00  0.00     0.013 A 
HETATM   22  C   UNL     1     -41.115  55.038 -49.938  1.00  0.00     0.001 A 
HETATM   23  C   UNL     1     -40.672  53.795 -50.356  1.00  0.00     0.001 A 
BRANCH  15  24
HETATM   24  O   UNL     1     -41.808  57.361 -55.601  1.00  0.00    -0.355 OA
HETATM   25  C   UNL     1     -42.437  56.948 -56.809  1.00  0.00     0.210 C 
ENDBRANCH  15  24
ENDBRANCH   8  14
BRANCH  12  26
HETATM   26  N   UNL     1     -40.787  60.351 -50.064  1.00  0.00    -0.282 NA
HETATM   27  H   UNL     1     -39.783  60.250 -50.179  1.00  0.00     0.126 HD
HETATM   28  H   UNL     1     -41.085  61.320 -49.983  1.00  0.00     0.126 HD
ENDBRANCH  12  26
TORSDOF 3
ENDMDL
MODEL 8
REMARK VINA RESULT:      -6.6      5.527      8.600
REMARK  3 active torsions:
REMARK  status: ('A' for Active; 'I' for Inactive)
REMARK    1  A    between atoms: C_8  and  C_9 
REMARK    2  A    between atoms: C_10  and  O_11 
REMARK    3  A    between atoms: C_24  and  N_25 
ROOT
HETATM    1  C   UNL     1     -47.033  56.527 -61.237  1.00  0.00     0.073 C 
HETATM    2  C   UNL     1     -45.860  55.879 -60.599  1.00  0.00     0.062 A 
HETATM    3  N   UNL     1     -45.421  54.692 -61.052  1.00  0.00    -0.177 NA
HETATM    4  N   UNL     1     -44.385  54.390 -60.245  1.00  0.00    -0.256 N 
HETATM    5  H   UNL     1     -43.883  53.523 -60.396  1.00  0.00     0.191 HD
HETATM    6  C   UNL     1     -44.168  55.334 -59.295  1.00  0.00     0.175 A 
HETATM    7  C   UNL     1     -45.085  56.333 -59.504  1.00  0.00     0.034 A 
HETATM    8  C   UNL     1     -45.120  57.504 -58.583  1.00  0.00     0.108 A 
HETATM    9  C   UNL     1     -43.979  57.422 -57.569  1.00  0.00     0.067 A 
HETATM   10  C   UNL     1     -43.822  58.596 -56.616  1.00  0.00     0.020 C 
HETATM   11  N   UNL     1     -43.693  59.570 -55.826  1.00  0.00    -0.096 N 
HETATM   12  C   UNL     1     -43.129  56.363 -57.484  1.00  0.00     0.139 A 
HETATM   13  O   UNL     1     -43.228  55.263 -58.358  1.00  0.00    -0.279 OA
ENDROOT
BRANCH   8  14
HETATM   14  C   UNL     1     -45.165  58.779 -59.434  1.00  0.00     0.000 A 
HETATM   15  C   UNL     1     -46.374  59.529 -59.420  1.00  0.00     0.076 A 
HETATM   16  C   UNL     1     -46.468  60.730 -60.120  1.00  0.00     0.038 A 
HETATM   17  C   UNL     1     -45.381  61.210 -60.841  1.00  0.00     0.015 A 
HETATM   18  C   UNL     1     -44.179  60.500 -60.891  1.00  0.00    -0.025 A 
HETATM   19  C   UNL     1     -44.046  59.266 -60.202  1.00  0.00    -0.016 A 
HETATM   20  C   UNL     1     -43.112  61.036 -61.632  1.00  0.00     0.012 A 
HETATM   21  C   UNL     1     -42.791  58.616 -60.337  1.00  0.00     0.013 A 
HETATM   22  C   UNL     1     -41.735  59.158 -61.077  1.00  0.00     0.001 A 
HETATM   23  C   UNL     1     -41.894  60.372 -61.722  1.00  0.00     0.001 A 
BRANCH  15  24
HETATM   24  O   UNL     1     -47.409  59.003 -58.686  1.00  0.00    -0.355 OA
HETATM   25  C   UNL     1     -48.319  59.907 -58.068  1.00  0.00     0.210 C 
ENDBRANCH  15  24
ENDBRANCH   8  14
BRANCH  12  26
HETATM   26  N   UNL     1     -42.096  56.235 -56.584  1.00  0.00    -0.282 NA
HETATM   27  H   UNL     1     -41.719  55.297 -56.475  1.00  0.00     0.126 HD
HETATM   28  H   UNL     1     -41.377  56.941 -56.723  1.00  0.00     0.126 HD
ENDBRANCH  12  26
TORSDOF 3
ENDMDL
MODEL 9
REMARK VINA RESULT:      -6.6      3.864      6.822
REMARK  3 active torsions:
REMARK  status: ('A' for Active; 'I' for Inactive)
REMARK    1  A    between atoms: C_8  and  C_9 
REMARK    2  A    between atoms: C_10  and  O_11 
REMARK    3  A    between atoms: C_24  and  N_25 
ROOT
HETATM    1  C   UNL     1     -42.521  59.422 -60.161  1.00  0.00     0.073 C 
HETATM    2  C   UNL     1     -42.174  59.920 -58.807  1.00  0.00     0.062 A 
HETATM    3  N   UNL     1     -41.577  61.116 -58.666  1.00  0.00    -0.177 NA
HETATM    4  N   UNL     1     -41.386  61.238 -57.338  1.00  0.00    -0.256 N 
HETATM    5  H   UNL     1     -40.941  62.076 -56.982  1.00  0.00     0.191 HD
HETATM    6  C   UNL     1     -41.827  60.160 -56.643  1.00  0.00     0.175 A 
HETATM    7  C   UNL     1     -42.372  59.291 -57.554  1.00  0.00     0.034 A 
HETATM    8  C   UNL     1     -42.913  57.981 -57.090  1.00  0.00     0.108 A 
HETATM    9  C   UNL     1     -42.852  57.887 -55.565  1.00  0.00     0.067 A 
HETATM   10  C   UNL     1     -43.455  56.645 -54.930  1.00  0.00     0.020 C 
HETATM   11  N   UNL     1     -43.956  55.615 -54.403  1.00  0.00    -0.096 N 
HETATM   12  C   UNL     1     -42.285  58.843 -54.779  1.00  0.00     0.139 A 
HETATM   13  O   UNL     1     -41.730  60.016 -55.325  1.00  0.00    -0.279 OA
ENDROOT
BRANCH   8  14
HETATM   14  C   UNL     1     -44.300  57.790 -57.714  1.00  0.00     0.000 A 
HETATM   15  C   UNL     1     -45.345  58.637 -57.251  1.00  0.00     0.076 A 
HETATM   16  C   UNL     1     -46.617  58.563 -57.815  1.00  0.00     0.038 A 
HETATM   17  C   UNL     1     -46.880  57.659 -58.838  1.00  0.00     0.015 A 
HETATM   18  C   UNL     1     -45.887  56.802 -59.316  1.00  0.00    -0.025 A 
HETATM   19  C   UNL     1     -44.581  56.837 -58.760  1.00  0.00    -0.016 A 
HETATM   20  C   UNL     1     -46.209  55.912 -60.356  1.00  0.00     0.012 A 
HETATM   21  C   UNL     1     -43.654  55.908 -59.302  1.00  0.00     0.013 A 
HETATM   22  C   UNL     1     -43.985  55.027 -60.337  1.00  0.00     0.001 A 
HETATM   23  C   UNL     1     -45.263  55.033 -60.868  1.00  0.00     0.001 A 
BRANCH  15  24
HETATM   24  O   UNL     1     -45.020  59.509 -56.241  1.00  0.00    -0.355 OA
HETATM   25  C   UNL     1     -45.541  60.832 -56.305  1.00  0.00     0.210 C 
ENDBRANCH  15  24
ENDBRANCH   8  14
BRANCH  12  26
HETATM   26  N   UNL     1     -42.194  58.801 -53.407  1.00  0.00    -0.282 NA
HETATM   27  H   UNL     1     -42.978  59.202 -52.900  1.00  0.00     0.126 HD
HETATM   28  H   UNL     1     -41.928  57.879 -53.069  1.00  0.00     0.126 HD
ENDBRANCH  12  26
TORSDOF 3
ENDMDL
MODEL 10
REMARK VINA RESULT:      -6.5      3.185      5.206
REMARK  3 active torsions:
REMARK  status: ('A' for Active; 'I' for Inactive)
REMARK    1  A    between atoms: C_8  and  C_9 
REMARK    2  A    between atoms: C_10  and  O_11 
REMARK    3  A    between atoms: C_24  and  N_25 
ROOT
HETATM    1  C   UNL     1     -45.245  59.234 -50.645  1.00  0.00     0.073 C 
HETATM    2  C   UNL     1     -45.422  59.463 -52.100  1.00  0.00     0.062 A 
HETATM    3  N   UNL     1     -46.096  60.543 -52.531  1.00  0.00    -0.177 NA
HETATM    4  N   UNL     1     -46.091  60.424 -53.874  1.00  0.00    -0.256 N 
HETATM    5  H   UNL     1     -46.550  61.136 -54.430  1.00  0.00     0.191 HD
HETATM    6  C   UNL     1     -45.454  59.306 -54.299  1.00  0.00     0.175 A 
HETATM    7  C   UNL     1     -44.979  58.665 -53.182  1.00  0.00     0.034 A 
HETATM    8  C   UNL     1     -44.257  57.368 -53.328  1.00  0.00     0.108 A 
HETATM    9  C   UNL     1     -44.075  57.021 -54.806  1.00  0.00     0.067 A 
HETATM   10  C   UNL     1     -43.272  55.770 -55.123  1.00  0.00     0.020 C 
HETATM   11  N   UNL     1     -42.605  54.732 -55.385  1.00  0.00    -0.096 N 
HETATM   12  C   UNL     1     -44.598  57.765 -55.819  1.00  0.00     0.139 A 
HETATM   13  O   UNL     1     -45.333  58.939 -55.571  1.00  0.00    -0.279 OA
ENDROOT
BRANCH   8  14
HETATM   14  C   UNL     1     -42.971  57.442 -52.497  1.00  0.00     0.000 A 
HETATM   15  C   UNL     1     -42.133  58.575 -52.694  1.00  0.00     0.076 A 
HETATM   16  C   UNL     1     -40.979  58.741 -51.930  1.00  0.00     0.038 A 
HETATM   17  C   UNL     1     -40.634  57.800 -50.967  1.00  0.00     0.015 A 
HETATM   18  C   UNL     1     -41.421  56.668 -50.749  1.00  0.00    -0.025 A 
HETATM   19  C   UNL     1     -42.598  56.455 -51.514  1.00  0.00    -0.016 A 
HETATM   20  C   UNL     1     -41.024  55.753 -49.758  1.00  0.00     0.012 A 
HETATM   21  C   UNL     1     -43.312  55.262 -51.228  1.00  0.00     0.013 A 
HETATM   22  C   UNL     1     -42.910  54.358 -50.239  1.00  0.00     0.001 A 
HETATM   23  C   UNL     1     -41.766  54.606 -49.500  1.00  0.00     0.001 A 
BRANCH  15  24
HETATM   24  O   UNL     1     -42.532  59.468 -53.657  1.00  0.00    -0.355 OA
HETATM   25  C   UNL     1     -41.661  59.698 -54.760  1.00  0.00     0.210 C 
ENDBRANCH  15  24
ENDBRANCH   8  14
BRANCH  12  26
HETATM   26  N   UNL     1     -44.473  57.490 -57.161  1.00  0.00    -0.282 NA
HETATM   27  H   UNL     1     -44.291  58.290 -57.761  1.00  0.00     0.126 HD
HETATM   28  H   UNL     1     -43.844  56.709 -57.336  1.00  0.00     0.126 HD
ENDBRANCH  12  26
TORSDOF 3
ENDMDL
