MODEL 1
REMARK VINA RESULT:      -9.7      0.000      0.000
REMARK  6 active torsions:
REMARK  status: ('A' for Active; 'I' for Inactive)
REMARK    1  A    between atoms: C_9  and  C_10 
REMARK       I    between atoms: C_10  and  N_11 
REMARK    2  A    between atoms: N_11  and  N_12 
REMARK       I    between atoms: N_12  and  C_13 
REMARK       I    between atoms: C_13  and  N_14 
REMARK    3  A    between atoms: N_14  and  C_15 
REMARK    4  A    between atoms: C_15  and  C_16 
REMARK    5  A    between atoms: C_16  and  C_17 
REMARK    6  A    between atoms: C_16  and  C_27 
ROOT
HETATM    1  N   UNL     1     -43.192  55.390 -57.716  1.00  0.00    -0.249 N 
HETATM    2  C   UNL     1     -42.578  55.870 -56.582  1.00  0.00     0.334 C 
HETATM    3  N   UNL     1     -41.596  55.021 -56.133  1.00  0.00    -0.341 N 
HETATM    4  O   UNL     1     -42.897  56.918 -56.034  1.00  0.00    -0.246 OA
HETATM    5  H   UNL     1     -42.723  54.722 -58.320  1.00  0.00     0.192 HD
HETATM    6  H   UNL     1     -41.759  54.049 -56.360  1.00  0.00     0.164 HD
ENDROOT
BRANCH   1   7
HETATM    7  N   UNL     1     -44.203  56.164 -58.302  1.00  0.00    -0.261 N 
HETATM    8  C   UNL     1     -44.123  56.401 -59.662  1.00  0.00     0.291 C 
HETATM    9  O   UNL     1     -43.124  56.221 -60.343  1.00  0.00    -0.264 OA
HETATM   10  H   UNL     1     -45.136  56.075 -57.886  1.00  0.00     0.190 HD
BRANCH   8  11
HETATM   11  C   UNL     1     -45.447  56.879 -60.268  1.00  0.00     0.157 A 
HETATM   12  C   UNL     1     -45.930  58.267 -60.080  1.00  0.00     0.016 A 
HETATM   13  C   UNL     1     -45.286  59.225 -59.291  1.00  0.00     0.015 A 
HETATM   14  C   UNL     1     -47.111  58.616 -60.739  1.00  0.00     0.046 A 
HETATM   15  C   UNL     1     -45.804  60.522 -59.192  1.00  0.00     0.001 A 
HETATM   16  C   UNL     1     -46.971  60.868 -59.870  1.00  0.00     0.001 A 
HETATM   17  C   UNL     1     -47.630  59.914 -60.641  1.00  0.00     0.018 A 
HETATM   18  C   UNL     1     -47.826  57.601 -61.531  1.00  0.00     0.272 A 
HETATM   19  O   UNL     1     -48.865  57.866 -62.126  1.00  0.00    -0.266 OA
HETATM   20  N   UNL     1     -47.266  56.347 -61.551  1.00  0.00    -0.242 N 
HETATM   21  N   UNL     1     -46.098  55.983 -60.958  1.00  0.00    -0.166 NA
HETATM   22  H   UNL     1     -47.746  55.636 -62.097  1.00  0.00     0.192 HD
ENDBRANCH   8  11
ENDBRANCH   1   7
BRANCH   3  23
HETATM   23  C   UNL     1     -40.960  55.281 -54.845  1.00  0.00     0.139 C 
BRANCH  23  24
HETATM   24  C   UNL     1     -41.775  54.762 -53.637  1.00  0.00     0.079 C 
BRANCH  24  25
HETATM   25  C   UNL     1     -40.976  53.789 -52.798  1.00  0.00    -0.020 A 
HETATM   26  C   UNL     1     -40.599  52.453 -53.168  1.00  0.00    -0.001 A 
HETATM   27  C   UNL     1     -39.869  51.912 -52.110  1.00  0.00     0.042 A 
HETATM   28  C   UNL     1     -40.812  51.650 -54.309  1.00  0.00     0.014 A 
HETATM   29  C   UNL     1     -39.339  50.616 -52.134  1.00  0.00     0.030 A 
HETATM   30  N   UNL     1     -39.806  52.872 -51.128  1.00  0.00    -0.365 N 
HETATM   31  C   UNL     1     -39.562  49.846 -53.278  1.00  0.00     0.002 A 
HETATM   32  C   UNL     1     -40.288  50.353 -54.352  1.00  0.00     0.001 A 
HETATM   33  H   UNL     1     -39.339  52.752 -50.241  1.00  0.00     0.165 HD
HETATM   34  C   UNL     1     -40.460  54.003 -51.530  1.00  0.00     0.097 A 
ENDBRANCH  24  25
BRANCH  24  35
HETATM   35  C   UNL     1     -42.314  55.904 -52.786  1.00  0.00    -0.007 A 
HETATM   36  S   UNL     1     -41.458  57.393 -52.718  1.00  0.00    -0.106 SA
HETATM   37  C   UNL     1     -42.601  58.081 -51.652  1.00  0.00     0.050 A 
HETATM   38  C   UNL     1     -43.614  57.203 -51.343  1.00  0.00     0.008 A 
HETATM   39  C   UNL     1     -43.451  55.950 -51.999  1.00  0.00     0.016 A 
ENDBRANCH  24  35
ENDBRANCH  23  24
ENDBRANCH   3  23
TORSDOF 6
ENDMDL
MODEL 2
REMARK VINA RESULT:      -9.6      5.352      9.111
REMARK  6 active torsions:
REMARK  status: ('A' for Active; 'I' for Inactive)
REMARK    1  A    between atoms: C_9  and  C_10 
REMARK       I    between atoms: C_10  and  N_11 
REMARK    2  A    between atoms: N_11  and  N_12 
REMARK       I    between atoms: N_12  and  C_13 
REMARK       I    between atoms: C_13  and  N_14 
REMARK    3  A    between atoms: N_14  and  C_15 
REMARK    4  A    between atoms: C_15  and  C_16 
REMARK    5  A    between atoms: C_16  and  C_17 
REMARK    6  A    between atoms: C_16  and  C_27 
ROOT
HETATM    1  N   UNL     1     -41.283  57.032 -49.737  1.00  0.00    -0.249 N 
HETATM    2  C   UNL     1     -41.222  58.143 -50.545  1.00  0.00     0.334 C 
HETATM    3  N   UNL     1     -41.829  59.231 -49.967  1.00  0.00    -0.341 N 
HETATM    4  O   UNL     1     -40.707  58.143 -51.657  1.00  0.00    -0.246 OA
HETATM    5  H   UNL     1     -41.410  57.123 -48.734  1.00  0.00     0.192 HD
HETATM    6  H   UNL     1     -42.581  58.993 -49.333  1.00  0.00     0.164 HD
ENDROOT
BRANCH   1   7
HETATM    7  N   UNL     1     -40.682  55.848 -50.189  1.00  0.00    -0.261 N 
HETATM    8  C   UNL     1     -41.425  54.684 -50.116  1.00  0.00     0.291 C 
HETATM    9  O   UNL     1     -42.445  54.549 -49.457  1.00  0.00    -0.264 OA
HETATM   10  H   UNL     1     -40.024  55.947 -50.969  1.00  0.00     0.190 HD
BRANCH   8  11
HETATM   11  C   UNL     1     -40.866  53.559 -50.993  1.00  0.00     0.157 A 
HETATM   12  C   UNL     1     -40.738  53.710 -52.461  1.00  0.00     0.016 A 
HETATM   13  C   UNL     1     -41.174  54.829 -53.179  1.00  0.00     0.015 A 
HETATM   14  C   UNL     1     -40.147  52.652 -53.154  1.00  0.00     0.046 A 
HETATM   15  C   UNL     1     -40.990  54.894 -54.566  1.00  0.00     0.001 A 
HETATM   16  C   UNL     1     -40.379  53.843 -55.245  1.00  0.00     0.001 A 
HETATM   17  C   UNL     1     -39.961  52.716 -54.541  1.00  0.00     0.018 A 
HETATM   18  C   UNL     1     -39.730  51.447 -52.417  1.00  0.00     0.272 A 
HETATM   19  O   UNL     1     -39.207  50.495 -52.985  1.00  0.00    -0.266 OA
HETATM   20  N   UNL     1     -39.975  51.451 -51.065  1.00  0.00    -0.242 N 
HETATM   21  N   UNL     1     -40.510  52.479 -50.353  1.00  0.00    -0.166 NA
HETATM   22  H   UNL     1     -39.690  50.628 -50.541  1.00  0.00     0.192 HD
ENDBRANCH   8  11
ENDBRANCH   1   7
BRANCH   3  23
HETATM   23  C   UNL     1     -42.016  60.448 -50.752  1.00  0.00     0.139 C 
BRANCH  23  24
HETATM   24  C   UNL     1     -43.448  60.608 -51.313  1.00  0.00     0.079 C 
BRANCH  24  25
HETATM   25  C   UNL     1     -44.003  59.295 -51.820  1.00  0.00    -0.020 A 
HETATM   26  C   UNL     1     -43.781  58.720 -53.118  1.00  0.00    -0.001 A 
HETATM   27  C   UNL     1     -44.469  57.506 -53.164  1.00  0.00     0.042 A 
HETATM   28  C   UNL     1     -43.057  59.119 -54.262  1.00  0.00     0.014 A 
HETATM   29  C   UNL     1     -44.467  56.673 -54.290  1.00  0.00     0.030 A 
HETATM   30  N   UNL     1     -45.091  57.346 -51.950  1.00  0.00    -0.365 N 
HETATM   31  C   UNL     1     -43.740  57.092 -55.406  1.00  0.00     0.002 A 
HETATM   32  C   UNL     1     -43.043  58.297 -55.395  1.00  0.00     0.001 A 
HETATM   33  H   UNL     1     -45.667  56.554 -51.702  1.00  0.00     0.165 HD
HETATM   34  C   UNL     1     -44.816  58.408 -51.133  1.00  0.00     0.097 A 
ENDBRANCH  24  25
BRANCH  24  35
HETATM   35  C   UNL     1     -44.387  61.242 -50.295  1.00  0.00    -0.007 A 
HETATM   36  S   UNL     1     -45.861  61.951 -50.821  1.00  0.00    -0.106 SA
HETATM   37  C   UNL     1     -46.292  62.401 -49.231  1.00  0.00     0.050 A 
HETATM   38  C   UNL     1     -45.339  62.029 -48.311  1.00  0.00     0.008 A 
HETATM   39  C   UNL     1     -44.242  61.359 -48.923  1.00  0.00     0.016 A 
ENDBRANCH  24  35
ENDBRANCH  23  24
ENDBRANCH   3  23
TORSDOF 6
ENDMDL
MODEL 3
REMARK VINA RESULT:      -9.4      3.030      9.503
REMARK  6 active torsions:
REMARK  status: ('A' for Active; 'I' for Inactive)
REMARK    1  A    between atoms: C_9  and  C_10 
REMARK       I    between atoms: C_10  and  N_11 
REMARK    2  A    between atoms: N_11  and  N_12 
REMARK       I    between atoms: N_12  and  C_13 
REMARK       I    between atoms: C_13  and  N_14 
REMARK    3  A    between atoms: N_14  and  C_15 
REMARK    4  A    between atoms: C_15  and  C_16 
REMARK    5  A    between atoms: C_16  and  C_17 
REMARK    6  A    between atoms: C_16  and  C_27 
ROOT
HETATM    1  N   UNL     1     -44.882  56.386 -54.626  1.00  0.00    -0.249 N 
HETATM    2  C   UNL     1     -44.360  57.603 -55.000  1.00  0.00     0.334 C 
HETATM    3  N   UNL     1     -45.126  58.218 -55.960  1.00  0.00    -0.341 N 
HETATM    4  O   UNL     1     -43.319  58.060 -54.542  1.00  0.00    -0.246 OA
HETATM    5  H   UNL     1     -45.867  56.179 -54.760  1.00  0.00     0.192 HD
HETATM    6  H   UNL     1     -45.631  57.574 -56.556  1.00  0.00     0.164 HD
ENDROOT
BRANCH   1   7
HETATM    7  N   UNL     1     -44.215  55.653 -53.635  1.00  0.00    -0.261 N 
HETATM    8  C   UNL     1     -43.223  54.780 -54.043  1.00  0.00     0.291 C 
HETATM    9  O   UNL     1     -43.059  54.400 -55.193  1.00  0.00    -0.264 OA
HETATM   10  H   UNL     1     -44.098  56.122 -52.731  1.00  0.00     0.190 HD
BRANCH   8  11
HETATM   11  C   UNL     1     -42.292  54.354 -52.903  1.00  0.00     0.157 A 
HETATM   12  C   UNL     1     -41.328  53.241 -53.063  1.00  0.00     0.016 A 
HETATM   13  C   UNL     1     -41.229  52.443 -54.207  1.00  0.00     0.015 A 
HETATM   14  C   UNL     1     -40.476  52.986 -51.986  1.00  0.00     0.046 A 
HETATM   15  C   UNL     1     -40.269  51.426 -54.278  1.00  0.00     0.001 A 
HETATM   16  C   UNL     1     -39.409  51.194 -53.207  1.00  0.00     0.001 A 
HETATM   17  C   UNL     1     -39.514  51.970 -52.056  1.00  0.00     0.018 A 
HETATM   18  C   UNL     1     -40.604  53.787 -50.756  1.00  0.00     0.272 A 
HETATM   19  O   UNL     1     -39.877  53.597 -49.788  1.00  0.00    -0.266 OA
HETATM   20  N   UNL     1     -41.592  54.742 -50.758  1.00  0.00    -0.242 N 
HETATM   21  N   UNL     1     -42.410  55.045 -51.801  1.00  0.00    -0.166 NA
HETATM   22  H   UNL     1     -41.691  55.305 -49.918  1.00  0.00     0.192 HD
ENDBRANCH   8  11
ENDBRANCH   1   7
BRANCH   3  23
HETATM   23  C   UNL     1     -44.632  59.432 -56.601  1.00  0.00     0.139 C 
BRANCH  23  24
HETATM   24  C   UNL     1     -43.743  59.160 -57.838  1.00  0.00     0.079 C 
BRANCH  24  25
HETATM   25  C   UNL     1     -44.518  58.483 -58.947  1.00  0.00    -0.020 A 
HETATM   26  C   UNL     1     -44.490  57.084 -59.275  1.00  0.00    -0.001 A 
HETATM   27  C   UNL     1     -45.351  56.888 -60.356  1.00  0.00     0.042 A 
HETATM   28  C   UNL     1     -43.812  55.963 -58.752  1.00  0.00     0.014 A 
HETATM   29  C   UNL     1     -45.570  55.632 -60.937  1.00  0.00     0.030 A 
HETATM   30  N   UNL     1     -45.878  58.114 -60.682  1.00  0.00    -0.365 N 
HETATM   31  C   UNL     1     -44.887  54.540 -60.396  1.00  0.00     0.002 A 
HETATM   32  C   UNL     1     -44.020  54.700 -59.319  1.00  0.00     0.001 A 
HETATM   33  H   UNL     1     -46.533  58.273 -61.435  1.00  0.00     0.165 HD
HETATM   34  C   UNL     1     -45.392  59.077 -59.842  1.00  0.00     0.097 A 
ENDBRANCH  24  25
BRANCH  24  35
HETATM   35  C   UNL     1     -43.067  60.430 -58.338  1.00  0.00    -0.007 A 
HETATM   36  S   UNL     1     -43.677  61.964 -57.861  1.00  0.00    -0.106 SA
HETATM   37  C   UNL     1     -42.488  62.794 -58.762  1.00  0.00     0.050 A 
HETATM   38  C   UNL     1     -41.642  61.932 -59.421  1.00  0.00     0.008 A 
HETATM   39  C   UNL     1     -41.974  60.569 -59.175  1.00  0.00     0.016 A 
ENDBRANCH  24  35
ENDBRANCH  23  24
ENDBRANCH   3  23
TORSDOF 6
ENDMDL
MODEL 4
REMARK VINA RESULT:      -9.2      3.554      9.863
REMARK  6 active torsions:
REMARK  status: ('A' for Active; 'I' for Inactive)
REMARK    1  A    between atoms: C_9  and  C_10 
REMARK       I    between atoms: C_10  and  N_11 
REMARK    2  A    between atoms: N_11  and  N_12 
REMARK       I    between atoms: N_12  and  C_13 
REMARK       I    between atoms: C_13  and  N_14 
REMARK    3  A    between atoms: N_14  and  C_15 
REMARK    4  A    between atoms: C_15  and  C_16 
REMARK    5  A    between atoms: C_16  and  C_17 
REMARK    6  A    between atoms: C_16  and  C_27 
ROOT
HETATM    1  N   UNL     1     -44.932  56.158 -54.674  1.00  0.00    -0.249 N 
HETATM    2  C   UNL     1     -44.608  57.473 -54.920  1.00  0.00     0.334 C 
HETATM    3  N   UNL     1     -45.423  58.032 -55.874  1.00  0.00    -0.341 N 
HETATM    4  O   UNL     1     -43.685  58.056 -54.365  1.00  0.00    -0.246 OA
HETATM    5  H   UNL     1     -45.859  55.802 -54.883  1.00  0.00     0.192 HD
HETATM    6  H   UNL     1     -45.781  57.367 -56.548  1.00  0.00     0.164 HD
ENDROOT
BRANCH   1   7
HETATM    7  N   UNL     1     -44.195  55.464 -53.703  1.00  0.00    -0.261 N 
HETATM    8  C   UNL     1     -43.112  54.720 -54.132  1.00  0.00     0.291 C 
HETATM    9  O   UNL     1     -42.899  54.404 -55.294  1.00  0.00    -0.264 OA
HETATM   10  H   UNL     1     -44.136  55.907 -52.781  1.00  0.00     0.190 HD
BRANCH   8  11
HETATM   11  C   UNL     1     -42.149  54.353 -52.999  1.00  0.00     0.157 A 
HETATM   12  C   UNL     1     -41.214  53.209 -53.113  1.00  0.00     0.016 A 
HETATM   13  C   UNL     1     -41.175  52.330 -54.201  1.00  0.00     0.015 A 
HETATM   14  C   UNL     1     -40.328  53.011 -52.052  1.00  0.00     0.046 A 
HETATM   15  C   UNL     1     -40.240  51.289 -54.233  1.00  0.00     0.001 A 
HETATM   16  C   UNL     1     -39.346  51.112 -53.180  1.00  0.00     0.001 A 
HETATM   17  C   UNL     1     -39.391  51.970 -52.084  1.00  0.00     0.018 A 
HETATM   18  C   UNL     1     -40.394  53.899 -50.879  1.00  0.00     0.272 A 
HETATM   19  O   UNL     1     -39.635  53.761 -49.926  1.00  0.00    -0.266 OA
HETATM   20  N   UNL     1     -41.360  54.875 -50.913  1.00  0.00    -0.242 N 
HETATM   21  N   UNL     1     -42.210  55.123 -51.946  1.00  0.00    -0.166 NA
HETATM   22  H   UNL     1     -41.416  55.498 -50.113  1.00  0.00     0.192 HD
ENDBRANCH   8  11
ENDBRANCH   1   7
BRANCH   3  23
HETATM   23  C   UNL     1     -45.115  59.362 -56.389  1.00  0.00     0.139 C 
BRANCH  23  24
HETATM   24  C   UNL     1     -44.482  59.348 -57.800  1.00  0.00     0.079 C 
BRANCH  24  25
HETATM   25  C   UNL     1     -43.276  60.259 -57.882  1.00  0.00    -0.020 A 
HETATM   26  C   UNL     1     -42.634  60.716 -59.083  1.00  0.00    -0.001 A 
HETATM   27  C   UNL     1     -41.570  61.537 -58.706  1.00  0.00     0.042 A 
HETATM   28  C   UNL     1     -42.857  60.508 -60.461  1.00  0.00     0.014 A 
HETATM   29  C   UNL     1     -40.724  62.161 -59.632  1.00  0.00     0.030 A 
HETATM   30  N   UNL     1     -41.556  61.578 -57.333  1.00  0.00    -0.365 N 
HETATM   31  C   UNL     1     -40.972  61.940 -60.988  1.00  0.00     0.002 A 
HETATM   32  C   UNL     1     -42.023  61.125 -61.400  1.00  0.00     0.001 A 
HETATM   33  H   UNL     1     -40.886  62.096 -56.783  1.00  0.00     0.165 HD
HETATM   34  C   UNL     1     -42.577  60.821 -56.827  1.00  0.00     0.097 A 
ENDBRANCH  24  25
BRANCH  24  35
HETATM   35  C   UNL     1     -44.132  57.936 -58.249  1.00  0.00    -0.007 A 
HETATM   36  S   UNL     1     -45.225  57.066 -59.251  1.00  0.00    -0.106 SA
HETATM   37  C   UNL     1     -44.202  55.700 -59.298  1.00  0.00     0.050 A 
HETATM   38  C   UNL     1     -43.052  55.888 -58.566  1.00  0.00     0.008 A 
HETATM   39  C   UNL     1     -43.010  57.177 -57.964  1.00  0.00     0.016 A 
ENDBRANCH  24  35
ENDBRANCH  23  24
ENDBRANCH   3  23
TORSDOF 6
ENDMDL
MODEL 5
REMARK VINA RESULT:      -9.2      3.194      9.320
REMARK  6 active torsions:
REMARK  status: ('A' for Active; 'I' for Inactive)
REMARK    1  A    between atoms: C_9  and  C_10 
REMARK       I    between atoms: C_10  and  N_11 
REMARK    2  A    between atoms: N_11  and  N_12 
REMARK       I    between atoms: N_12  and  C_13 
REMARK       I    between atoms: C_13  and  N_14 
REMARK    3  A    between atoms: N_14  and  C_15 
REMARK    4  A    between atoms: C_15  and  C_16 
REMARK    5  A    between atoms: C_16  and  C_17 
REMARK    6  A    between atoms: C_16  and  C_27 
ROOT
HETATM    1  N   UNL     1     -45.000  56.009 -54.657  1.00  0.00    -0.249 N 
HETATM    2  C   UNL     1     -44.832  57.373 -54.706  1.00  0.00     0.334 C 
HETATM    3  N   UNL     1     -45.687  57.964 -55.603  1.00  0.00    -0.341 N 
HETATM    4  O   UNL     1     -43.996  57.974 -54.042  1.00  0.00    -0.246 OA
HETATM    5  H   UNL     1     -45.873  55.581 -54.948  1.00  0.00     0.192 HD
HETATM    6  H   UNL     1     -45.949  57.365 -56.375  1.00  0.00     0.164 HD
ENDROOT
BRANCH   1   7
HETATM    7  N   UNL     1     -44.206  55.273 -53.765  1.00  0.00    -0.261 N 
HETATM    8  C   UNL     1     -42.942  54.905 -54.188  1.00  0.00     0.291 C 
HETATM    9  O   UNL     1     -42.559  54.933 -55.348  1.00  0.00    -0.264 OA
HETATM   10  H   UNL     1     -44.336  55.481 -52.770  1.00  0.00     0.190 HD
BRANCH   8  11
HETATM   11  C   UNL     1     -42.022  54.488 -53.036  1.00  0.00     0.157 A 
HETATM   12  C   UNL     1     -41.164  53.283 -53.124  1.00  0.00     0.016 A 
HETATM   13  C   UNL     1     -41.168  52.391 -54.201  1.00  0.00     0.015 A 
HETATM   14  C   UNL     1     -40.309  53.039 -52.047  1.00  0.00     0.046 A 
HETATM   15  C   UNL     1     -40.304  51.289 -54.208  1.00  0.00     0.001 A 
HETATM   16  C   UNL     1     -39.439  51.066 -53.139  1.00  0.00     0.001 A 
HETATM   17  C   UNL     1     -39.443  51.938 -52.053  1.00  0.00     0.018 A 
HETATM   18  C   UNL     1     -40.332  53.943 -50.885  1.00  0.00     0.272 A 
HETATM   19  O   UNL     1     -39.598  53.766 -49.919  1.00  0.00    -0.266 OA
HETATM   20  N   UNL     1     -41.231  54.981 -50.944  1.00  0.00    -0.242 N 
HETATM   21  N   UNL     1     -42.047  55.272 -51.992  1.00  0.00    -0.166 NA
HETATM   22  H   UNL     1     -41.256  55.616 -50.151  1.00  0.00     0.192 HD
ENDBRANCH   8  11
ENDBRANCH   1   7
BRANCH   3  23
HETATM   23  C   UNL     1     -45.530  59.381 -55.916  1.00  0.00     0.139 C 
BRANCH  23  24
HETATM   24  C   UNL     1     -44.677  59.644 -57.179  1.00  0.00     0.079 C 
BRANCH  24  25
HETATM   25  C   UNL     1     -43.974  58.390 -57.652  1.00  0.00    -0.020 A 
HETATM   26  C   UNL     1     -44.520  57.382 -58.518  1.00  0.00    -0.001 A 
HETATM   27  C   UNL     1     -43.538  56.408 -58.702  1.00  0.00     0.042 A 
HETATM   28  C   UNL     1     -45.762  57.206 -59.164  1.00  0.00     0.014 A 
HETATM   29  C   UNL     1     -43.732  55.272 -59.499  1.00  0.00     0.030 A 
HETATM   30  N   UNL     1     -42.439  56.797 -57.975  1.00  0.00    -0.365 N 
HETATM   31  C   UNL     1     -44.970  55.126 -60.129  1.00  0.00     0.002 A 
HETATM   32  C   UNL     1     -45.973  56.078 -59.966  1.00  0.00     0.001 A 
HETATM   33  H   UNL     1     -41.576  56.275 -57.920  1.00  0.00     0.165 HD
HETATM   34  C   UNL     1     -42.685  57.986 -57.346  1.00  0.00     0.097 A 
ENDBRANCH  24  25
BRANCH  24  35
HETATM   35  C   UNL     1     -45.500  60.266 -58.298  1.00  0.00    -0.007 A 
HETATM   36  S   UNL     1     -44.709  60.907 -59.683  1.00  0.00    -0.106 SA
HETATM   37  C   UNL     1     -46.188  61.377 -60.396  1.00  0.00     0.050 A 
HETATM   38  C   UNL     1     -47.268  61.063 -59.603  1.00  0.00     0.008 A 
HETATM   39  C   UNL     1     -46.872  60.420 -58.396  1.00  0.00     0.016 A 
ENDBRANCH  24  35
ENDBRANCH  23  24
ENDBRANCH   3  23
TORSDOF 6
ENDMDL
MODEL 6
REMARK VINA RESULT:      -9.2      2.864     10.466
REMARK  6 active torsions:
REMARK  status: ('A' for Active; 'I' for Inactive)
REMARK    1  A    between atoms: C_9  and  C_10 
REMARK       I    between atoms: C_10  and  N_11 
REMARK    2  A    between atoms: N_11  and  N_12 
REMARK       I    between atoms: N_12  and  C_13 
REMARK       I    between atoms: C_13  and  N_14 
REMARK    3  A    between atoms: N_14  and  C_15 
REMARK    4  A    between atoms: C_15  and  C_16 
REMARK    5  A    between atoms: C_16  and  C_17 
REMARK    6  A    between atoms: C_16  and  C_27 
ROOT
HETATM    1  N   UNL     1     -44.966  56.324 -54.268  1.00  0.00    -0.249 N 
HETATM    2  C   UNL     1     -44.624  57.141 -55.320  1.00  0.00     0.334 C 
HETATM    3  N   UNL     1     -45.703  57.845 -55.795  1.00  0.00    -0.341 N 
HETATM    4  O   UNL     1     -43.492  57.205 -55.785  1.00  0.00    -0.246 OA
HETATM    5  H   UNL     1     -45.789  56.516 -53.705  1.00  0.00     0.192 HD
HETATM    6  H   UNL     1     -46.589  57.373 -55.668  1.00  0.00     0.164 HD
ENDROOT
BRANCH   1   7
HETATM    7  N   UNL     1     -43.957  55.559 -53.665  1.00  0.00    -0.261 N 
HETATM    8  C   UNL     1     -43.188  56.167 -52.691  1.00  0.00     0.291 C 
HETATM    9  O   UNL     1     -43.134  57.373 -52.496  1.00  0.00    -0.264 OA
HETATM   10  H   UNL     1     -44.151  54.558 -53.566  1.00  0.00     0.190 HD
BRANCH   8  11
HETATM   11  C   UNL     1     -42.420  55.167 -51.820  1.00  0.00     0.157 A 
HETATM   12  C   UNL     1     -41.568  54.112 -52.417  1.00  0.00     0.016 A 
HETATM   13  C   UNL     1     -41.446  53.883 -53.792  1.00  0.00     0.015 A 
HETATM   14  C   UNL     1     -40.854  53.303 -51.530  1.00  0.00     0.046 A 
HETATM   15  C   UNL     1     -40.596  52.876 -54.266  1.00  0.00     0.001 A 
HETATM   16  C   UNL     1     -39.871  52.088 -53.375  1.00  0.00     0.001 A 
HETATM   17  C   UNL     1     -40.003  52.296 -52.004  1.00  0.00     0.018 A 
HETATM   18  C   UNL     1     -41.014  53.502 -50.080  1.00  0.00     0.272 A 
HETATM   19  O   UNL     1     -40.407  52.814 -49.267  1.00  0.00    -0.266 OA
HETATM   20  N   UNL     1     -41.890  54.489 -49.698  1.00  0.00    -0.242 N 
HETATM   21  N   UNL     1     -42.568  55.322 -50.533  1.00  0.00    -0.166 NA
HETATM   22  H   UNL     1     -42.009  54.641 -48.701  1.00  0.00     0.192 HD
ENDBRANCH   8  11
ENDBRANCH   1   7
BRANCH   3  23
HETATM   23  C   UNL     1     -45.565  58.627 -57.020  1.00  0.00     0.139 C 
BRANCH  23  24
HETATM   24  C   UNL     1     -45.821  57.809 -58.308  1.00  0.00     0.079 C 
BRANCH  24  25
HETATM   25  C   UNL     1     -46.658  58.581 -59.305  1.00  0.00    -0.020 A 
HETATM   26  C   UNL     1     -47.326  58.041 -60.457  1.00  0.00    -0.001 A 
HETATM   27  C   UNL     1     -47.984  59.093 -61.094  1.00  0.00     0.042 A 
HETATM   28  C   UNL     1     -47.433  56.750 -61.018  1.00  0.00     0.014 A 
HETATM   29  C   UNL     1     -48.744  58.922 -62.258  1.00  0.00     0.030 A 
HETATM   30  N   UNL     1     -47.726  60.231 -60.370  1.00  0.00    -0.365 N 
HETATM   31  C   UNL     1     -48.835  57.633 -62.789  1.00  0.00     0.002 A 
HETATM   32  C   UNL     1     -48.190  56.561 -62.180  1.00  0.00     0.001 A 
HETATM   33  H   UNL     1     -48.075  61.150 -60.604  1.00  0.00     0.165 HD
HETATM   34  C   UNL     1     -46.937  59.938 -59.292  1.00  0.00     0.097 A 
ENDBRANCH  24  25
BRANCH  24  35
HETATM   35  C   UNL     1     -44.521  57.329 -58.940  1.00  0.00    -0.007 A 
HETATM   36  S   UNL     1     -43.387  58.476 -59.532  1.00  0.00    -0.106 SA
HETATM   37  C   UNL     1     -42.311  57.253 -60.042  1.00  0.00     0.050 A 
HETATM   38  C   UNL     1     -42.796  55.993 -59.777  1.00  0.00     0.008 A 
HETATM   39  C   UNL     1     -44.069  56.036 -59.140  1.00  0.00     0.016 A 
ENDBRANCH  24  35
ENDBRANCH  23  24
ENDBRANCH   3  23
TORSDOF 6
ENDMDL
MODEL 7
REMARK VINA RESULT:      -9.2      1.925      2.891
REMARK  6 active torsions:
REMARK  status: ('A' for Active; 'I' for Inactive)
REMARK    1  A    between atoms: C_9  and  C_10 
REMARK       I    between atoms: C_10  and  N_11 
REMARK    2  A    between atoms: N_11  and  N_12 
REMARK       I    between atoms: N_12  and  C_13 
REMARK       I    between atoms: C_13  and  N_14 
REMARK    3  A    between atoms: N_14  and  C_15 
REMARK    4  A    between atoms: C_15  and  C_16 
REMARK    5  A    between atoms: C_16  and  C_17 
REMARK    6  A    between atoms: C_16  and  C_27 
ROOT
HETATM    1  N   UNL     1     -44.539  57.312 -54.657  1.00  0.00    -0.249 N 
HETATM    2  C   UNL     1     -44.253  56.202 -53.896  1.00  0.00     0.334 C 
HETATM    3  N   UNL     1     -43.937  56.536 -52.601  1.00  0.00    -0.341 N 
HETATM    4  O   UNL     1     -44.258  55.060 -54.338  1.00  0.00    -0.246 OA
HETATM    5  H   UNL     1     -44.840  58.179 -54.223  1.00  0.00     0.192 HD
HETATM    6  H   UNL     1     -43.519  57.453 -52.504  1.00  0.00     0.164 HD
ENDROOT
BRANCH   1   7
HETATM    7  N   UNL     1     -44.901  57.121 -55.998  1.00  0.00    -0.261 N 
HETATM    8  C   UNL     1     -43.904  57.222 -56.952  1.00  0.00     0.291 C 
HETATM    9  O   UNL     1     -42.803  57.717 -56.759  1.00  0.00    -0.264 OA
HETATM   10  H   UNL     1     -45.660  56.454 -56.169  1.00  0.00     0.190 HD
BRANCH   8  11
HETATM   11  C   UNL     1     -44.295  56.602 -58.297  1.00  0.00     0.157 A 
HETATM   12  C   UNL     1     -45.410  57.144 -59.108  1.00  0.00     0.016 A 
HETATM   13  C   UNL     1     -46.240  58.194 -58.702  1.00  0.00     0.015 A 
HETATM   14  C   UNL     1     -45.631  56.550 -60.352  1.00  0.00     0.046 A 
HETATM   15  C   UNL     1     -47.256  58.658 -59.548  1.00  0.00     0.001 A 
HETATM   16  C   UNL     1     -47.454  58.073 -60.796  1.00  0.00     0.001 A 
HETATM   17  C   UNL     1     -46.646  57.013 -61.199  1.00  0.00     0.018 A 
HETATM   18  C   UNL     1     -44.795  55.410 -60.768  1.00  0.00     0.272 A 
HETATM   19  O   UNL     1     -44.955  54.860 -61.852  1.00  0.00    -0.266 OA
HETATM   20  N   UNL     1     -43.843  54.999 -59.868  1.00  0.00    -0.242 N 
HETATM   21  N   UNL     1     -43.573  55.580 -58.668  1.00  0.00    -0.166 NA
HETATM   22  H   UNL     1     -43.256  54.216 -60.142  1.00  0.00     0.192 HD
ENDBRANCH   8  11
ENDBRANCH   1   7
BRANCH   3  23
HETATM   23  C   UNL     1     -43.436  55.505 -51.698  1.00  0.00     0.139 C 
BRANCH  23  24
HETATM   24  C   UNL     1     -42.111  55.887 -50.997  1.00  0.00     0.079 C 
BRANCH  24  25
HETATM   25  C   UNL     1     -41.163  54.711 -50.911  1.00  0.00    -0.020 A 
HETATM   26  C   UNL     1     -40.847  53.791 -51.968  1.00  0.00    -0.001 A 
HETATM   27  C   UNL     1     -39.931  52.867 -51.463  1.00  0.00     0.042 A 
HETATM   28  C   UNL     1     -41.255  53.657 -53.313  1.00  0.00     0.014 A 
HETATM   29  C   UNL     1     -39.402  51.822 -52.231  1.00  0.00     0.030 A 
HETATM   30  N   UNL     1     -39.700  53.200 -50.151  1.00  0.00    -0.365 N 
HETATM   31  C   UNL     1     -39.821  51.716 -53.559  1.00  0.00     0.002 A 
HETATM   32  C   UNL     1     -40.735  52.620 -54.095  1.00  0.00     0.001 A 
HETATM   33  H   UNL     1     -39.079  52.697 -49.533  1.00  0.00     0.165 HD
HETATM   34  C   UNL     1     -40.428  54.307 -49.808  1.00  0.00     0.097 A 
ENDBRANCH  24  25
BRANCH  24  35
HETATM   35  C   UNL     1     -41.442  57.081 -51.665  1.00  0.00    -0.007 A 
HETATM   36  S   UNL     1     -41.406  58.598 -50.859  1.00  0.00    -0.106 SA
HETATM   37  C   UNL     1     -40.567  59.341 -52.148  1.00  0.00     0.050 A 
HETATM   38  C   UNL     1     -40.318  58.463 -53.178  1.00  0.00     0.008 A 
HETATM   39  C   UNL     1     -40.819  57.160 -52.899  1.00  0.00     0.016 A 
ENDBRANCH  24  35
ENDBRANCH  23  24
ENDBRANCH   3  23
TORSDOF 6
ENDMDL
MODEL 8
REMARK VINA RESULT:      -8.9      1.489      4.084
REMARK  6 active torsions:
REMARK  status: ('A' for Active; 'I' for Inactive)
REMARK    1  A    between atoms: C_9  and  C_10 
REMARK       I    between atoms: C_10  and  N_11 
REMARK    2  A    between atoms: N_11  and  N_12 
REMARK       I    between atoms: N_12  and  C_13 
REMARK       I    between atoms: C_13  and  N_14 
REMARK    3  A    between atoms: N_14  and  C_15 
REMARK    4  A    between atoms: C_15  and  C_16 
REMARK    5  A    between atoms: C_16  and  C_17 
REMARK    6  A    between atoms: C_16  and  C_27 
ROOT
HETATM    1  N   UNL     1     -43.078  55.025 -57.015  1.00  0.00    -0.249 N 
HETATM    2  C   UNL     1     -42.108  55.619 -56.242  1.00  0.00     0.334 C 
HETATM    3  N   UNL     1     -41.262  54.694 -55.680  1.00  0.00    -0.341 N 
HETATM    4  O   UNL     1     -42.035  56.829 -56.062  1.00  0.00    -0.246 OA
HETATM    5  H   UNL     1     -42.938  54.098 -57.406  1.00  0.00     0.192 HD
HETATM    6  H   UNL     1     -41.691  53.793 -55.514  1.00  0.00     0.164 HD
ENDROOT
BRANCH   1   7
HETATM    7  N   UNL     1     -44.003  55.850 -57.671  1.00  0.00    -0.261 N 
HETATM    8  C   UNL     1     -43.863  56.010 -59.037  1.00  0.00     0.291 C 
HETATM    9  O   UNL     1     -42.864  55.712 -59.675  1.00  0.00    -0.264 OA
HETATM   10  H   UNL     1     -44.952  55.860 -57.283  1.00  0.00     0.190 HD
BRANCH   8  11
HETATM   11  C   UNL     1     -45.124  56.565 -59.709  1.00  0.00     0.157 A 
HETATM   12  C   UNL     1     -45.673  57.894 -59.351  1.00  0.00     0.016 A 
HETATM   13  C   UNL     1     -45.158  58.713 -58.341  1.00  0.00     0.015 A 
HETATM   14  C   UNL     1     -46.781  58.334 -60.079  1.00  0.00     0.046 A 
HETATM   15  C   UNL     1     -45.729  59.966 -58.089  1.00  0.00     0.001 A 
HETATM   16  C   UNL     1     -46.820  60.406 -58.835  1.00  0.00     0.001 A 
HETATM   17  C   UNL     1     -47.352  59.588 -59.828  1.00  0.00     0.018 A 
HETATM   18  C   UNL     1     -47.363  57.458 -61.110  1.00  0.00     0.272 A 
HETATM   19  O   UNL     1     -48.335  57.805 -61.772  1.00  0.00    -0.266 OA
HETATM   20  N   UNL     1     -46.763  56.234 -61.273  1.00  0.00    -0.242 N 
HETATM   21  N   UNL     1     -45.659  55.790 -60.612  1.00  0.00    -0.166 NA
HETATM   22  H   UNL     1     -47.151  55.620 -61.983  1.00  0.00     0.192 HD
ENDBRANCH   8  11
ENDBRANCH   1   7
BRANCH   3  23
HETATM   23  C   UNL     1     -40.282  55.129 -54.689  1.00  0.00     0.139 C 
BRANCH  23  24
HETATM   24  C   UNL     1     -40.478  54.480 -53.299  1.00  0.00     0.079 C 
BRANCH  24  25
HETATM   25  C   UNL     1     -41.831  54.816 -52.709  1.00  0.00    -0.020 A 
HETATM   26  C   UNL     1     -42.298  56.123 -52.339  1.00  0.00    -0.001 A 
HETATM   27  C   UNL     1     -43.595  55.982 -51.844  1.00  0.00     0.042 A 
HETATM   28  C   UNL     1     -41.738  57.418 -52.379  1.00  0.00     0.014 A 
HETATM   29  C   UNL     1     -44.360  57.065 -51.390  1.00  0.00     0.030 A 
HETATM   30  N   UNL     1     -43.908  54.645 -51.901  1.00  0.00    -0.365 N 
HETATM   31  C   UNL     1     -43.781  58.335 -51.445  1.00  0.00     0.002 A 
HETATM   32  C   UNL     1     -42.488  58.512 -51.932  1.00  0.00     0.001 A 
HETATM   33  H   UNL     1     -44.788  54.251 -51.600  1.00  0.00     0.165 HD
HETATM   34  C   UNL     1     -42.862  53.936 -52.423  1.00  0.00     0.097 A 
ENDBRANCH  24  25
BRANCH  24  35
HETATM   35  C   UNL     1     -40.259  52.974 -53.342  1.00  0.00    -0.007 A 
HETATM   36  S   UNL     1     -39.741  52.148 -51.927  1.00  0.00    -0.106 SA
HETATM   37  C   UNL     1     -39.724  50.640 -52.730  1.00  0.00     0.050 A 
HETATM   38  C   UNL     1     -40.098  50.752 -54.049  1.00  0.00     0.008 A 
HETATM   39  C   UNL     1     -40.409  52.096 -54.402  1.00  0.00     0.016 A 
ENDBRANCH  24  35
ENDBRANCH  23  24
ENDBRANCH   3  23
TORSDOF 6
ENDMDL
MODEL 9
REMARK VINA RESULT:      -8.6      3.741     10.076
REMARK  6 active torsions:
REMARK  status: ('A' for Active; 'I' for Inactive)
REMARK    1  A    between atoms: C_9  and  C_10 
REMARK       I    between atoms: C_10  and  N_11 
REMARK    2  A    between atoms: N_11  and  N_12 
REMARK       I    between atoms: N_12  and  C_13 
REMARK       I    between atoms: C_13  and  N_14 
REMARK    3  A    between atoms: N_14  and  C_15 
REMARK    4  A    between atoms: C_15  and  C_16 
REMARK    5  A    between atoms: C_16  and  C_17 
REMARK    6  A    between atoms: C_16  and  C_27 
ROOT
HETATM    1  N   UNL     1     -43.565  56.619 -55.711  1.00  0.00    -0.249 N 
HETATM    2  C   UNL     1     -43.424  57.974 -55.902  1.00  0.00     0.334 C 
HETATM    3  N   UNL     1     -44.374  58.472 -56.761  1.00  0.00    -0.341 N 
HETATM    4  O   UNL     1     -42.537  58.641 -55.383  1.00  0.00    -0.246 OA
HETATM    5  H   UNL     1     -44.455  56.159 -55.873  1.00  0.00     0.192 HD
HETATM    6  H   UNL     1     -44.700  57.801 -57.445  1.00  0.00     0.164 HD
ENDROOT
BRANCH   1   7
HETATM    7  N   UNL     1     -42.676  55.976 -54.838  1.00  0.00    -0.261 N 
HETATM    8  C   UNL     1     -43.123  54.840 -54.189  1.00  0.00     0.291 C 
HETATM    9  O   UNL     1     -44.295  54.501 -54.106  1.00  0.00    -0.264 OA
HETATM   10  H   UNL     1     -41.684  56.022 -55.092  1.00  0.00     0.190 HD
BRANCH   8  11
HETATM   11  C   UNL     1     -41.987  53.995 -53.606  1.00  0.00     0.157 A 
HETATM   12  C   UNL     1     -41.404  54.289 -52.276  1.00  0.00     0.016 A 
HETATM   13  C   UNL     1     -41.767  55.381 -51.481  1.00  0.00     0.015 A 
HETATM   14  C   UNL     1     -40.425  53.409 -51.809  1.00  0.00     0.046 A 
HETATM   15  C   UNL     1     -41.178  55.566 -50.224  1.00  0.00     0.001 A 
HETATM   16  C   UNL     1     -40.219  54.671 -49.758  1.00  0.00     0.001 A 
HETATM   17  C   UNL     1     -39.835  53.593 -50.551  1.00  0.00     0.018 A 
HETATM   18  C   UNL     1     -39.997  52.285 -52.658  1.00  0.00     0.272 A 
HETATM   19  O   UNL     1     -39.142  51.489 -52.287  1.00  0.00    -0.266 OA
HETATM   20  N   UNL     1     -40.602  52.193 -53.888  1.00  0.00    -0.242 N 
HETATM   21  N   UNL     1     -41.587  53.006 -54.358  1.00  0.00    -0.166 NA
HETATM   22  H   UNL     1     -40.321  51.420 -54.485  1.00  0.00     0.192 HD
ENDBRANCH   8  11
ENDBRANCH   1   7
BRANCH   3  23
HETATM   23  C   UNL     1     -44.271  59.854 -57.219  1.00  0.00     0.139 C 
BRANCH  23  24
HETATM   24  C   UNL     1     -43.672  59.993 -58.638  1.00  0.00     0.079 C 
BRANCH  24  25
HETATM   25  C   UNL     1     -42.441  60.873 -58.644  1.00  0.00    -0.020 A 
HETATM   26  C   UNL     1     -41.807  61.445 -59.799  1.00  0.00    -0.001 A 
HETATM   27  C   UNL     1     -40.712  62.187 -59.355  1.00  0.00     0.042 A 
HETATM   28  C   UNL     1     -42.063  61.401 -61.186  1.00  0.00     0.014 A 
HETATM   29  C   UNL     1     -39.865  62.888 -60.223  1.00  0.00     0.030 A 
HETATM   30  N   UNL     1     -40.671  62.071 -57.987  1.00  0.00    -0.365 N 
HETATM   31  C   UNL     1     -40.144  62.830 -61.590  1.00  0.00     0.002 A 
HETATM   32  C   UNL     1     -41.228  62.097 -62.068  1.00  0.00     0.001 A 
HETATM   33  H   UNL     1     -39.975  62.503 -57.396  1.00  0.00     0.165 HD
HETATM   34  C   UNL     1     -41.705  61.291 -57.547  1.00  0.00     0.097 A 
ENDBRANCH  24  25
BRANCH  24  35
HETATM   35  C   UNL     1     -43.378  58.637 -59.264  1.00  0.00    -0.007 A 
HETATM   36  S   UNL     1     -44.636  57.773 -60.055  1.00  0.00    -0.106 SA
HETATM   37  C   UNL     1     -43.596  56.474 -60.440  1.00  0.00     0.050 A 
HETATM   38  C   UNL     1     -42.317  56.680 -59.976  1.00  0.00     0.008 A 
HETATM   39  C   UNL     1     -42.191  57.927 -59.301  1.00  0.00     0.016 A 
ENDBRANCH  24  35
ENDBRANCH  23  24
ENDBRANCH   3  23
TORSDOF 6
ENDMDL
MODEL 10
REMARK VINA RESULT:      -8.4     16.400     19.076
REMARK  6 active torsions:
REMARK  status: ('A' for Active; 'I' for Inactive)
REMARK    1  A    between atoms: C_9  and  C_10 
REMARK       I    between atoms: C_10  and  N_11 
REMARK    2  A    between atoms: N_11  and  N_12 
REMARK       I    between atoms: N_12  and  C_13 
REMARK       I    between atoms: C_13  and  N_14 
REMARK    3  A    between atoms: N_14  and  C_15 
REMARK    4  A    between atoms: C_15  and  C_16 
REMARK    5  A    between atoms: C_16  and  C_17 
REMARK    6  A    between atoms: C_16  and  C_27 
ROOT
HETATM    1  N   UNL     1     -38.821  39.999 -51.195  1.00  0.00    -0.249 N 
HETATM    2  C   UNL     1     -38.214  40.508 -52.319  1.00  0.00     0.334 C 
HETATM    3  N   UNL     1     -36.933  40.934 -52.063  1.00  0.00    -0.341 N 
HETATM    4  O   UNL     1     -38.770  40.590 -53.408  1.00  0.00    -0.246 OA
HETATM    5  H   UNL     1     -38.269  39.647 -50.418  1.00  0.00     0.192 HD
HETATM    6  H   UNL     1     -36.787  41.245 -51.111  1.00  0.00     0.164 HD
ENDROOT
BRANCH   1   7
HETATM    7  N   UNL     1     -40.128  39.504 -51.312  1.00  0.00    -0.261 N 
HETATM    8  C   UNL     1     -40.337  38.170 -51.017  1.00  0.00     0.291 C 
HETATM    9  O   UNL     1     -39.453  37.331 -50.920  1.00  0.00    -0.264 OA
HETATM   10  H   UNL     1     -40.880  40.166 -51.094  1.00  0.00     0.190 HD
BRANCH   8  11
HETATM   11  C   UNL     1     -41.811  37.833 -50.769  1.00  0.00     0.157 A 
HETATM   12  C   UNL     1     -42.364  37.729 -49.399  1.00  0.00     0.016 A 
HETATM   13  C   UNL     1     -41.603  37.846 -48.231  1.00  0.00     0.015 A 
HETATM   14  C   UNL     1     -43.736  37.492 -49.290  1.00  0.00     0.046 A 
HETATM   15  C   UNL     1     -42.218  37.757 -46.976  1.00  0.00     0.001 A 
HETATM   16  C   UNL     1     -43.590  37.542 -46.878  1.00  0.00     0.001 A 
HETATM   17  C   UNL     1     -44.352  37.404 -48.035  1.00  0.00     0.018 A 
HETATM   18  C   UNL     1     -44.540  37.317 -50.512  1.00  0.00     0.272 A 
HETATM   19  O   UNL     1     -45.747  37.108 -50.462  1.00  0.00    -0.266 OA
HETATM   20  N   UNL     1     -43.855  37.388 -51.701  1.00  0.00    -0.242 N 
HETATM   21  N   UNL     1     -42.529  37.658 -51.845  1.00  0.00    -0.166 NA
HETATM   22  H   UNL     1     -44.396  37.272 -52.553  1.00  0.00     0.192 HD
ENDBRANCH   8  11
ENDBRANCH   1   7
BRANCH   3  23
HETATM   23  C   UNL     1     -36.201  41.663 -53.094  1.00  0.00     0.139 C 
BRANCH  23  24
HETATM   24  C   UNL     1     -35.542  40.746 -54.150  1.00  0.00     0.079 C 
BRANCH  24  25
HETATM   25  C   UNL     1     -35.599  41.354 -55.534  1.00  0.00    -0.020 A 
HETATM   26  C   UNL     1     -36.509  40.996 -56.587  1.00  0.00    -0.001 A 
HETATM   27  C   UNL     1     -36.220  41.804 -57.687  1.00  0.00     0.042 A 
HETATM   28  C   UNL     1     -37.556  40.057 -56.707  1.00  0.00     0.014 A 
HETATM   29  C   UNL     1     -36.923  41.724 -58.896  1.00  0.00     0.030 A 
HETATM   30  N   UNL     1     -35.173  42.618 -57.329  1.00  0.00    -0.365 N 
HETATM   31  C   UNL     1     -37.956  40.787 -58.985  1.00  0.00     0.002 A 
HETATM   32  C   UNL     1     -38.270  39.964 -57.907  1.00  0.00     0.001 A 
HETATM   33  H   UNL     1     -34.750  43.306 -57.936  1.00  0.00     0.165 HD
HETATM   34  C   UNL     1     -34.795  42.364 -56.040  1.00  0.00     0.097 A 
ENDBRANCH  24  25
BRANCH  24  35
HETATM   35  C   UNL     1     -34.113  40.382 -53.771  1.00  0.00    -0.007 A 
HETATM   36  S   UNL     1     -33.170  39.414 -54.832  1.00  0.00    -0.106 SA
HETATM   37  C   UNL     1     -31.825  39.449 -53.780  1.00  0.00     0.050 A 
HETATM   38  C   UNL     1     -32.079  40.175 -52.639  1.00  0.00     0.008 A 
HETATM   39  C   UNL     1     -33.396  40.715 -52.634  1.00  0.00     0.016 A 
ENDBRANCH  24  35
ENDBRANCH  23  24
ENDBRANCH   3  23
TORSDOF 6
ENDMDL
