MODEL 1
REMARK VINA RESULT:      -8.9      0.000      0.000
REMARK  6 active torsions:
REMARK  status: ('A' for Active; 'I' for Inactive)
REMARK    1  A    between atoms: C_2  and  O_3 
REMARK    2  A    between atoms: C_2  and  C_4 
REMARK    3  A    between atoms: C_6  and  N_7 
REMARK       I    between atoms: N_7  and  C_8 
REMARK    4  A    between atoms: C_8  and  C_9 
REMARK    5  A    between atoms: C_12  and  C_13 
REMARK    6  A    between atoms: C_18  and  C_19 
ROOT
HETATM    1  C   UNL     1     -42.646  56.162 -55.161  1.00  0.00     0.096 A 
HETATM    2  C   UNL     1     -42.798  56.759 -56.399  1.00  0.00     0.138 A 
HETATM    3  N   UNL     1     -43.971  57.478 -56.330  1.00  0.00    -0.240 N 
HETATM    4  C   UNL     1     -44.549  58.220 -57.437  1.00  0.00     0.221 C 
HETATM    5  C   UNL     1     -43.517  58.391 -58.569  1.00  0.00     0.068 C 
HETATM    6  C   UNL     1     -42.735  57.093 -58.813  1.00  0.00     0.143 C 
HETATM    7  N   UNL     1     -42.069  56.711 -57.551  1.00  0.00    -0.363 N 
HETATM    8  N   UNL     1     -44.660  57.260 -55.199  1.00  0.00    -0.181 NA
HETATM    9  C   UNL     1     -43.844  56.485 -54.481  1.00  0.00     0.160 A 
HETATM   10  H   UNL     1     -41.451  55.908 -57.689  1.00  0.00     0.162 HD
ENDROOT
BRANCH   1  11
HETATM   11  C   UNL     1     -41.560  55.336 -54.659  1.00  0.00     0.261 C 
HETATM   12  N   UNL     1     -41.979  54.361 -53.773  1.00  0.00    -0.323 N 
HETATM   13  H   UNL     1     -42.985  54.254 -53.688  1.00  0.00     0.169 HD
HETATM   14  O   UNL     1     -40.413  55.510 -55.053  1.00  0.00    -0.267 OA
BRANCH  12  15
HETATM   15  C   UNL     1     -41.182  53.433 -53.075  1.00  0.00     0.035 A 
HETATM   16  C   UNL     1     -40.650  52.278 -53.654  1.00  0.00     0.039 A 
HETATM   17  C   UNL     1     -39.849  51.393 -52.908  1.00  0.00    -0.028 A 
HETATM   18  C   UNL     1     -39.604  51.678 -51.559  1.00  0.00     0.010 A 
HETATM   19  C   UNL     1     -40.126  52.831 -50.975  1.00  0.00     0.003 A 
HETATM   20  C   UNL     1     -40.905  53.708 -51.731  1.00  0.00     0.029 A 
BRANCH  17  21
HETATM   21  C   UNL     1     -39.302  50.146 -53.569  1.00  0.00     0.147 C 
HETATM   22  C   UNL     1     -40.019  49.846 -54.879  1.00  0.00     0.044 C 
BRANCH  21  23
HETATM   23  O   UNL     1     -39.436  49.026 -52.695  1.00  0.00    -0.391 OA
HETATM   24  H   UNL     1     -39.049  49.286 -51.842  1.00  0.00     0.210 HD
ENDBRANCH  21  23
ENDBRANCH  17  21
ENDBRANCH  12  15
ENDBRANCH   1  11
BRANCH   4  25
HETATM   25  C   UNL     1     -45.047  59.579 -56.998  1.00  0.00     0.409 C 
HETATM   26  F   UNL     1     -46.316  59.573 -56.545  1.00  0.00    -0.169 F 
HETATM   27  F   UNL     1     -44.259  60.130 -56.045  1.00  0.00    -0.169 F 
HETATM   28  F   UNL     1     -45.027  60.437 -58.055  1.00  0.00    -0.169 F 
ENDBRANCH   4  25
BRANCH   6  29
HETATM   29  C   UNL     1     -43.602  56.030 -59.421  1.00  0.00     0.075 A 
HETATM   30  O   UNL     1     -44.041  56.264 -60.694  1.00  0.00    -0.325 OA
HETATM   31  C   UNL     1     -44.815  55.207 -61.049  1.00  0.00     0.142 A 
HETATM   32  C   UNL     1     -44.879  54.292 -60.025  1.00  0.00     0.027 A 
HETATM   33  C   UNL     1     -44.094  54.820 -58.974  1.00  0.00     0.037 A 
ENDBRANCH   6  29
TORSDOF 6
ENDMDL
MODEL 2
REMARK VINA RESULT:      -8.5      1.731      2.105
REMARK  6 active torsions:
REMARK  status: ('A' for Active; 'I' for Inactive)
REMARK    1  A    between atoms: C_2  and  O_3 
REMARK    2  A    between atoms: C_2  and  C_4 
REMARK    3  A    between atoms: C_6  and  N_7 
REMARK       I    between atoms: N_7  and  C_8 
REMARK    4  A    between atoms: C_8  and  C_9 
REMARK    5  A    between atoms: C_12  and  C_13 
REMARK    6  A    between atoms: C_18  and  C_19 
ROOT
HETATM    1  C   UNL     1     -42.818  56.686 -55.820  1.00  0.00     0.096 A 
HETATM    2  C   UNL     1     -42.628  56.804 -57.185  1.00  0.00     0.138 A 
HETATM    3  N   UNL     1     -42.838  58.132 -57.482  1.00  0.00    -0.240 N 
HETATM    4  C   UNL     1     -42.798  58.693 -58.822  1.00  0.00     0.221 C 
HETATM    5  C   UNL     1     -42.149  57.699 -59.804  1.00  0.00     0.068 C 
HETATM    6  C   UNL     1     -42.650  56.268 -59.563  1.00  0.00     0.143 C 
HETATM    7  N   UNL     1     -42.343  55.900 -58.166  1.00  0.00    -0.363 N 
HETATM    8  N   UNL     1     -43.300  58.841 -56.441  1.00  0.00    -0.181 NA
HETATM    9  C   UNL     1     -43.262  57.971 -55.429  1.00  0.00     0.160 A 
HETATM   10  H   UNL     1     -42.564  54.918 -57.987  1.00  0.00     0.162 HD
ENDROOT
BRANCH   1  11
HETATM   11  C   UNL     1     -42.672  55.521 -54.963  1.00  0.00     0.261 C 
HETATM   12  N   UNL     1     -41.507  55.532 -54.221  1.00  0.00    -0.323 N 
HETATM   13  H   UNL     1     -40.973  56.395 -54.260  1.00  0.00     0.169 HD
HETATM   14  O   UNL     1     -43.551  54.669 -54.918  1.00  0.00    -0.267 OA
BRANCH  12  15
HETATM   15  C   UNL     1     -41.041  54.540 -53.335  1.00  0.00     0.035 A 
HETATM   16  C   UNL     1     -40.528  53.309 -53.750  1.00  0.00     0.039 A 
HETATM   17  C   UNL     1     -40.066  52.361 -52.818  1.00  0.00    -0.028 A 
HETATM   18  C   UNL     1     -40.144  52.664 -51.453  1.00  0.00     0.010 A 
HETATM   19  C   UNL     1     -40.649  53.893 -51.029  1.00  0.00     0.003 A 
HETATM   20  C   UNL     1     -41.088  54.829 -51.966  1.00  0.00     0.029 A 
BRANCH  17  21
HETATM   21  C   UNL     1     -39.529  51.033 -53.308  1.00  0.00     0.147 C 
HETATM   22  C   UNL     1     -40.369  50.478 -54.451  1.00  0.00     0.044 C 
BRANCH  21  23
HETATM   23  O   UNL     1     -39.506  50.087 -52.240  1.00  0.00    -0.391 OA
HETATM   24  H   UNL     1     -39.838  50.545 -51.450  1.00  0.00     0.210 HD
ENDBRANCH  21  23
ENDBRANCH  17  21
ENDBRANCH  12  15
ENDBRANCH   1  11
BRANCH   4  25
HETATM   25  C   UNL     1     -42.041  60.003 -58.855  1.00  0.00     0.409 C 
HETATM   26  F   UNL     1     -41.046  60.079 -57.949  1.00  0.00    -0.169 F 
HETATM   27  F   UNL     1     -41.522  60.263 -60.078  1.00  0.00    -0.169 F 
HETATM   28  F   UNL     1     -42.890  61.029 -58.572  1.00  0.00    -0.169 F 
ENDBRANCH   4  25
BRANCH   6  29
HETATM   29  C   UNL     1     -44.088  56.112 -59.960  1.00  0.00     0.075 A 
HETATM   30  O   UNL     1     -44.323  55.449 -61.132  1.00  0.00    -0.325 OA
HETATM   31  C   UNL     1     -45.668  55.431 -61.318  1.00  0.00     0.142 A 
HETATM   32  C   UNL     1     -46.306  56.070 -60.281  1.00  0.00     0.027 A 
HETATM   33  C   UNL     1     -45.287  56.508 -59.401  1.00  0.00     0.037 A 
ENDBRANCH   6  29
TORSDOF 6
ENDMDL
MODEL 3
REMARK VINA RESULT:      -8.5      1.995      2.793
REMARK  6 active torsions:
REMARK  status: ('A' for Active; 'I' for Inactive)
REMARK    1  A    between atoms: C_2  and  O_3 
REMARK    2  A    between atoms: C_2  and  C_4 
REMARK    3  A    between atoms: C_6  and  N_7 
REMARK       I    between atoms: N_7  and  C_8 
REMARK    4  A    between atoms: C_8  and  C_9 
REMARK    5  A    between atoms: C_12  and  C_13 
REMARK    6  A    between atoms: C_18  and  C_19 
ROOT
HETATM    1  C   UNL     1     -42.856  56.771 -55.920  1.00  0.00     0.096 A 
HETATM    2  C   UNL     1     -42.648  56.899 -57.282  1.00  0.00     0.138 A 
HETATM    3  N   UNL     1     -42.855  58.229 -57.571  1.00  0.00    -0.240 N 
HETATM    4  C   UNL     1     -42.798  58.800 -58.906  1.00  0.00     0.221 C 
HETATM    5  C   UNL     1     -42.134  57.814 -59.887  1.00  0.00     0.068 C 
HETATM    6  C   UNL     1     -42.636  56.381 -59.663  1.00  0.00     0.143 C 
HETATM    7  N   UNL     1     -42.347  56.003 -58.265  1.00  0.00    -0.363 N 
HETATM    8  N   UNL     1     -43.334  58.930 -56.532  1.00  0.00    -0.181 NA
HETATM    9  C   UNL     1     -43.308  58.052 -55.526  1.00  0.00     0.160 A 
HETATM   10  H   UNL     1     -42.569  55.019 -58.096  1.00  0.00     0.162 HD
ENDROOT
BRANCH   1  11
HETATM   11  C   UNL     1     -42.719  55.601 -55.069  1.00  0.00     0.261 C 
HETATM   12  N   UNL     1     -41.413  55.345 -54.696  1.00  0.00    -0.323 N 
HETATM   13  H   UNL     1     -40.742  56.066 -54.942  1.00  0.00     0.169 HD
HETATM   14  O   UNL     1     -43.709  54.969 -54.718  1.00  0.00    -0.267 OA
BRANCH  12  15
HETATM   15  C   UNL     1     -40.934  54.271 -53.921  1.00  0.00     0.035 A 
HETATM   16  C   UNL     1     -41.010  54.227 -52.527  1.00  0.00     0.039 A 
HETATM   17  C   UNL     1     -40.525  53.120 -51.806  1.00  0.00    -0.028 A 
HETATM   18  C   UNL     1     -39.943  52.059 -52.510  1.00  0.00     0.010 A 
HETATM   19  C   UNL     1     -39.868  52.091 -53.902  1.00  0.00     0.003 A 
HETATM   20  C   UNL     1     -40.369  53.189 -54.604  1.00  0.00     0.029 A 
BRANCH  17  21
HETATM   21  C   UNL     1     -40.614  53.117 -50.294  1.00  0.00     0.147 C 
HETATM   22  C   UNL     1     -39.641  54.112 -49.675  1.00  0.00     0.044 C 
BRANCH  21  23
HETATM   23  O   UNL     1     -40.337  51.812 -49.787  1.00  0.00    -0.391 OA
HETATM   24  H   UNL     1     -40.794  51.181 -50.368  1.00  0.00     0.210 HD
ENDBRANCH  21  23
ENDBRANCH  17  21
ENDBRANCH  12  15
ENDBRANCH   1  11
BRANCH   4  25
HETATM   25  C   UNL     1     -42.043  60.112 -58.920  1.00  0.00     0.409 C 
HETATM   26  F   UNL     1     -42.818  61.187 -58.676  1.00  0.00    -0.169 F 
HETATM   27  F   UNL     1     -41.016  60.120 -58.039  1.00  0.00    -0.169 F 
HETATM   28  F   UNL     1     -41.496  60.311 -60.150  1.00  0.00    -0.169 F 
ENDBRANCH   4  25
BRANCH   6  29
HETATM   29  C   UNL     1     -44.068  56.225 -60.081  1.00  0.00     0.075 A 
HETATM   30  O   UNL     1     -44.299  55.406 -61.150  1.00  0.00    -0.325 OA
HETATM   31  C   UNL     1     -45.638  55.414 -61.377  1.00  0.00     0.142 A 
HETATM   32  C   UNL     1     -46.276  56.224 -60.467  1.00  0.00     0.027 A 
HETATM   33  C   UNL     1     -45.264  56.746 -59.626  1.00  0.00     0.037 A 
ENDBRANCH   6  29
TORSDOF 6
ENDMDL
MODEL 4
REMARK VINA RESULT:      -8.2      1.377      2.257
REMARK  6 active torsions:
REMARK  status: ('A' for Active; 'I' for Inactive)
REMARK    1  A    between atoms: C_2  and  O_3 
REMARK    2  A    between atoms: C_2  and  C_4 
REMARK    3  A    between atoms: C_6  and  N_7 
REMARK       I    between atoms: N_7  and  C_8 
REMARK    4  A    between atoms: C_8  and  C_9 
REMARK    5  A    between atoms: C_12  and  C_13 
REMARK    6  A    between atoms: C_18  and  C_19 
ROOT
HETATM    1  C   UNL     1     -42.999  57.219 -55.472  1.00  0.00     0.096 A 
HETATM    2  C   UNL     1     -43.003  57.501 -56.826  1.00  0.00     0.138 A 
HETATM    3  N   UNL     1     -44.136  58.252 -57.051  1.00  0.00    -0.240 N 
HETATM    4  C   UNL     1     -44.568  58.719 -58.357  1.00  0.00     0.221 C 
HETATM    5  C   UNL     1     -43.430  58.578 -59.385  1.00  0.00     0.068 C 
HETATM    6  C   UNL     1     -42.701  57.235 -59.231  1.00  0.00     0.143 C 
HETATM    7  N   UNL     1     -42.176  57.151 -57.853  1.00  0.00    -0.363 N 
HETATM    8  N   UNL     1     -44.937  58.338 -55.978  1.00  0.00    -0.181 NA
HETATM    9  C   UNL     1     -44.234  57.735 -55.016  1.00  0.00     0.160 A 
HETATM   10  H   UNL     1     -41.593  56.320 -57.731  1.00  0.00     0.162 HD
ENDROOT
BRANCH   1  11
HETATM   11  C   UNL     1     -42.011  56.506 -54.679  1.00  0.00     0.261 C 
HETATM   12  N   UNL     1     -42.242  55.145 -54.613  1.00  0.00    -0.323 N 
HETATM   13  H   UNL     1     -42.975  54.798 -55.223  1.00  0.00     0.169 HD
HETATM   14  O   UNL     1     -41.067  57.105 -54.179  1.00  0.00    -0.267 OA
BRANCH  12  15
HETATM   15  C   UNL     1     -41.507  54.182 -53.894  1.00  0.00     0.035 A 
HETATM   16  C   UNL     1     -41.467  54.119 -52.499  1.00  0.00     0.039 A 
HETATM   17  C   UNL     1     -40.725  53.124 -51.835  1.00  0.00    -0.028 A 
HETATM   18  C   UNL     1     -40.004  52.199 -52.600  1.00  0.00     0.010 A 
HETATM   19  C   UNL     1     -40.041  52.250 -53.993  1.00  0.00     0.003 A 
HETATM   20  C   UNL     1     -40.796  53.232 -54.636  1.00  0.00     0.029 A 
BRANCH  17  21
HETATM   21  C   UNL     1     -40.697  53.099 -50.322  1.00  0.00     0.147 C 
HETATM   22  C   UNL     1     -39.706  54.111 -49.763  1.00  0.00     0.044 C 
BRANCH  21  23
HETATM   23  O   UNL     1     -40.349  51.796 -49.857  1.00  0.00    -0.391 OA
HETATM   24  H   UNL     1     -40.589  51.758 -48.916  1.00  0.00     0.210 HD
ENDBRANCH  21  23
ENDBRANCH  17  21
ENDBRANCH  12  15
ENDBRANCH   1  11
BRANCH   4  25
HETATM   25  C   UNL     1     -45.029  60.160 -58.309  1.00  0.00     0.409 C 
HETATM   26  F   UNL     1     -44.374  60.910 -57.400  1.00  0.00    -0.169 F 
HETATM   27  F   UNL     1     -44.928  60.770 -59.513  1.00  0.00    -0.169 F 
HETATM   28  F   UNL     1     -46.344  60.208 -57.963  1.00  0.00    -0.169 F 
ENDBRANCH   4  25
BRANCH   6  29
HETATM   29  C   UNL     1     -43.566  56.084 -59.652  1.00  0.00     0.075 A 
HETATM   30  O   UNL     1     -44.124  56.172 -60.897  1.00  0.00    -0.325 OA
HETATM   31  C   UNL     1     -44.875  55.055 -61.077  1.00  0.00     0.142 A 
HETATM   32  C   UNL     1     -44.807  54.246 -59.968  1.00  0.00     0.027 A 
HETATM   33  C   UNL     1     -43.960  54.907 -59.047  1.00  0.00     0.037 A 
ENDBRANCH   6  29
TORSDOF 6
ENDMDL
MODEL 5
REMARK VINA RESULT:      -8.0      2.672      3.745
REMARK  6 active torsions:
REMARK  status: ('A' for Active; 'I' for Inactive)
REMARK    1  A    between atoms: C_2  and  O_3 
REMARK    2  A    between atoms: C_2  and  C_4 
REMARK    3  A    between atoms: C_6  and  N_7 
REMARK       I    between atoms: N_7  and  C_8 
REMARK    4  A    between atoms: C_8  and  C_9 
REMARK    5  A    between atoms: C_12  and  C_13 
REMARK    6  A    between atoms: C_18  and  C_19 
ROOT
HETATM    1  C   UNL     1     -43.411  55.986 -57.673  1.00  0.00     0.096 A 
HETATM    2  C   UNL     1     -44.109  57.078 -58.155  1.00  0.00     0.138 A 
HETATM    3  N   UNL     1     -44.733  56.648 -59.306  1.00  0.00    -0.240 N 
HETATM    4  C   UNL     1     -45.532  57.495 -60.175  1.00  0.00     0.221 C 
HETATM    5  C   UNL     1     -45.882  58.818 -59.467  1.00  0.00     0.068 C 
HETATM    6  C   UNL     1     -44.671  59.384 -58.711  1.00  0.00     0.143 C 
HETATM    7  N   UNL     1     -44.221  58.371 -57.735  1.00  0.00    -0.363 N 
HETATM    8  N   UNL     1     -44.362  55.415 -59.681  1.00  0.00    -0.181 NA
HETATM    9  C   UNL     1     -43.583  55.004 -58.677  1.00  0.00     0.160 A 
HETATM   10  H   UNL     1     -43.480  58.741 -57.135  1.00  0.00     0.162 HD
ENDROOT
BRANCH   1  11
HETATM   11  C   UNL     1     -42.621  55.855 -56.460  1.00  0.00     0.261 C 
HETATM   12  N   UNL     1     -42.693  54.597 -55.893  1.00  0.00    -0.323 N 
HETATM   13  H   UNL     1     -43.167  53.894 -56.452  1.00  0.00     0.169 HD
HETATM   14  O   UNL     1     -41.946  56.794 -56.054  1.00  0.00    -0.267 OA
BRANCH  12  15
HETATM   15  C   UNL     1     -42.090  54.155 -54.699  1.00  0.00     0.035 A 
HETATM   16  C   UNL     1     -41.155  53.119 -54.640  1.00  0.00     0.039 A 
HETATM   17  C   UNL     1     -40.576  52.729 -53.418  1.00  0.00    -0.028 A 
HETATM   18  C   UNL     1     -40.967  53.389 -52.246  1.00  0.00     0.010 A 
HETATM   19  C   UNL     1     -41.896  54.427 -52.295  1.00  0.00     0.003 A 
HETATM   20  C   UNL     1     -42.448  54.813 -53.517  1.00  0.00     0.029 A 
BRANCH  17  21
HETATM   21  C   UNL     1     -39.576  51.593 -53.395  1.00  0.00     0.147 C 
HETATM   22  C   UNL     1     -39.987  50.467 -54.334  1.00  0.00     0.044 C 
BRANCH  21  23
HETATM   23  O   UNL     1     -39.448  51.076 -52.071  1.00  0.00    -0.391 OA
HETATM   24  H   UNL     1     -39.472  50.107 -52.144  1.00  0.00     0.210 HD
ENDBRANCH  21  23
ENDBRANCH  17  21
ENDBRANCH  12  15
ENDBRANCH   1  11
BRANCH   4  25
HETATM   25  C   UNL     1     -46.806  56.803 -60.610  1.00  0.00     0.409 C 
HETATM   26  F   UNL     1     -46.634  55.937 -61.628  1.00  0.00    -0.169 F 
HETATM   27  F   UNL     1     -47.405  56.146 -59.590  1.00  0.00    -0.169 F 
HETATM   28  F   UNL     1     -47.702  57.730 -61.049  1.00  0.00    -0.169 F 
ENDBRANCH   4  25
BRANCH   6  29
HETATM   29  C   UNL     1     -43.611  59.874 -59.652  1.00  0.00     0.075 A 
HETATM   30  O   UNL     1     -43.983  60.864 -60.518  1.00  0.00    -0.325 OA
HETATM   31  C   UNL     1     -42.900  61.150 -61.287  1.00  0.00     0.142 A 
HETATM   32  C   UNL     1     -41.833  60.361 -60.927  1.00  0.00     0.027 A 
HETATM   33  C   UNL     1     -42.289  59.538 -59.869  1.00  0.00     0.037 A 
ENDBRANCH   6  29
TORSDOF 6
ENDMDL
MODEL 6
REMARK VINA RESULT:      -7.9      3.163      8.039
REMARK  6 active torsions:
REMARK  status: ('A' for Active; 'I' for Inactive)
REMARK    1  A    between atoms: C_2  and  O_3 
REMARK    2  A    between atoms: C_2  and  C_4 
REMARK    3  A    between atoms: C_6  and  N_7 
REMARK       I    between atoms: N_7  and  C_8 
REMARK    4  A    between atoms: C_8  and  C_9 
REMARK    5  A    between atoms: C_12  and  C_13 
REMARK    6  A    between atoms: C_18  and  C_19 
ROOT
HETATM    1  C   UNL     1     -43.110  57.364 -55.070  1.00  0.00     0.096 A 
HETATM    2  C   UNL     1     -42.989  56.536 -53.968  1.00  0.00     0.138 A 
HETATM    3  N   UNL     1     -41.973  57.068 -53.207  1.00  0.00    -0.240 N 
HETATM    4  C   UNL     1     -41.468  56.478 -51.979  1.00  0.00     0.221 C 
HETATM    5  C   UNL     1     -42.438  55.399 -51.460  1.00  0.00     0.068 C 
HETATM    6  C   UNL     1     -42.955  54.516 -52.605  1.00  0.00     0.143 C 
HETATM    7  N   UNL     1     -43.621  55.387 -53.595  1.00  0.00    -0.363 N 
HETATM    8  N   UNL     1     -41.330  58.079 -53.811  1.00  0.00    -0.181 NA
HETATM    9  C   UNL     1     -42.037  58.275 -54.927  1.00  0.00     0.160 A 
HETATM   10  H   UNL     1     -44.074  54.834 -54.327  1.00  0.00     0.162 HD
ENDROOT
BRANCH   1  11
HETATM   11  C   UNL     1     -44.058  57.308 -56.170  1.00  0.00     0.261 C 
HETATM   12  N   UNL     1     -43.638  56.506 -57.214  1.00  0.00    -0.323 N 
HETATM   13  H   UNL     1     -42.803  55.958 -57.032  1.00  0.00     0.169 HD
HETATM   14  O   UNL     1     -45.127  57.904 -56.100  1.00  0.00    -0.267 OA
BRANCH  12  15
HETATM   15  C   UNL     1     -44.294  56.275 -58.439  1.00  0.00     0.035 A 
HETATM   16  C   UNL     1     -45.312  57.089 -58.939  1.00  0.00     0.039 A 
HETATM   17  C   UNL     1     -45.922  56.816 -60.178  1.00  0.00    -0.028 A 
HETATM   18  C   UNL     1     -45.502  55.693 -60.902  1.00  0.00     0.010 A 
HETATM   19  C   UNL     1     -44.483  54.877 -60.414  1.00  0.00     0.003 A 
HETATM   20  C   UNL     1     -43.876  55.172 -59.192  1.00  0.00     0.029 A 
BRANCH  17  21
HETATM   21  C   UNL     1     -47.031  57.716 -60.679  1.00  0.00     0.147 C 
HETATM   22  C   UNL     1     -47.969  56.976 -61.624  1.00  0.00     0.044 C 
BRANCH  21  23
HETATM   23  O   UNL     1     -46.482  58.847 -61.354  1.00  0.00    -0.391 OA
HETATM   24  H   UNL     1     -46.282  58.563 -62.261  1.00  0.00     0.210 HD
ENDBRANCH  21  23
ENDBRANCH  17  21
ENDBRANCH  12  15
ENDBRANCH   1  11
BRANCH   4  25
HETATM   25  C   UNL     1     -41.253  57.522 -50.905  1.00  0.00     0.409 C 
HETATM   26  F   UNL     1     -41.229  57.019 -49.655  1.00  0.00    -0.169 F 
HETATM   27  F   UNL     1     -40.117  58.231 -51.099  1.00  0.00    -0.169 F 
HETATM   28  F   UNL     1     -42.275  58.421 -50.931  1.00  0.00    -0.169 F 
ENDBRANCH   4  25
BRANCH   6  29
HETATM   29  C   UNL     1     -41.873  53.637 -53.158  1.00  0.00     0.075 A 
HETATM   30  O   UNL     1     -41.024  53.077 -52.245  1.00  0.00    -0.325 OA
HETATM   31  C   UNL     1     -40.118  52.343 -52.941  1.00  0.00     0.142 A 
HETATM   32  C   UNL     1     -40.372  52.417 -54.290  1.00  0.00     0.027 A 
HETATM   33  C   UNL     1     -41.507  53.250 -54.432  1.00  0.00     0.037 A 
ENDBRANCH   6  29
TORSDOF 6
ENDMDL
MODEL 7
REMARK VINA RESULT:      -7.8      2.276      3.870
REMARK  6 active torsions:
REMARK  status: ('A' for Active; 'I' for Inactive)
REMARK    1  A    between atoms: C_2  and  O_3 
REMARK    2  A    between atoms: C_2  and  C_4 
REMARK    3  A    between atoms: C_6  and  N_7 
REMARK       I    between atoms: N_7  and  C_8 
REMARK    4  A    between atoms: C_8  and  C_9 
REMARK    5  A    between atoms: C_12  and  C_13 
REMARK    6  A    between atoms: C_18  and  C_19 
ROOT
HETATM    1  C   UNL     1     -43.074  55.655 -55.706  1.00  0.00     0.096 A 
HETATM    2  C   UNL     1     -43.990  56.691 -55.768  1.00  0.00     0.138 A 
HETATM    3  N   UNL     1     -43.927  57.173 -57.056  1.00  0.00    -0.240 N 
HETATM    4  C   UNL     1     -44.685  58.311 -57.547  1.00  0.00     0.221 C 
HETATM    5  C   UNL     1     -45.813  58.674 -56.562  1.00  0.00     0.068 C 
HETATM    6  C   UNL     1     -45.322  58.622 -55.109  1.00  0.00     0.143 C 
HETATM    7  N   UNL     1     -44.812  57.262 -54.841  1.00  0.00    -0.363 N 
HETATM    8  N   UNL     1     -42.933  56.632 -57.777  1.00  0.00    -0.181 NA
HETATM    9  C   UNL     1     -42.435  55.694 -56.967  1.00  0.00     0.160 A 
HETATM   10  H   UNL     1     -44.568  57.147 -53.855  1.00  0.00     0.162 HD
ENDROOT
BRANCH   1  11
HETATM   11  C   UNL     1     -42.765  54.759 -54.605  1.00  0.00     0.261 C 
HETATM   12  N   UNL     1     -41.432  54.397 -54.552  1.00  0.00    -0.323 N 
HETATM   13  H   UNL     1     -40.820  54.897 -55.189  1.00  0.00     0.169 HD
HETATM   14  O   UNL     1     -43.637  54.426 -53.811  1.00  0.00    -0.267 OA
BRANCH  12  15
HETATM   15  C   UNL     1     -40.815  53.513 -53.645  1.00  0.00     0.035 A 
HETATM   16  C   UNL     1     -40.339  52.248 -53.999  1.00  0.00     0.039 A 
HETATM   17  C   UNL     1     -39.719  51.412 -53.052  1.00  0.00    -0.028 A 
HETATM   18  C   UNL     1     -39.601  51.862 -51.731  1.00  0.00     0.010 A 
HETATM   19  C   UNL     1     -40.068  53.125 -51.370  1.00  0.00     0.003 A 
HETATM   20  C   UNL     1     -40.665  53.948 -52.324  1.00  0.00     0.029 A 
BRANCH  17  21
HETATM   21  C   UNL     1     -39.228  50.043 -53.473  1.00  0.00     0.147 C 
HETATM   22  C   UNL     1     -39.801  49.634 -54.823  1.00  0.00     0.044 C 
BRANCH  21  23
HETATM   23  O   UNL     1     -39.590  49.068 -52.496  1.00  0.00    -0.391 OA
HETATM   24  H   UNL     1     -40.154  48.415 -52.944  1.00  0.00     0.210 HD
ENDBRANCH  21  23
ENDBRANCH  17  21
ENDBRANCH  12  15
ENDBRANCH   1  11
BRANCH   4  25
HETATM   25  C   UNL     1     -45.277  58.039 -58.913  1.00  0.00     0.409 C 
HETATM   26  F   UNL     1     -45.631  56.752 -59.106  1.00  0.00    -0.169 F 
HETATM   27  F   UNL     1     -46.353  58.818 -59.170  1.00  0.00    -0.169 F 
HETATM   28  F   UNL     1     -44.357  58.325 -59.875  1.00  0.00    -0.169 F 
ENDBRANCH   4  25
BRANCH   6  29
HETATM   29  C   UNL     1     -44.359  59.733 -54.809  1.00  0.00     0.075 A 
HETATM   30  O   UNL     1     -43.348  59.438 -53.939  1.00  0.00    -0.325 OA
HETATM   31  C   UNL     1     -42.608  60.566 -53.788  1.00  0.00     0.142 A 
HETATM   32  C   UNL     1     -43.125  61.586 -54.553  1.00  0.00     0.027 A 
HETATM   33  C   UNL     1     -44.255  61.049 -55.216  1.00  0.00     0.037 A 
ENDBRANCH   6  29
TORSDOF 6
ENDMDL
MODEL 8
REMARK VINA RESULT:      -7.8      5.954      8.589
REMARK  6 active torsions:
REMARK  status: ('A' for Active; 'I' for Inactive)
REMARK    1  A    between atoms: C_2  and  O_3 
REMARK    2  A    between atoms: C_2  and  C_4 
REMARK    3  A    between atoms: C_6  and  N_7 
REMARK       I    between atoms: N_7  and  C_8 
REMARK    4  A    between atoms: C_8  and  C_9 
REMARK    5  A    between atoms: C_12  and  C_13 
REMARK    6  A    between atoms: C_18  and  C_19 
ROOT
HETATM    1  C   UNL     1     -43.731  57.475 -51.462  1.00  0.00     0.096 A 
HETATM    2  C   UNL     1     -43.742  56.683 -52.596  1.00  0.00     0.138 A 
HETATM    3  N   UNL     1     -42.537  56.015 -52.602  1.00  0.00    -0.240 N 
HETATM    4  C   UNL     1     -42.099  55.114 -53.653  1.00  0.00     0.221 C 
HETATM    5  C   UNL     1     -43.283  54.730 -54.562  1.00  0.00     0.068 C 
HETATM    6  C   UNL     1     -44.159  55.949 -54.883  1.00  0.00     0.143 C 
HETATM    7  N   UNL     1     -44.641  56.519 -53.608  1.00  0.00    -0.363 N 
HETATM    8  N   UNL     1     -41.693  56.436 -51.647  1.00  0.00    -0.181 NA
HETATM    9  C   UNL     1     -42.428  57.300 -50.941  1.00  0.00     0.160 A 
HETATM   10  H   UNL     1     -45.313  57.272 -53.773  1.00  0.00     0.162 HD
ENDROOT
BRANCH   1  11
HETATM   11  C   UNL     1     -44.767  58.345 -50.932  1.00  0.00     0.261 C 
HETATM   12  N   UNL     1     -44.298  59.593 -50.566  1.00  0.00    -0.323 N 
HETATM   13  H   UNL     1     -43.339  59.793 -50.832  1.00  0.00     0.169 HD
HETATM   14  O   UNL     1     -45.931  57.966 -50.879  1.00  0.00    -0.267 OA
BRANCH  12  15
HETATM   15  C   UNL     1     -45.025  60.648 -49.980  1.00  0.00     0.035 A 
HETATM   16  C   UNL     1     -45.348  60.705 -48.622  1.00  0.00     0.039 A 
HETATM   17  C   UNL     1     -46.067  61.792 -48.090  1.00  0.00    -0.028 A 
HETATM   18  C   UNL     1     -46.474  62.818 -48.952  1.00  0.00     0.010 A 
HETATM   19  C   UNL     1     -46.152  62.772 -50.307  1.00  0.00     0.003 A 
HETATM   20  C   UNL     1     -45.424  61.696 -50.817  1.00  0.00     0.029 A 
BRANCH  17  21
HETATM   21  C   UNL     1     -46.408  61.811 -46.615  1.00  0.00     0.147 C 
HETATM   22  C   UNL     1     -45.290  61.208 -45.774  1.00  0.00     0.044 C 
BRANCH  21  23
HETATM   23  O   UNL     1     -47.615  61.086 -46.379  1.00  0.00    -0.391 OA
HETATM   24  H   UNL     1     -48.347  61.659 -46.662  1.00  0.00     0.210 HD
ENDBRANCH  21  23
ENDBRANCH  17  21
ENDBRANCH  12  15
ENDBRANCH   1  11
BRANCH   4  25
HETATM   25  C   UNL     1     -41.470  53.859 -53.087  1.00  0.00     0.409 C 
HETATM   26  F   UNL     1     -40.157  53.987 -52.811  1.00  0.00    -0.169 F 
HETATM   27  F   UNL     1     -42.099  53.432 -51.967  1.00  0.00    -0.169 F 
HETATM   28  F   UNL     1     -41.571  52.849 -53.993  1.00  0.00    -0.169 F 
ENDBRANCH   4  25
BRANCH   6  29
HETATM   29  C   UNL     1     -43.453  56.916 -55.786  1.00  0.00     0.075 A 
HETATM   30  O   UNL     1     -43.121  56.452 -57.027  1.00  0.00    -0.325 OA
HETATM   31  C   UNL     1     -42.481  57.461 -57.673  1.00  0.00     0.142 A 
HETATM   32  C   UNL     1     -42.397  58.571 -56.866  1.00  0.00     0.027 A 
HETATM   33  C   UNL     1     -43.027  58.223 -55.648  1.00  0.00     0.037 A 
ENDBRANCH   6  29
TORSDOF 6
ENDMDL
MODEL 9
REMARK VINA RESULT:      -7.6     16.115     18.616
REMARK  6 active torsions:
REMARK  status: ('A' for Active; 'I' for Inactive)
REMARK    1  A    between atoms: C_2  and  O_3 
REMARK    2  A    between atoms: C_2  and  C_4 
REMARK    3  A    between atoms: C_6  and  N_7 
REMARK       I    between atoms: N_7  and  C_8 
REMARK    4  A    between atoms: C_8  and  C_9 
REMARK    5  A    between atoms: C_12  and  C_13 
REMARK    6  A    between atoms: C_18  and  C_19 
ROOT
HETATM    1  C   UNL     1     -33.697  40.057 -54.891  1.00  0.00     0.096 A 
HETATM    2  C   UNL     1     -34.024  40.597 -53.660  1.00  0.00     0.138 A 
HETATM    3  N   UNL     1     -33.389  39.812 -52.723  1.00  0.00    -0.240 N 
HETATM    4  C   UNL     1     -33.508  39.986 -51.286  1.00  0.00     0.221 C 
HETATM    5  C   UNL     1     -34.133  41.356 -50.958  1.00  0.00     0.068 C 
HETATM    6  C   UNL     1     -35.312  41.669 -51.890  1.00  0.00     0.143 C 
HETATM    7  N   UNL     1     -34.821  41.637 -53.283  1.00  0.00    -0.363 N 
HETATM    8  N   UNL     1     -32.812  38.721 -53.249  1.00  0.00    -0.181 NA
HETATM    9  C   UNL     1     -32.975  38.885 -54.564  1.00  0.00     0.160 A 
HETATM   10  H   UNL     1     -35.546  41.942 -53.937  1.00  0.00     0.162 HD
ENDROOT
BRANCH   1  11
HETATM   11  C   UNL     1     -34.046  40.516 -56.225  1.00  0.00     0.261 C 
HETATM   12  N   UNL     1     -35.368  40.284 -56.554  1.00  0.00    -0.323 N 
HETATM   13  H   UNL     1     -35.954  39.955 -55.794  1.00  0.00     0.169 HD
HETATM   14  O   UNL     1     -33.214  41.083 -56.925  1.00  0.00    -0.267 OA
BRANCH  12  15
HETATM   15  C   UNL     1     -36.012  40.562 -57.776  1.00  0.00     0.035 A 
HETATM   16  C   UNL     1     -36.152  39.631 -58.808  1.00  0.00     0.039 A 
HETATM   17  C   UNL     1     -36.818  39.962 -60.003  1.00  0.00    -0.028 A 
HETATM   18  C   UNL     1     -37.327  41.257 -60.153  1.00  0.00     0.010 A 
HETATM   19  C   UNL     1     -37.197  42.192 -59.127  1.00  0.00     0.003 A 
HETATM   20  C   UNL     1     -36.550  41.843 -57.942  1.00  0.00     0.029 A 
BRANCH  17  21
HETATM   21  C   UNL     1     -36.936  38.928 -61.102  1.00  0.00     0.147 C 
HETATM   22  C   UNL     1     -35.602  38.247 -61.376  1.00  0.00     0.044 C 
BRANCH  21  23
HETATM   23  O   UNL     1     -37.407  39.537 -62.303  1.00  0.00    -0.391 OA
HETATM   24  H   UNL     1     -37.534  38.823 -62.951  1.00  0.00     0.210 HD
ENDBRANCH  21  23
ENDBRANCH  17  21
ENDBRANCH  12  15
ENDBRANCH   1  11
BRANCH   4  25
HETATM   25  C   UNL     1     -32.167  39.866 -50.597  1.00  0.00     0.409 C 
HETATM   26  F   UNL     1     -31.743  38.595 -50.449  1.00  0.00    -0.169 F 
HETATM   27  F   UNL     1     -31.198  40.564 -51.235  1.00  0.00    -0.169 F 
HETATM   28  F   UNL     1     -32.250  40.385 -49.341  1.00  0.00    -0.169 F 
ENDBRANCH   4  25
BRANCH   6  29
HETATM   29  C   UNL     1     -36.489  40.782 -51.611  1.00  0.00     0.075 A 
HETATM   30  O   UNL     1     -37.564  40.925 -52.444  1.00  0.00    -0.325 OA
HETATM   31  C   UNL     1     -38.518  40.058 -52.016  1.00  0.00     0.142 A 
HETATM   32  C   UNL     1     -38.073  39.354 -50.922  1.00  0.00     0.027 A 
HETATM   33  C   UNL     1     -36.762  39.818 -50.661  1.00  0.00     0.037 A 
ENDBRANCH   6  29
TORSDOF 6
ENDMDL
MODEL 10
REMARK VINA RESULT:      -7.6      4.111      8.691
REMARK  6 active torsions:
REMARK  status: ('A' for Active; 'I' for Inactive)
REMARK    1  A    between atoms: C_2  and  O_3 
REMARK    2  A    between atoms: C_2  and  C_4 
REMARK    3  A    between atoms: C_6  and  N_7 
REMARK       I    between atoms: N_7  and  C_8 
REMARK    4  A    between atoms: C_8  and  C_9 
REMARK    5  A    between atoms: C_12  and  C_13 
REMARK    6  A    between atoms: C_18  and  C_19 
ROOT
HETATM    1  C   UNL     1     -42.864  56.305 -56.706  1.00  0.00     0.096 A 
HETATM    2  C   UNL     1     -42.233  56.265 -55.476  1.00  0.00     0.138 A 
HETATM    3  N   UNL     1     -42.207  54.938 -55.107  1.00  0.00    -0.240 N 
HETATM    4  C   UNL     1     -41.683  54.444 -53.846  1.00  0.00     0.221 C 
HETATM    5  C   UNL     1     -40.849  55.533 -53.144  1.00  0.00     0.068 C 
HETATM    6  C   UNL     1     -41.535  56.903 -53.229  1.00  0.00     0.143 C 
HETATM    7  N   UNL     1     -41.733  57.233 -54.655  1.00  0.00    -0.363 N 
HETATM    8  N   UNL     1     -42.911  54.146 -55.930  1.00  0.00    -0.181 NA
HETATM    9  C   UNL     1     -43.286  54.970 -56.912  1.00  0.00     0.160 A 
HETATM   10  H   UNL     1     -42.094  58.184 -54.767  1.00  0.00     0.162 HD
ENDROOT
BRANCH   1  11
HETATM   11  C   UNL     1     -43.115  57.437 -57.581  1.00  0.00     0.261 C 
HETATM   12  N   UNL     1     -41.970  57.935 -58.173  1.00  0.00    -0.323 N 
HETATM   13  H   UNL     1     -41.132  57.378 -58.037  1.00  0.00     0.169 HD
HETATM   14  O   UNL     1     -44.258  57.838 -57.766  1.00  0.00    -0.267 OA
BRANCH  12  15
HETATM   15  C   UNL     1     -41.858  59.046 -59.031  1.00  0.00     0.035 A 
HETATM   16  C   UNL     1     -41.503  60.327 -58.599  1.00  0.00     0.039 A 
HETATM   17  C   UNL     1     -41.394  61.398 -59.506  1.00  0.00    -0.028 A 
HETATM   18  C   UNL     1     -41.666  61.165 -60.860  1.00  0.00     0.010 A 
HETATM   19  C   UNL     1     -42.015  59.889 -61.301  1.00  0.00     0.003 A 
HETATM   20  C   UNL     1     -42.102  58.834 -60.393  1.00  0.00     0.029 A 
BRANCH  17  21
HETATM   21  C   UNL     1     -41.021  62.773 -58.995  1.00  0.00     0.147 C 
HETATM   22  C   UNL     1     -39.596  63.146 -59.382  1.00  0.00     0.044 C 
BRANCH  21  23
HETATM   23  O   UNL     1     -41.149  62.822 -57.574  1.00  0.00    -0.391 OA
HETATM   24  H   UNL     1     -40.272  62.627 -57.205  1.00  0.00     0.210 HD
ENDBRANCH  21  23
ENDBRANCH  17  21
ENDBRANCH  12  15
ENDBRANCH   1  11
BRANCH   4  25
HETATM   25  C   UNL     1     -40.834  53.206 -54.041  1.00  0.00     0.409 C 
HETATM   26  F   UNL     1     -40.012  52.942 -53.006  1.00  0.00    -0.169 F 
HETATM   27  F   UNL     1     -41.583  52.104 -54.281  1.00  0.00    -0.169 F 
HETATM   28  F   UNL     1     -40.032  53.369 -55.129  1.00  0.00    -0.169 F 
ENDBRANCH   4  25
BRANCH   6  29
HETATM   29  C   UNL     1     -42.776  56.954 -52.387  1.00  0.00     0.075 A 
HETATM   30  O   UNL     1     -43.759  57.804 -52.811  1.00  0.00    -0.325 OA
HETATM   31  C   UNL     1     -44.775  57.718 -51.913  1.00  0.00     0.142 A 
HETATM   32  C   UNL     1     -44.464  56.822 -50.919  1.00  0.00     0.027 A 
HETATM   33  C   UNL     1     -43.174  56.325 -51.224  1.00  0.00     0.037 A 
ENDBRANCH   6  29
TORSDOF 6
ENDMDL
