MODEL 1
REMARK VINA RESULT:      -8.1      0.000      0.000
REMARK  2 active torsions:
REMARK  status: ('A' for Active; 'I' for Inactive)
REMARK    1  A    between atoms: C_8  and  N_9 
REMARK    2  A    between atoms: N_9  and  C_10 
ROOT
HETATM    1  N   UNL     1     -42.051  55.651 -52.316  1.00  0.00    -0.340 N 
HETATM    2  H   UNL     1     -42.969  55.643 -51.902  1.00  0.00     0.167 HD
ENDROOT
BRANCH   1   3
HETATM    3  C   UNL     1     -41.667  56.914 -52.796  1.00  0.00     0.143 A 
HETATM    4  C   UNL     1     -42.047  57.386 -54.082  1.00  0.00     0.053 A 
HETATM    5  C   UNL     1     -42.749  56.791 -55.218  1.00  0.00    -0.032 A 
HETATM    6  C   UNL     1     -41.675  58.692 -54.374  1.00  0.00     0.114 A 
HETATM    7  C   UNL     1     -43.229  55.374 -55.286  1.00  0.00     0.050 C 
HETATM    8  C   UNL     1     -42.913  57.705 -56.253  1.00  0.00    -0.012 A 
HETATM    9  S   UNL     1     -42.196  59.211 -55.903  1.00  0.00    -0.074 SA
HETATM   10  C   UNL     1     -43.593  57.510 -57.571  1.00  0.00     0.057 C 
HETATM   11  N   UNL     1     -40.985  59.532 -53.588  1.00  0.00    -0.234 NA
HETATM   12  C   UNL     1     -40.655  58.981 -52.424  1.00  0.00     0.236 A 
HETATM   13  N   UNL     1     -40.955  57.749 -51.999  1.00  0.00    -0.223 NA
ENDBRANCH   1   3
BRANCH   1  14
HETATM   14  C   UNL     1     -41.314  54.473 -52.097  1.00  0.00     0.036 A 
HETATM   15  C   UNL     1     -40.866  53.741 -53.208  1.00  0.00     0.069 A 
HETATM   16  C   UNL     1     -40.170  52.539 -53.050  1.00  0.00     0.104 A 
HETATM   17  C   UNL     1     -39.873  52.069 -51.771  1.00  0.00     0.102 A 
HETATM   18  O   UNL     1     -39.729  51.930 -54.193  1.00  0.00    -0.348 OA
HETATM   19  O   UNL     1     -39.109  50.960 -51.538  1.00  0.00    -0.348 OA
HETATM   20  C   UNL     1     -40.277  52.801 -50.659  1.00  0.00     0.042 A 
HETATM   21  C   UNL     1     -39.723  49.771 -52.035  1.00  0.00     0.178 C 
HETATM   22  C   UNL     1     -39.485  49.588 -53.526  1.00  0.00     0.053 C 
HETATM   23  C   UNL     1     -40.263  50.613 -54.337  1.00  0.00     0.178 C 
HETATM   24  C   UNL     1     -41.007  53.983 -50.823  1.00  0.00     0.032 A 
ENDBRANCH   1  14
TORSDOF 2
ENDMDL
MODEL 2
REMARK VINA RESULT:      -7.8      2.077      2.761
REMARK  2 active torsions:
REMARK  status: ('A' for Active; 'I' for Inactive)
REMARK    1  A    between atoms: C_8  and  N_9 
REMARK    2  A    between atoms: N_9  and  C_10 
ROOT
HETATM    1  N   UNL     1     -42.247  55.744 -52.379  1.00  0.00    -0.340 N 
HETATM    2  H   UNL     1     -43.225  55.599 -52.186  1.00  0.00     0.167 HD
ENDROOT
BRANCH   1   3
HETATM    3  C   UNL     1     -41.910  57.095 -52.566  1.00  0.00     0.143 A 
HETATM    4  C   UNL     1     -42.697  58.155 -52.038  1.00  0.00     0.053 A 
HETATM    5  C   UNL     1     -43.978  58.219 -51.338  1.00  0.00    -0.032 A 
HETATM    6  C   UNL     1     -42.181  59.430 -52.221  1.00  0.00     0.114 A 
HETATM    7  C   UNL     1     -44.854  57.042 -51.037  1.00  0.00     0.050 C 
HETATM    8  C   UNL     1     -44.303  59.524 -50.987  1.00  0.00    -0.012 A 
HETATM    9  S   UNL     1     -43.142  60.647 -51.532  1.00  0.00    -0.074 SA
HETATM   10  C   UNL     1     -45.503  60.020 -50.245  1.00  0.00     0.057 C 
HETATM   11  N   UNL     1     -41.045  59.762 -52.855  1.00  0.00    -0.234 NA
HETATM   12  C   UNL     1     -40.404  58.700 -53.333  1.00  0.00     0.236 A 
HETATM   13  N   UNL     1     -40.768  57.418 -53.222  1.00  0.00    -0.223 NA
ENDBRANCH   1   3
BRANCH   1  14
HETATM   14  C   UNL     1     -41.450  54.602 -52.181  1.00  0.00     0.036 A 
HETATM   15  C   UNL     1     -41.081  53.834 -53.297  1.00  0.00     0.069 A 
HETATM   16  C   UNL     1     -40.329  52.665 -53.154  1.00  0.00     0.104 A 
HETATM   17  C   UNL     1     -39.896  52.264 -51.891  1.00  0.00     0.102 A 
HETATM   18  O   UNL     1     -39.976  52.018 -54.307  1.00  0.00    -0.348 OA
HETATM   19  O   UNL     1     -39.073  51.193 -51.684  1.00  0.00    -0.348 OA
HETATM   20  C   UNL     1     -40.220  53.034 -50.777  1.00  0.00     0.042 A 
HETATM   21  C   UNL     1     -39.687  49.963 -52.069  1.00  0.00     0.178 C 
HETATM   22  C   UNL     1     -39.583  49.718 -53.566  1.00  0.00     0.053 C 
HETATM   23  C   UNL     1     -40.471  50.679 -54.342  1.00  0.00     0.178 C 
HETATM   24  C   UNL     1     -41.006  54.183 -50.922  1.00  0.00     0.032 A 
ENDBRANCH   1  14
TORSDOF 2
ENDMDL
MODEL 3
REMARK VINA RESULT:      -7.8      3.081      4.754
REMARK  2 active torsions:
REMARK  status: ('A' for Active; 'I' for Inactive)
REMARK    1  A    between atoms: C_8  and  N_9 
REMARK    2  A    between atoms: N_9  and  C_10 
ROOT
HETATM    1  N   UNL     1     -43.416  55.993 -56.222  1.00  0.00    -0.340 N 
HETATM    2  H   UNL     1     -44.040  56.625 -55.747  1.00  0.00     0.167 HD
ENDROOT
BRANCH   1   3
HETATM    3  C   UNL     1     -43.308  56.246 -57.599  1.00  0.00     0.143 A 
HETATM    4  C   UNL     1     -42.794  57.469 -58.109  1.00  0.00     0.053 A 
HETATM    5  C   UNL     1     -42.378  58.731 -57.500  1.00  0.00    -0.032 A 
HETATM    6  C   UNL     1     -42.656  57.530 -59.490  1.00  0.00     0.114 A 
HETATM    7  C   UNL     1     -42.462  59.048 -56.039  1.00  0.00     0.050 C 
HETATM    8  C   UNL     1     -41.897  59.624 -58.451  1.00  0.00    -0.012 A 
HETATM    9  S   UNL     1     -41.998  58.997 -60.033  1.00  0.00    -0.074 SA
HETATM   10  C   UNL     1     -41.354  61.002 -58.247  1.00  0.00     0.057 C 
HETATM   11  N   UNL     1     -42.975  56.577 -60.379  1.00  0.00    -0.234 NA
HETATM   12  C   UNL     1     -43.472  55.489 -59.798  1.00  0.00     0.236 A 
HETATM   13  N   UNL     1     -43.649  55.280 -58.489  1.00  0.00    -0.223 NA
ENDBRANCH   1   3
BRANCH   1  14
HETATM   14  C   UNL     1     -42.651  55.189 -55.358  1.00  0.00     0.036 A 
HETATM   15  C   UNL     1     -43.173  54.866 -54.096  1.00  0.00     0.069 A 
HETATM   16  C   UNL     1     -42.437  54.110 -53.179  1.00  0.00     0.104 A 
HETATM   17  C   UNL     1     -41.176  53.627 -53.528  1.00  0.00     0.102 A 
HETATM   18  O   UNL     1     -43.056  53.803 -51.998  1.00  0.00    -0.348 OA
HETATM   19  O   UNL     1     -40.443  52.797 -52.727  1.00  0.00    -0.348 OA
HETATM   20  C   UNL     1     -40.658  53.906 -54.789  1.00  0.00     0.042 A 
HETATM   21  C   UNL     1     -40.069  53.427 -51.502  1.00  0.00     0.178 C 
HETATM   22  C   UNL     1     -41.189  53.384 -50.473  1.00  0.00     0.053 C 
HETATM   23  C   UNL     1     -42.335  54.301 -50.871  1.00  0.00     0.178 C 
HETATM   24  C   UNL     1     -41.383  54.696 -55.688  1.00  0.00     0.032 A 
ENDBRANCH   1  14
TORSDOF 2
ENDMDL
MODEL 4
REMARK VINA RESULT:      -7.7      4.106      7.574
REMARK  2 active torsions:
REMARK  status: ('A' for Active; 'I' for Inactive)
REMARK    1  A    between atoms: C_8  and  N_9 
REMARK    2  A    between atoms: N_9  and  C_10 
ROOT
HETATM    1  N   UNL     1     -41.441  55.545 -51.576  1.00  0.00    -0.340 N 
HETATM    2  H   UNL     1     -41.172  55.145 -50.691  1.00  0.00     0.167 HD
ENDROOT
BRANCH   1   3
HETATM    3  C   UNL     1     -40.972  54.818 -52.683  1.00  0.00     0.143 A 
HETATM    4  C   UNL     1     -40.487  53.487 -52.567  1.00  0.00     0.053 A 
HETATM    5  C   UNL     1     -40.232  52.591 -51.440  1.00  0.00    -0.032 A 
HETATM    6  C   UNL     1     -40.153  52.867 -53.764  1.00  0.00     0.114 A 
HETATM    7  C   UNL     1     -40.406  52.953 -49.998  1.00  0.00     0.050 C 
HETATM    8  C   UNL     1     -39.789  51.345 -51.869  1.00  0.00    -0.012 A 
HETATM    9  S   UNL     1     -39.623  51.267 -53.564  1.00  0.00    -0.074 SA
HETATM   10  C   UNL     1     -39.441  50.145 -51.048  1.00  0.00     0.057 C 
HETATM   11  N   UNL     1     -40.218  53.395 -54.996  1.00  0.00    -0.234 NA
HETATM   12  C   UNL     1     -40.656  54.650 -54.986  1.00  0.00     0.236 A 
HETATM   13  N   UNL     1     -41.028  55.368 -53.921  1.00  0.00    -0.223 NA
ENDBRANCH   1   3
BRANCH   1  14
HETATM   14  C   UNL     1     -42.395  56.573 -51.471  1.00  0.00     0.036 A 
HETATM   15  C   UNL     1     -41.966  57.906 -51.576  1.00  0.00     0.069 A 
HETATM   16  C   UNL     1     -42.863  58.968 -51.435  1.00  0.00     0.104 A 
HETATM   17  C   UNL     1     -44.218  58.714 -51.225  1.00  0.00     0.102 A 
HETATM   18  O   UNL     1     -42.355  60.227 -51.608  1.00  0.00    -0.348 OA
HETATM   19  O   UNL     1     -45.167  59.695 -51.180  1.00  0.00    -0.348 OA
HETATM   20  C   UNL     1     -44.667  57.398 -51.156  1.00  0.00     0.042 A 
HETATM   21  C   UNL     1     -44.972  60.580 -50.077  1.00  0.00     0.178 C 
HETATM   22  C   UNL     1     -43.928  61.644 -50.378  1.00  0.00     0.053 C 
HETATM   23  C   UNL     1     -42.533  61.040 -50.447  1.00  0.00     0.178 C 
HETATM   24  C   UNL     1     -43.759  56.339 -51.260  1.00  0.00     0.032 A 
ENDBRANCH   1  14
TORSDOF 2
ENDMDL
MODEL 5
REMARK VINA RESULT:      -7.7      1.549      2.692
REMARK  2 active torsions:
REMARK  status: ('A' for Active; 'I' for Inactive)
REMARK    1  A    between atoms: C_8  and  N_9 
REMARK    2  A    between atoms: N_9  and  C_10 
ROOT
HETATM    1  N   UNL     1     -42.955  55.062 -53.679  1.00  0.00    -0.340 N 
HETATM    2  H   UNL     1     -43.845  55.018 -53.210  1.00  0.00     0.167 HD
ENDROOT
BRANCH   1   3
HETATM    3  C   UNL     1     -42.821  56.179 -54.520  1.00  0.00     0.143 A 
HETATM    4  C   UNL     1     -42.667  57.498 -54.012  1.00  0.00     0.053 A 
HETATM    5  C   UNL     1     -42.704  58.085 -52.674  1.00  0.00    -0.032 A 
HETATM    6  C   UNL     1     -42.447  58.483 -54.966  1.00  0.00     0.114 A 
HETATM    7  C   UNL     1     -42.994  57.331 -51.413  1.00  0.00     0.050 C 
HETATM    8  C   UNL     1     -42.445  59.450 -52.707  1.00  0.00    -0.012 A 
HETATM    9  S   UNL     1     -42.226  60.027 -54.297  1.00  0.00    -0.074 SA
HETATM   10  C   UNL     1     -42.367  60.413 -51.566  1.00  0.00     0.057 C 
HETATM   11  N   UNL     1     -42.389  58.323 -56.298  1.00  0.00    -0.234 NA
HETATM   12  C   UNL     1     -42.575  57.059 -56.664  1.00  0.00     0.236 A 
HETATM   13  N   UNL     1     -42.781  56.007 -55.864  1.00  0.00    -0.223 NA
ENDBRANCH   1   3
BRANCH   1  14
HETATM   14  C   UNL     1     -42.008  54.140 -53.196  1.00  0.00     0.036 A 
HETATM   15  C   UNL     1     -41.474  53.194 -54.084  1.00  0.00     0.069 A 
HETATM   16  C   UNL     1     -40.565  52.225 -53.649  1.00  0.00     0.104 A 
HETATM   17  C   UNL     1     -40.143  52.212 -52.320  1.00  0.00     0.102 A 
HETATM   18  O   UNL     1     -40.062  51.383 -54.603  1.00  0.00    -0.348 OA
HETATM   19  O   UNL     1     -39.183  51.363 -51.846  1.00  0.00    -0.348 OA
HETATM   20  C   UNL     1     -40.634  53.166 -51.434  1.00  0.00     0.042 A 
HETATM   21  C   UNL     1     -39.587  49.996 -51.926  1.00  0.00     0.178 C 
HETATM   22  C   UNL     1     -39.372  49.418 -53.316  1.00  0.00     0.053 C 
HETATM   23  C   UNL     1     -40.351  50.014 -54.316  1.00  0.00     0.178 C 
HETATM   24  C   UNL     1     -41.573  54.109 -51.866  1.00  0.00     0.032 A 
ENDBRANCH   1  14
TORSDOF 2
ENDMDL
MODEL 6
REMARK VINA RESULT:      -7.5      3.236      6.834
REMARK  2 active torsions:
REMARK  status: ('A' for Active; 'I' for Inactive)
REMARK    1  A    between atoms: C_8  and  N_9 
REMARK    2  A    between atoms: N_9  and  C_10 
ROOT
HETATM    1  N   UNL     1     -41.254  56.447 -54.191  1.00  0.00    -0.340 N 
HETATM    2  H   UNL     1     -40.320  56.775 -54.376  1.00  0.00     0.167 HD
ENDROOT
BRANCH   1   3
HETATM    3  C   UNL     1     -41.422  55.947 -52.889  1.00  0.00     0.143 A 
HETATM    4  C   UNL     1     -41.002  54.641 -52.517  1.00  0.00     0.053 A 
HETATM    5  C   UNL     1     -40.451  53.502 -53.249  1.00  0.00    -0.032 A 
HETATM    6  C   UNL     1     -41.145  54.328 -51.171  1.00  0.00     0.114 A 
HETATM    7  C   UNL     1     -40.234  53.456 -54.729  1.00  0.00     0.050 C 
HETATM    8  C   UNL     1     -40.158  52.442 -52.399  1.00  0.00    -0.012 A 
HETATM    9  S   UNL     1     -40.586  52.774 -50.782  1.00  0.00    -0.074 SA
HETATM   10  C   UNL     1     -39.564  51.112 -52.736  1.00  0.00     0.057 C 
HETATM   11  N   UNL     1     -41.652  55.112 -50.207  1.00  0.00    -0.234 NA
HETATM   12  C   UNL     1     -42.039  56.296 -50.668  1.00  0.00     0.236 A 
HETATM   13  N   UNL     1     -41.951  56.743 -51.926  1.00  0.00    -0.223 NA
ENDBRANCH   1   3
BRANCH   1  14
HETATM   14  C   UNL     1     -42.188  56.787 -55.186  1.00  0.00     0.036 A 
HETATM   15  C   UNL     1     -42.349  55.926 -56.283  1.00  0.00     0.069 A 
HETATM   16  C   UNL     1     -43.229  56.237 -57.324  1.00  0.00     0.104 A 
HETATM   17  C   UNL     1     -43.995  57.400 -57.266  1.00  0.00     0.102 A 
HETATM   18  O   UNL     1     -43.354  55.306 -58.320  1.00  0.00    -0.348 OA
HETATM   19  O   UNL     1     -44.948  57.717 -58.192  1.00  0.00    -0.348 OA
HETATM   20  C   UNL     1     -43.876  58.247 -56.168  1.00  0.00     0.042 A 
HETATM   21  C   UNL     1     -44.388  57.930 -59.487  1.00  0.00     0.178 C 
HETATM   22  C   UNL     1     -44.147  56.622 -60.225  1.00  0.00     0.053 C 
HETATM   23  C   UNL     1     -43.004  55.839 -59.598  1.00  0.00     0.178 C 
HETATM   24  C   UNL     1     -42.966  57.950 -55.147  1.00  0.00     0.032 A 
ENDBRANCH   1  14
TORSDOF 2
ENDMDL
MODEL 7
REMARK VINA RESULT:      -7.5      3.956      7.447
REMARK  2 active torsions:
REMARK  status: ('A' for Active; 'I' for Inactive)
REMARK    1  A    between atoms: C_8  and  N_9 
REMARK    2  A    between atoms: N_9  and  C_10 
ROOT
HETATM    1  N   UNL     1     -41.345  55.442 -52.914  1.00  0.00    -0.340 N 
HETATM    2  H   UNL     1     -41.191  55.092 -53.846  1.00  0.00     0.167 HD
ENDROOT
BRANCH   1   3
HETATM    3  C   UNL     1     -41.023  54.514 -51.910  1.00  0.00     0.143 A 
HETATM    4  C   UNL     1     -40.534  53.213 -52.206  1.00  0.00     0.053 A 
HETATM    5  C   UNL     1     -40.336  52.456 -53.441  1.00  0.00    -0.032 A 
HETATM    6  C   UNL     1     -40.167  52.448 -51.106  1.00  0.00     0.114 A 
HETATM    7  C   UNL     1     -40.695  52.940 -54.812  1.00  0.00     0.050 C 
HETATM    8  C   UNL     1     -39.776  51.209 -53.192  1.00  0.00    -0.012 A 
HETATM    9  S   UNL     1     -39.551  50.924 -51.526  1.00  0.00    -0.074 SA
HETATM   10  C   UNL     1     -39.394  50.145 -54.171  1.00  0.00     0.057 C 
HETATM   11  N   UNL     1     -40.248  52.797 -49.813  1.00  0.00    -0.234 NA
HETATM   12  C   UNL     1     -40.744  54.019 -49.649  1.00  0.00     0.236 A 
HETATM   13  N   UNL     1     -41.124  54.873 -50.606  1.00  0.00    -0.223 NA
ENDBRANCH   1   3
BRANCH   1  14
HETATM   14  C   UNL     1     -41.612  56.822 -52.859  1.00  0.00     0.036 A 
HETATM   15  C   UNL     1     -42.874  57.248 -52.417  1.00  0.00     0.069 A 
HETATM   16  C   UNL     1     -43.209  58.605 -52.385  1.00  0.00     0.104 A 
HETATM   17  C   UNL     1     -42.269  59.564 -52.758  1.00  0.00     0.102 A 
HETATM   18  O   UNL     1     -44.445  58.920 -51.888  1.00  0.00    -0.348 OA
HETATM   19  O   UNL     1     -42.488  60.909 -52.656  1.00  0.00    -0.348 OA
HETATM   20  C   UNL     1     -41.000  59.162 -53.163  1.00  0.00     0.042 A 
HETATM   21  C   UNL     1     -43.547  61.347 -53.507  1.00  0.00     0.178 C 
HETATM   22  C   UNL     1     -44.914  61.105 -52.886  1.00  0.00     0.053 C 
HETATM   23  C   UNL     1     -45.243  59.621 -52.843  1.00  0.00     0.178 C 
HETATM   24  C   UNL     1     -40.682  57.801 -53.229  1.00  0.00     0.032 A 
ENDBRANCH   1  14
TORSDOF 2
ENDMDL
MODEL 8
REMARK VINA RESULT:      -7.5      3.749      7.152
REMARK  2 active torsions:
REMARK  status: ('A' for Active; 'I' for Inactive)
REMARK    1  A    between atoms: C_8  and  N_9 
REMARK    2  A    between atoms: N_9  and  C_10 
ROOT
HETATM    1  N   UNL     1     -42.825  54.486 -54.269  1.00  0.00    -0.340 N 
HETATM    2  H   UNL     1     -43.746  54.142 -54.048  1.00  0.00     0.167 HD
ENDROOT
BRANCH   1   3
HETATM    3  C   UNL     1     -41.791  53.680 -53.764  1.00  0.00     0.143 A 
HETATM    4  C   UNL     1     -41.358  53.760 -52.413  1.00  0.00     0.053 A 
HETATM    5  C   UNL     1     -41.687  54.634 -51.288  1.00  0.00    -0.032 A 
HETATM    6  C   UNL     1     -40.396  52.830 -52.038  1.00  0.00     0.114 A 
HETATM    7  C   UNL     1     -42.628  55.796 -51.350  1.00  0.00     0.050 C 
HETATM    8  C   UNL     1     -41.003  54.262 -50.136  1.00  0.00    -0.012 A 
HETATM    9  S   UNL     1     -39.953  52.947 -50.405  1.00  0.00    -0.074 SA
HETATM   10  C   UNL     1     -41.072  54.873 -48.772  1.00  0.00     0.057 C 
HETATM   11  N   UNL     1     -39.827  51.896 -52.815  1.00  0.00    -0.234 NA
HETATM   12  C   UNL     1     -40.283  51.929 -54.063  1.00  0.00     0.236 A 
HETATM   13  N   UNL     1     -41.212  52.751 -54.564  1.00  0.00    -0.223 NA
ENDBRANCH   1   3
BRANCH   1  14
HETATM   14  C   UNL     1     -42.817  55.533 -55.209  1.00  0.00     0.036 A 
HETATM   15  C   UNL     1     -43.141  55.244 -56.544  1.00  0.00     0.069 A 
HETATM   16  C   UNL     1     -43.104  56.236 -57.528  1.00  0.00     0.104 A 
HETATM   17  C   UNL     1     -42.782  57.548 -57.184  1.00  0.00     0.102 A 
HETATM   18  O   UNL     1     -43.489  55.865 -58.788  1.00  0.00    -0.348 OA
HETATM   19  O   UNL     1     -42.825  58.588 -58.070  1.00  0.00    -0.348 OA
HETATM   20  C   UNL     1     -42.495  57.860 -55.859  1.00  0.00     0.042 A 
HETATM   21  C   UNL     1     -41.877  58.435 -59.125  1.00  0.00     0.178 C 
HETATM   22  C   UNL     1     -42.391  57.516 -60.223  1.00  0.00     0.053 C 
HETATM   23  C   UNL     1     -42.451  56.073 -59.748  1.00  0.00     0.178 C 
HETATM   24  C   UNL     1     -42.495  56.856 -54.885  1.00  0.00     0.032 A 
ENDBRANCH   1  14
TORSDOF 2
ENDMDL
MODEL 9
REMARK VINA RESULT:      -7.4      3.752      6.968
REMARK  2 active torsions:
REMARK  status: ('A' for Active; 'I' for Inactive)
REMARK    1  A    between atoms: C_8  and  N_9 
REMARK    2  A    between atoms: N_9  and  C_10 
ROOT
HETATM    1  N   UNL     1     -42.832  55.632 -51.816  1.00  0.00    -0.340 N 
HETATM    2  H   UNL     1     -43.782  55.311 -51.912  1.00  0.00     0.167 HD
ENDROOT
BRANCH   1   3
HETATM    3  C   UNL     1     -42.015  54.752 -51.088  1.00  0.00     0.143 A 
HETATM    4  C   UNL     1     -41.289  53.700 -51.709  1.00  0.00     0.053 A 
HETATM    5  C   UNL     1     -41.229  53.169 -53.070  1.00  0.00    -0.032 A 
HETATM    6  C   UNL     1     -40.449  52.978 -50.871  1.00  0.00     0.114 A 
HETATM    7  C   UNL     1     -42.058  53.654 -54.219  1.00  0.00     0.050 C 
HETATM    8  C   UNL     1     -40.306  52.135 -53.175  1.00  0.00    -0.012 A 
HETATM    9  S   UNL     1     -39.576  51.767 -51.679  1.00  0.00    -0.074 SA
HETATM   10  C   UNL     1     -39.925  51.344 -54.386  1.00  0.00     0.057 C 
HETATM   11  N   UNL     1     -40.273  53.154 -49.552  1.00  0.00    -0.234 NA
HETATM   12  C   UNL     1     -41.021  54.142 -49.070  1.00  0.00     0.236 A 
HETATM   13  N   UNL     1     -41.859  54.929 -49.752  1.00  0.00    -0.223 NA
ENDBRANCH   1   3
BRANCH   1  14
HETATM   14  C   UNL     1     -42.521  56.741 -52.623  1.00  0.00     0.036 A 
HETATM   15  C   UNL     1     -43.567  57.429 -53.259  1.00  0.00     0.069 A 
HETATM   16  C   UNL     1     -43.312  58.510 -54.108  1.00  0.00     0.104 A 
HETATM   17  C   UNL     1     -42.003  58.947 -54.306  1.00  0.00     0.102 A 
HETATM   18  O   UNL     1     -44.402  59.146 -54.636  1.00  0.00    -0.348 OA
HETATM   19  O   UNL     1     -41.685  60.057 -55.038  1.00  0.00    -0.348 OA
HETATM   20  C   UNL     1     -40.956  58.301 -53.655  1.00  0.00     0.042 A 
HETATM   21  C   UNL     1     -42.042  59.913 -56.412  1.00  0.00     0.178 C 
HETATM   22  C   UNL     1     -43.514  60.211 -56.652  1.00  0.00     0.053 C 
HETATM   23  C   UNL     1     -44.398  59.122 -56.063  1.00  0.00     0.178 C 
HETATM   24  C   UNL     1     -41.214  57.196 -52.836  1.00  0.00     0.032 A 
ENDBRANCH   1  14
TORSDOF 2
ENDMDL
MODEL 10
REMARK VINA RESULT:      -7.4      4.443      7.725
REMARK  2 active torsions:
REMARK  status: ('A' for Active; 'I' for Inactive)
REMARK    1  A    between atoms: C_8  and  N_9 
REMARK    2  A    between atoms: N_9  and  C_10 
ROOT
HETATM    1  N   UNL     1     -41.410  56.282 -51.694  1.00  0.00    -0.340 N 
HETATM    2  H   UNL     1     -40.634  56.562 -52.272  1.00  0.00     0.167 HD
ENDROOT
BRANCH   1   3
HETATM    3  C   UNL     1     -41.129  55.170 -50.883  1.00  0.00     0.143 A 
HETATM    4  C   UNL     1     -40.711  53.923 -51.421  1.00  0.00     0.053 A 
HETATM    5  C   UNL     1     -40.561  53.399 -52.778  1.00  0.00    -0.032 A 
HETATM    6  C   UNL     1     -40.375  52.951 -50.488  1.00  0.00     0.114 A 
HETATM    7  C   UNL     1     -40.906  54.144 -54.030  1.00  0.00     0.050 C 
HETATM    8  C   UNL     1     -40.065  52.100 -52.772  1.00  0.00    -0.012 A 
HETATM    9  S   UNL     1     -39.842  51.502 -51.191  1.00  0.00    -0.074 SA
HETATM   10  C   UNL     1     -39.746  51.218 -53.936  1.00  0.00     0.057 C 
HETATM   11  N   UNL     1     -40.428  53.060 -49.151  1.00  0.00    -0.234 NA
HETATM   12  C   UNL     1     -40.859  54.253 -48.757  1.00  0.00     0.236 A 
HETATM   13  N   UNL     1     -41.202  55.287 -49.534  1.00  0.00    -0.223 NA
ENDBRANCH   1   3
BRANCH   1  14
HETATM   14  C   UNL     1     -42.472  57.204 -51.678  1.00  0.00     0.036 A 
HETATM   15  C   UNL     1     -42.181  58.567 -51.510  1.00  0.00     0.069 A 
HETATM   16  C   UNL     1     -43.199  59.521 -51.440  1.00  0.00     0.104 A 
HETATM   17  C   UNL     1     -44.531  59.132 -51.578  1.00  0.00     0.102 A 
HETATM   18  O   UNL     1     -42.809  60.828 -51.330  1.00  0.00    -0.348 OA
HETATM   19  O   UNL     1     -45.571  60.017 -51.624  1.00  0.00    -0.348 OA
HETATM   20  C   UNL     1     -44.837  57.789 -51.783  1.00  0.00     0.042 A 
HETATM   21  C   UNL     1     -45.715  60.739 -50.401  1.00  0.00     0.178 C 
HETATM   22  C   UNL     1     -44.754  61.915 -50.318  1.00  0.00     0.053 C 
HETATM   23  C   UNL     1     -43.320  61.442 -50.145  1.00  0.00     0.178 C 
HETATM   24  C   UNL     1     -43.815  56.833 -51.813  1.00  0.00     0.032 A 
ENDBRANCH   1  14
TORSDOF 2
ENDMDL
