MODEL 1
REMARK VINA RESULT:      -8.6      0.000      0.000
REMARK  3 active torsions:
REMARK  status: ('A' for Active; 'I' for Inactive)
REMARK    1  A    between atoms: C_10  and  C_11 
REMARK       I    between atoms: C_11  and  N_12 
REMARK    2  A    between atoms: N_12  and  C_13 
REMARK    3  A    between atoms: C_16  and  N_17 
ROOT
HETATM    1  C   UNL     1     -40.730  54.051 -54.494  1.00  0.00     0.258 C 
HETATM    2  N   UNL     1     -41.926  54.718 -54.641  1.00  0.00    -0.322 N 
HETATM    3  O   UNL     1     -39.869  53.981 -55.368  1.00  0.00    -0.267 OA
HETATM    4  H   UNL     1     -42.590  54.642 -53.882  1.00  0.00     0.169 HD
ENDROOT
BRANCH   2   5
HETATM    5  C   UNL     1     -42.295  55.587 -55.688  1.00  0.00     0.052 A 
HETATM    6  C   UNL     1     -42.237  56.972 -55.650  1.00  0.00     0.148 A 
HETATM    7  N   UNL     1     -42.700  57.783 -56.639  1.00  0.00    -0.247 NA
HETATM    8  C   UNL     1     -43.250  57.227 -57.738  1.00  0.00     0.105 A 
HETATM    9  C   UNL     1     -43.312  55.840 -57.862  1.00  0.00     0.047 A 
HETATM   10  C   UNL     1     -42.829  55.019 -56.838  1.00  0.00     0.034 A 
BRANCH   8  11
HETATM   11  N   UNL     1     -43.840  58.055 -58.705  1.00  0.00    -0.258 NA
HETATM   12  C   UNL     1     -45.195  57.642 -59.139  1.00  0.00     0.199 C 
HETATM   13  C   UNL     1     -45.783  58.525 -60.258  1.00  0.00     0.231 C 
HETATM   14  O   UNL     1     -46.987  58.533 -60.519  1.00  0.00    -0.272 OA
HETATM   15  N   UNL     1     -44.921  59.254 -61.040  1.00  0.00    -0.359 N 
HETATM   16  C   UNL     1     -43.571  59.553 -60.607  1.00  0.00     0.137 C 
HETATM   17  H   UNL     1     -45.378  59.865 -61.704  1.00  0.00     0.162 HD
HETATM   18  C   UNL     1     -42.939  58.404 -59.816  1.00  0.00     0.117 C 
ENDBRANCH   8  11
ENDBRANCH   2   5
BRANCH   1  19
HETATM   19  C   UNL     1     -40.511  53.420 -53.182  1.00  0.00     0.063 A 
HETATM   20  C   UNL     1     -40.160  52.075 -52.792  1.00  0.00     0.046 A 
HETATM   21  C   UNL     1     -39.856  50.869 -53.462  1.00  0.00     0.130 A 
HETATM   22  C   UNL     1     -40.159  52.032 -51.391  1.00  0.00     0.046 A 
HETATM   23  C   UNL     1     -39.578  49.696 -52.756  1.00  0.00     0.043 A 
HETATM   24  F   UNL     1     -39.823  50.821 -54.801  1.00  0.00    -0.205 F 
HETATM   25  C   UNL     1     -39.598  49.696 -51.367  1.00  0.00     0.005 A 
HETATM   26  C   UNL     1     -39.887  50.866 -50.659  1.00  0.00     0.030 A 
HETATM   27  N   UNL     1     -40.468  53.290 -50.941  1.00  0.00    -0.364 N 
HETATM   28  H   UNL     1     -40.544  53.554 -49.967  1.00  0.00     0.165 HD
HETATM   29  C   UNL     1     -40.679  54.126 -51.999  1.00  0.00     0.106 A 
ENDBRANCH   1  19
TORSDOF 3
ENDMDL
MODEL 2
REMARK VINA RESULT:      -8.4      1.529      1.897
REMARK  3 active torsions:
REMARK  status: ('A' for Active; 'I' for Inactive)
REMARK    1  A    between atoms: C_10  and  C_11 
REMARK       I    between atoms: C_11  and  N_12 
REMARK    2  A    between atoms: N_12  and  C_13 
REMARK    3  A    between atoms: C_16  and  N_17 
ROOT
HETATM    1  C   UNL     1     -40.668  54.121 -54.343  1.00  0.00     0.258 C 
HETATM    2  N   UNL     1     -41.935  54.643 -54.478  1.00  0.00    -0.322 N 
HETATM    3  O   UNL     1     -39.777  54.251 -55.179  1.00  0.00    -0.267 OA
HETATM    4  H   UNL     1     -42.608  54.406 -53.762  1.00  0.00     0.169 HD
ENDROOT
BRANCH   2   5
HETATM    5  C   UNL     1     -42.379  55.564 -55.449  1.00  0.00     0.052 A 
HETATM    6  C   UNL     1     -42.904  55.242 -56.691  1.00  0.00     0.148 A 
HETATM    7  N   UNL     1     -43.225  56.158 -57.645  1.00  0.00    -0.247 NA
HETATM    8  C   UNL     1     -43.033  57.468 -57.386  1.00  0.00     0.105 A 
HETATM    9  C   UNL     1     -42.540  57.869 -56.145  1.00  0.00     0.047 A 
HETATM   10  C   UNL     1     -42.218  56.917 -55.173  1.00  0.00     0.034 A 
BRANCH   8  11
HETATM   11  N   UNL     1     -43.244  58.408 -58.406  1.00  0.00    -0.258 NA
HETATM   12  C   UNL     1     -42.110  58.579 -59.344  1.00  0.00     0.199 C 
HETATM   13  C   UNL     1     -42.342  59.674 -60.403  1.00  0.00     0.231 C 
HETATM   14  O   UNL     1     -41.667  59.741 -61.431  1.00  0.00    -0.272 OA
HETATM   15  N   UNL     1     -43.270  60.652 -60.144  1.00  0.00    -0.359 N 
HETATM   16  C   UNL     1     -44.307  60.471 -59.148  1.00  0.00     0.137 C 
HETATM   17  H   UNL     1     -43.423  61.294 -60.911  1.00  0.00     0.162 HD
HETATM   18  C   UNL     1     -43.821  59.677 -57.932  1.00  0.00     0.117 C 
ENDBRANCH   8  11
ENDBRANCH   2   5
BRANCH   1  19
HETATM   19  C   UNL     1     -40.413  53.388 -53.092  1.00  0.00     0.063 A 
HETATM   20  C   UNL     1     -40.094  52.007 -52.817  1.00  0.00     0.046 A 
HETATM   21  C   UNL     1     -39.867  50.843 -53.585  1.00  0.00     0.130 A 
HETATM   22  C   UNL     1     -40.030  51.861 -51.424  1.00  0.00     0.046 A 
HETATM   23  C   UNL     1     -39.600  49.613 -52.979  1.00  0.00     0.043 A 
HETATM   24  F   UNL     1     -39.897  50.893 -54.924  1.00  0.00    -0.205 F 
HETATM   25  C   UNL     1     -39.556  49.512 -51.595  1.00  0.00     0.005 A 
HETATM   26  C   UNL     1     -39.769  50.636 -50.791  1.00  0.00     0.030 A 
HETATM   27  N   UNL     1     -40.272  53.093 -50.871  1.00  0.00    -0.364 N 
HETATM   28  H   UNL     1     -40.293  53.287 -49.877  1.00  0.00     0.165 HD
HETATM   29  C   UNL     1     -40.500  54.010 -51.854  1.00  0.00     0.106 A 
ENDBRANCH   1  19
TORSDOF 3
ENDMDL
MODEL 3
REMARK VINA RESULT:      -8.2      1.726      2.601
REMARK  3 active torsions:
REMARK  status: ('A' for Active; 'I' for Inactive)
REMARK    1  A    between atoms: C_10  and  C_11 
REMARK       I    between atoms: C_11  and  N_12 
REMARK    2  A    between atoms: N_12  and  C_13 
REMARK    3  A    between atoms: C_16  and  N_17 
ROOT
HETATM    1  C   UNL     1     -40.719  54.231 -54.185  1.00  0.00     0.258 C 
HETATM    2  N   UNL     1     -41.928  54.848 -54.418  1.00  0.00    -0.322 N 
HETATM    3  O   UNL     1     -39.808  54.168 -55.007  1.00  0.00    -0.267 OA
HETATM    4  H   UNL     1     -42.631  54.769 -53.695  1.00  0.00     0.169 HD
ENDROOT
BRANCH   2   5
HETATM    5  C   UNL     1     -42.268  55.673 -55.510  1.00  0.00     0.052 A 
HETATM    6  C   UNL     1     -42.216  57.058 -55.526  1.00  0.00     0.148 A 
HETATM    7  N   UNL     1     -42.651  57.827 -56.560  1.00  0.00    -0.247 NA
HETATM    8  C   UNL     1     -43.165  57.225 -57.653  1.00  0.00     0.105 A 
HETATM    9  C   UNL     1     -43.218  55.833 -57.723  1.00  0.00     0.047 A 
HETATM   10  C   UNL     1     -42.764  55.057 -56.653  1.00  0.00     0.034 A 
BRANCH   8  11
HETATM   11  N   UNL     1     -43.728  58.011 -58.670  1.00  0.00    -0.258 NA
HETATM   12  C   UNL     1     -45.105  57.631 -59.064  1.00  0.00     0.199 C 
HETATM   13  C   UNL     1     -45.665  58.461 -60.236  1.00  0.00     0.231 C 
HETATM   14  O   UNL     1     -46.870  58.505 -60.487  1.00  0.00    -0.272 OA
HETATM   15  N   UNL     1     -44.780  59.095 -61.073  1.00  0.00    -0.359 N 
HETATM   16  C   UNL     1     -43.413  59.361 -60.673  1.00  0.00     0.137 C 
HETATM   17  H   UNL     1     -45.217  59.679 -61.774  1.00  0.00     0.162 HD
HETATM   18  C   UNL     1     -42.825  58.241 -59.809  1.00  0.00     0.117 C 
ENDBRANCH   8  11
ENDBRANCH   2   5
BRANCH   1  19
HETATM   19  C   UNL     1     -40.553  53.646 -52.844  1.00  0.00     0.063 A 
HETATM   20  C   UNL     1     -40.757  54.174 -51.516  1.00  0.00     0.046 A 
HETATM   21  C   UNL     1     -41.210  55.393 -50.965  1.00  0.00     0.130 A 
HETATM   22  C   UNL     1     -40.369  53.181 -50.606  1.00  0.00     0.046 A 
HETATM   23  C   UNL     1     -41.259  55.593 -49.584  1.00  0.00     0.043 A 
HETATM   24  F   UNL     1     -41.611  56.395 -51.761  1.00  0.00    -0.205 F 
HETATM   25  C   UNL     1     -40.856  54.584 -48.718  1.00  0.00     0.005 A 
HETATM   26  C   UNL     1     -40.405  53.358 -49.214  1.00  0.00     0.030 A 
HETATM   27  N   UNL     1     -39.972  52.088 -51.335  1.00  0.00    -0.364 N 
HETATM   28  H   UNL     1     -39.635  51.220 -50.939  1.00  0.00     0.165 HD
HETATM   29  C   UNL     1     -40.078  52.353 -52.669  1.00  0.00     0.106 A 
ENDBRANCH   1  19
TORSDOF 3
ENDMDL
MODEL 4
REMARK VINA RESULT:      -8.1      6.460      7.837
REMARK  3 active torsions:
REMARK  status: ('A' for Active; 'I' for Inactive)
REMARK    1  A    between atoms: C_10  and  C_11 
REMARK       I    between atoms: C_11  and  N_12 
REMARK    2  A    between atoms: N_12  and  C_13 
REMARK    3  A    between atoms: C_16  and  N_17 
ROOT
HETATM    1  C   UNL     1     -41.952  56.971 -52.196  1.00  0.00     0.258 C 
HETATM    2  N   UNL     1     -43.111  57.669 -52.455  1.00  0.00    -0.322 N 
HETATM    3  O   UNL     1     -41.296  57.084 -51.164  1.00  0.00    -0.267 OA
HETATM    4  H   UNL     1     -43.522  57.553 -53.371  1.00  0.00     0.169 HD
ENDROOT
BRANCH   2   5
HETATM    5  C   UNL     1     -43.855  58.451 -51.548  1.00  0.00     0.052 A 
HETATM    6  C   UNL     1     -45.084  58.110 -51.004  1.00  0.00     0.148 A 
HETATM    7  N   UNL     1     -45.825  58.935 -50.214  1.00  0.00    -0.247 NA
HETATM    8  C   UNL     1     -45.350  60.165 -49.925  1.00  0.00     0.105 A 
HETATM    9  C   UNL     1     -44.105  60.564 -50.409  1.00  0.00     0.047 A 
HETATM   10  C   UNL     1     -43.354  59.704 -51.217  1.00  0.00     0.034 A 
BRANCH   8  11
HETATM   11  N   UNL     1     -46.160  61.064 -49.216  1.00  0.00    -0.258 NA
HETATM   12  C   UNL     1     -46.488  62.314 -49.939  1.00  0.00     0.199 C 
HETATM   13  C   UNL     1     -47.312  63.315 -49.104  1.00  0.00     0.231 C 
HETATM   14  O   UNL     1     -47.931  64.244 -49.624  1.00  0.00    -0.272 OA
HETATM   15  N   UNL     1     -47.277  63.213 -47.735  1.00  0.00    -0.359 N 
HETATM   16  C   UNL     1     -46.859  61.993 -47.075  1.00  0.00     0.137 C 
HETATM   17  H   UNL     1     -47.896  63.853 -47.255  1.00  0.00     0.162 HD
HETATM   18  C   UNL     1     -45.731  61.276 -47.823  1.00  0.00     0.117 C 
ENDBRANCH   8  11
ENDBRANCH   2   5
BRANCH   1  19
HETATM   19  C   UNL     1     -41.529  56.031 -53.248  1.00  0.00     0.063 A 
HETATM   20  C   UNL     1     -41.016  54.682 -53.203  1.00  0.00     0.046 A 
HETATM   21  C   UNL     1     -40.750  53.729 -52.195  1.00  0.00     0.130 A 
HETATM   22  C   UNL     1     -40.714  54.305 -54.519  1.00  0.00     0.046 A 
HETATM   23  C   UNL     1     -40.207  52.479 -52.503  1.00  0.00     0.043 A 
HETATM   24  F   UNL     1     -41.018  54.000 -50.910  1.00  0.00    -0.205 F 
HETATM   25  C   UNL     1     -39.913  52.150 -53.819  1.00  0.00     0.005 A 
HETATM   26  C   UNL     1     -40.163  53.058 -54.853  1.00  0.00     0.030 A 
HETATM   27  N   UNL     1     -41.047  55.356 -55.334  1.00  0.00    -0.364 N 
HETATM   28  H   UNL     1     -40.932  55.368 -56.340  1.00  0.00     0.165 HD
HETATM   29  C   UNL     1     -41.534  56.390 -54.589  1.00  0.00     0.106 A 
ENDBRANCH   1  19
TORSDOF 3
ENDMDL
MODEL 5
REMARK VINA RESULT:      -8.0      1.279      1.592
REMARK  3 active torsions:
REMARK  status: ('A' for Active; 'I' for Inactive)
REMARK    1  A    between atoms: C_10  and  C_11 
REMARK       I    between atoms: C_11  and  N_12 
REMARK    2  A    between atoms: N_12  and  C_13 
REMARK    3  A    between atoms: C_16  and  N_17 
ROOT
HETATM    1  C   UNL     1     -40.750  54.315 -54.161  1.00  0.00     0.258 C 
HETATM    2  N   UNL     1     -42.065  54.688 -54.333  1.00  0.00    -0.322 N 
HETATM    3  O   UNL     1     -39.839  54.630 -54.922  1.00  0.00    -0.267 OA
HETATM    4  H   UNL     1     -42.740  54.305 -53.686  1.00  0.00     0.169 HD
ENDROOT
BRANCH   2   5
HETATM    5  C   UNL     1     -42.570  55.634 -55.250  1.00  0.00     0.052 A 
HETATM    6  C   UNL     1     -42.990  56.918 -54.940  1.00  0.00     0.148 A 
HETATM    7  N   UNL     1     -43.570  57.767 -55.831  1.00  0.00    -0.247 NA
HETATM    8  C   UNL     1     -43.753  57.357 -57.103  1.00  0.00     0.105 A 
HETATM    9  C   UNL     1     -43.323  56.090 -57.496  1.00  0.00     0.047 A 
HETATM   10  C   UNL     1     -42.726  55.230 -56.570  1.00  0.00     0.034 A 
BRANCH   8  11
HETATM   11  N   UNL     1     -44.459  58.178 -57.995  1.00  0.00    -0.258 NA
HETATM   12  C   UNL     1     -43.891  59.534 -58.181  1.00  0.00     0.199 C 
HETATM   13  C   UNL     1     -44.734  60.437 -59.103  1.00  0.00     0.231 C 
HETATM   14  O   UNL     1     -44.272  61.458 -59.615  1.00  0.00    -0.272 OA
HETATM   15  N   UNL     1     -46.061  60.136 -59.284  1.00  0.00    -0.359 N 
HETATM   16  C   UNL     1     -46.585  58.816 -58.998  1.00  0.00     0.137 C 
HETATM   17  H   UNL     1     -46.533  60.725 -59.956  1.00  0.00     0.162 HD
HETATM   18  C   UNL     1     -45.916  58.167 -57.783  1.00  0.00     0.117 C 
ENDBRANCH   8  11
ENDBRANCH   2   5
BRANCH   1  19
HETATM   19  C   UNL     1     -40.473  53.506 -52.962  1.00  0.00     0.063 A 
HETATM   20  C   UNL     1     -40.137  52.114 -52.779  1.00  0.00     0.046 A 
HETATM   21  C   UNL     1     -39.908  51.004 -53.623  1.00  0.00     0.130 A 
HETATM   22  C   UNL     1     -40.054  51.880 -51.399  1.00  0.00     0.046 A 
HETATM   23  C   UNL     1     -39.622  49.741 -53.101  1.00  0.00     0.043 A 
HETATM   24  F   UNL     1     -39.956  51.139 -54.956  1.00  0.00    -0.205 F 
HETATM   25  C   UNL     1     -39.559  49.552 -51.726  1.00  0.00     0.005 A 
HETATM   26  C   UNL     1     -39.773  50.620 -50.850  1.00  0.00     0.030 A 
HETATM   27  N   UNL     1     -40.300  53.072 -50.766  1.00  0.00    -0.364 N 
HETATM   28  H   UNL     1     -40.311  53.202 -49.762  1.00  0.00     0.165 HD
HETATM   29  C   UNL     1     -40.550  54.048 -51.686  1.00  0.00     0.106 A 
ENDBRANCH   1  19
TORSDOF 3
ENDMDL
MODEL 6
REMARK VINA RESULT:      -7.9      5.440      6.625
REMARK  3 active torsions:
REMARK  status: ('A' for Active; 'I' for Inactive)
REMARK    1  A    between atoms: C_10  and  C_11 
REMARK       I    between atoms: C_11  and  N_12 
REMARK    2  A    between atoms: N_12  and  C_13 
REMARK    3  A    between atoms: C_16  and  N_17 
ROOT
HETATM    1  C   UNL     1     -40.899  54.832 -51.808  1.00  0.00     0.258 C 
HETATM    2  N   UNL     1     -41.388  55.901 -52.527  1.00  0.00    -0.322 N 
HETATM    3  O   UNL     1     -40.717  54.845 -50.594  1.00  0.00    -0.267 OA
HETATM    4  H   UNL     1     -41.422  55.801 -53.532  1.00  0.00     0.169 HD
ENDROOT
BRANCH   2   5
HETATM    5  C   UNL     1     -41.951  57.087 -52.014  1.00  0.00     0.052 A 
HETATM    6  C   UNL     1     -43.302  57.317 -51.801  1.00  0.00     0.148 A 
HETATM    7  N   UNL     1     -43.820  58.511 -51.404  1.00  0.00    -0.247 NA
HETATM    8  C   UNL     1     -42.985  59.550 -51.192  1.00  0.00     0.105 A 
HETATM    9  C   UNL     1     -41.609  59.383 -51.353  1.00  0.00     0.047 A 
HETATM   10  C   UNL     1     -41.092  58.149 -51.758  1.00  0.00     0.034 A 
BRANCH   8  11
HETATM   11  N   UNL     1     -43.520  60.813 -50.903  1.00  0.00    -0.258 NA
HETATM   12  C   UNL     1     -42.521  61.852 -50.559  1.00  0.00     0.199 C 
HETATM   13  C   UNL     1     -43.144  63.207 -50.169  1.00  0.00     0.231 C 
HETATM   14  O   UNL     1     -42.488  64.249 -50.160  1.00  0.00    -0.272 OA
HETATM   15  N   UNL     1     -44.447  63.229 -49.735  1.00  0.00    -0.359 N 
HETATM   16  C   UNL     1     -45.361  62.142 -50.020  1.00  0.00     0.137 C 
HETATM   17  H   UNL     1     -44.813  64.157 -49.567  1.00  0.00     0.162 HD
HETATM   18  C   UNL     1     -44.675  60.774 -49.991  1.00  0.00     0.117 C 
ENDBRANCH   8  11
ENDBRANCH   2   5
BRANCH   1  19
HETATM   19  C   UNL     1     -40.612  53.619 -52.592  1.00  0.00     0.063 A 
HETATM   20  C   UNL     1     -40.263  52.271 -52.211  1.00  0.00     0.046 A 
HETATM   21  C   UNL     1     -40.093  51.569 -50.997  1.00  0.00     0.130 A 
HETATM   22  C   UNL     1     -40.033  51.548 -53.390  1.00  0.00     0.046 A 
HETATM   23  C   UNL     1     -39.710  50.226 -50.982  1.00  0.00     0.043 A 
HETATM   24  F   UNL     1     -40.303  52.178 -49.821  1.00  0.00    -0.205 F 
HETATM   25  C   UNL     1     -39.483  49.551 -52.174  1.00  0.00     0.005 A 
HETATM   26  C   UNL     1     -39.642  50.201 -53.401  1.00  0.00     0.030 A 
HETATM   27  N   UNL     1     -40.254  52.400 -54.443  1.00  0.00    -0.364 N 
HETATM   28  H   UNL     1     -40.158  52.150 -55.419  1.00  0.00     0.165 HD
HETATM   29  C   UNL     1     -40.600  53.636 -53.980  1.00  0.00     0.106 A 
ENDBRANCH   1  19
TORSDOF 3
ENDMDL
MODEL 7
REMARK VINA RESULT:      -7.9      6.286      7.609
REMARK  3 active torsions:
REMARK  status: ('A' for Active; 'I' for Inactive)
REMARK    1  A    between atoms: C_10  and  C_11 
REMARK       I    between atoms: C_11  and  N_12 
REMARK    2  A    between atoms: N_12  and  C_13 
REMARK    3  A    between atoms: C_16  and  N_17 
ROOT
HETATM    1  C   UNL     1     -42.672  55.781 -51.797  1.00  0.00     0.258 C 
HETATM    2  N   UNL     1     -42.863  57.026 -52.354  1.00  0.00    -0.322 N 
HETATM    3  O   UNL     1     -42.830  55.529 -50.605  1.00  0.00    -0.267 OA
HETATM    4  H   UNL     1     -42.627  57.133 -53.332  1.00  0.00     0.169 HD
ENDROOT
BRANCH   2   5
HETATM    5  C   UNL     1     -43.453  58.152 -51.744  1.00  0.00     0.052 A 
HETATM    6  C   UNL     1     -42.776  59.263 -51.266  1.00  0.00     0.148 A 
HETATM    7  N   UNL     1     -43.367  60.284 -50.588  1.00  0.00    -0.247 NA
HETATM    8  C   UNL     1     -44.696  60.237 -50.360  1.00  0.00     0.105 A 
HETATM    9  C   UNL     1     -45.449  59.166 -50.842  1.00  0.00     0.047 A 
HETATM   10  C   UNL     1     -44.828  58.126 -51.539  1.00  0.00     0.034 A 
BRANCH   8  11
HETATM   11  N   UNL     1     -45.291  61.222 -49.558  1.00  0.00    -0.258 NA
HETATM   12  C   UNL     1     -45.606  60.795 -48.174  1.00  0.00     0.199 C 
HETATM   13  C   UNL     1     -46.331  61.872 -47.343  1.00  0.00     0.231 C 
HETATM   14  O   UNL     1     -46.389  61.820 -46.114  1.00  0.00    -0.272 OA
HETATM   15  N   UNL     1     -47.005  62.869 -48.006  1.00  0.00    -0.359 N 
HETATM   16  C   UNL     1     -46.722  63.186 -49.391  1.00  0.00     0.137 C 
HETATM   17  H   UNL     1     -47.394  63.581 -47.401  1.00  0.00     0.162 HD
HETATM   18  C   UNL     1     -46.389  61.944 -50.222  1.00  0.00     0.117 C 
ENDBRANCH   8  11
ENDBRANCH   2   5
BRANCH   1  19
HETATM   19  C   UNL     1     -42.274  54.720 -52.737  1.00  0.00     0.063 A 
HETATM   20  C   UNL     1     -41.304  53.654 -52.652  1.00  0.00     0.046 A 
HETATM   21  C   UNL     1     -40.401  53.177 -51.676  1.00  0.00     0.130 A 
HETATM   22  C   UNL     1     -41.305  52.987 -53.885  1.00  0.00     0.046 A 
HETATM   23  C   UNL     1     -39.551  52.100 -51.938  1.00  0.00     0.043 A 
HETATM   24  F   UNL     1     -40.340  53.747 -50.465  1.00  0.00    -0.205 F 
HETATM   25  C   UNL     1     -39.578  51.474 -53.178  1.00  0.00     0.005 A 
HETATM   26  C   UNL     1     -40.458  51.906 -54.174  1.00  0.00     0.030 A 
HETATM   27  N   UNL     1     -42.245  53.594 -54.679  1.00  0.00    -0.364 N 
HETATM   28  H   UNL     1     -42.460  53.324 -55.630  1.00  0.00     0.165 HD
HETATM   29  C   UNL     1     -42.829  54.627 -54.006  1.00  0.00     0.106 A 
ENDBRANCH   1  19
TORSDOF 3
ENDMDL
MODEL 8
REMARK VINA RESULT:      -7.9      4.864      5.733
REMARK  3 active torsions:
REMARK  status: ('A' for Active; 'I' for Inactive)
REMARK    1  A    between atoms: C_10  and  C_11 
REMARK       I    between atoms: C_11  and  N_12 
REMARK    2  A    between atoms: N_12  and  C_13 
REMARK    3  A    between atoms: C_16  and  N_17 
ROOT
HETATM    1  C   UNL     1     -41.232  55.025 -52.510  1.00  0.00     0.258 C 
HETATM    2  N   UNL     1     -42.291  55.534 -51.792  1.00  0.00    -0.322 N 
HETATM    3  O   UNL     1     -40.735  55.575 -53.489  1.00  0.00    -0.267 OA
HETATM    4  H   UNL     1     -42.666  54.955 -51.052  1.00  0.00     0.169 HD
ENDROOT
BRANCH   2   5
HETATM    5  C   UNL     1     -42.851  56.824 -51.898  1.00  0.00     0.052 A 
HETATM    6  C   UNL     1     -42.383  57.965 -51.265  1.00  0.00     0.148 A 
HETATM    7  N   UNL     1     -43.010  59.172 -51.306  1.00  0.00    -0.247 NA
HETATM    8  C   UNL     1     -44.158  59.291 -52.005  1.00  0.00     0.105 A 
HETATM    9  C   UNL     1     -44.671  58.194 -52.695  1.00  0.00     0.047 A 
HETATM   10  C   UNL     1     -44.014  56.961 -52.647  1.00  0.00     0.034 A 
BRANCH   8  11
HETATM   11  N   UNL     1     -44.874  60.496 -51.951  1.00  0.00    -0.258 NA
HETATM   12  C   UNL     1     -44.458  61.423 -50.872  1.00  0.00     0.199 C 
HETATM   13  C   UNL     1     -45.315  62.702 -50.789  1.00  0.00     0.231 C 
HETATM   14  O   UNL     1     -44.934  63.704 -50.182  1.00  0.00    -0.272 OA
HETATM   15  N   UNL     1     -46.574  62.685 -51.335  1.00  0.00    -0.359 N 
HETATM   16  C   UNL     1     -46.961  61.697 -52.322  1.00  0.00     0.137 C 
HETATM   17  H   UNL     1     -47.050  63.577 -51.309  1.00  0.00     0.162 HD
HETATM   18  C   UNL     1     -46.332  60.325 -52.059  1.00  0.00     0.117 C 
ENDBRANCH   8  11
ENDBRANCH   2   5
BRANCH   1  19
HETATM   19  C   UNL     1     -40.687  53.749 -52.017  1.00  0.00     0.063 A 
HETATM   20  C   UNL     1     -40.343  52.512 -52.679  1.00  0.00     0.046 A 
HETATM   21  C   UNL     1     -40.347  52.037 -54.009  1.00  0.00     0.130 A 
HETATM   22  C   UNL     1     -39.933  51.607 -51.691  1.00  0.00     0.046 A 
HETATM   23  C   UNL     1     -39.967  50.728 -54.314  1.00  0.00     0.043 A 
HETATM   24  F   UNL     1     -40.715  52.837 -55.020  1.00  0.00    -0.205 F 
HETATM   25  C   UNL     1     -39.576  49.861 -53.301  1.00  0.00     0.005 A 
HETATM   26  C   UNL     1     -39.550  50.286 -51.970  1.00  0.00     0.030 A 
HETATM   27  N   UNL     1     -39.995  52.259 -50.485  1.00  0.00    -0.364 N 
HETATM   28  H   UNL     1     -39.759  51.847 -49.591  1.00  0.00     0.165 HD
HETATM   29  C   UNL     1     -40.442  53.536 -50.667  1.00  0.00     0.106 A 
ENDBRANCH   1  19
TORSDOF 3
ENDMDL
MODEL 9
REMARK VINA RESULT:      -7.9      4.943      5.586
REMARK  3 active torsions:
REMARK  status: ('A' for Active; 'I' for Inactive)
REMARK    1  A    between atoms: C_10  and  C_11 
REMARK       I    between atoms: C_11  and  N_12 
REMARK    2  A    between atoms: N_12  and  C_13 
REMARK    3  A    between atoms: C_16  and  N_17 
ROOT
HETATM    1  C   UNL     1     -40.947  54.420 -50.965  1.00  0.00     0.258 C 
HETATM    2  N   UNL     1     -42.080  54.776 -51.663  1.00  0.00    -0.322 N 
HETATM    3  O   UNL     1     -40.327  55.179 -50.225  1.00  0.00    -0.267 OA
HETATM    4  H   UNL     1     -42.460  54.090 -52.302  1.00  0.00     0.169 HD
ENDROOT
BRANCH   2   5
HETATM    5  C   UNL     1     -42.840  55.953 -51.511  1.00  0.00     0.052 A 
HETATM    6  C   UNL     1     -44.042  56.060 -50.829  1.00  0.00     0.148 A 
HETATM    7  N   UNL     1     -44.801  57.188 -50.791  1.00  0.00    -0.247 NA
HETATM    8  C   UNL     1     -44.375  58.287 -51.448  1.00  0.00     0.105 A 
HETATM    9  C   UNL     1     -43.158  58.265 -52.129  1.00  0.00     0.047 A 
HETATM   10  C   UNL     1     -42.387  57.099 -52.155  1.00  0.00     0.034 A 
BRANCH   8  11
HETATM   11  N   UNL     1     -45.209  59.413 -51.518  1.00  0.00    -0.258 NA
HETATM   12  C   UNL     1     -45.376  59.985 -52.874  1.00  0.00     0.199 C 
HETATM   13  C   UNL     1     -46.232  61.267 -52.905  1.00  0.00     0.231 C 
HETATM   14  O   UNL     1     -46.731  61.693 -53.947  1.00  0.00    -0.272 OA
HETATM   15  N   UNL     1     -46.365  61.995 -51.749  1.00  0.00    -0.359 N 
HETATM   16  C   UNL     1     -46.099  61.413 -50.449  1.00  0.00     0.137 C 
HETATM   17  H   UNL     1     -46.997  62.781 -51.823  1.00  0.00     0.162 HD
HETATM   18  C   UNL     1     -44.935  60.418 -50.477  1.00  0.00     0.117 C 
ENDBRANCH   8  11
ENDBRANCH   2   5
BRANCH   1  19
HETATM   19  C   UNL     1     -40.507  53.025 -51.138  1.00  0.00     0.063 A 
HETATM   20  C   UNL     1     -40.205  52.234 -52.307  1.00  0.00     0.046 A 
HETATM   21  C   UNL     1     -40.169  52.454 -53.702  1.00  0.00     0.130 A 
HETATM   22  C   UNL     1     -39.903  50.937 -51.870  1.00  0.00     0.046 A 
HETATM   23  C   UNL     1     -39.853  51.426 -54.592  1.00  0.00     0.043 A 
HETATM   24  F   UNL     1     -40.434  53.667 -54.209  1.00  0.00    -0.205 F 
HETATM   25  C   UNL     1     -39.569  50.153 -54.115  1.00  0.00     0.005 A 
HETATM   26  C   UNL     1     -39.587  49.886 -52.744  1.00  0.00     0.030 A 
HETATM   27  N   UNL     1     -39.988  50.936 -50.500  1.00  0.00    -0.364 N 
HETATM   28  H   UNL     1     -39.824  50.129 -49.911  1.00  0.00     0.165 HD
HETATM   29  C   UNL     1     -40.346  52.174 -50.053  1.00  0.00     0.106 A 
ENDBRANCH   1  19
TORSDOF 3
ENDMDL
MODEL 10
REMARK VINA RESULT:      -7.7      2.004      2.279
REMARK  3 active torsions:
REMARK  status: ('A' for Active; 'I' for Inactive)
REMARK    1  A    between atoms: C_10  and  C_11 
REMARK       I    between atoms: C_11  and  N_12 
REMARK    2  A    between atoms: N_12  and  C_13 
REMARK    3  A    between atoms: C_16  and  N_17 
ROOT
HETATM    1  C   UNL     1     -41.028  54.755 -53.170  1.00  0.00     0.258 C 
HETATM    2  N   UNL     1     -42.007  54.456 -54.091  1.00  0.00    -0.322 N 
HETATM    3  O   UNL     1     -40.529  55.869 -53.032  1.00  0.00    -0.267 OA
HETATM    4  H   UNL     1     -42.287  53.488 -54.167  1.00  0.00     0.169 HD
ENDROOT
BRANCH   2   5
HETATM    5  C   UNL     1     -42.747  55.366 -54.875  1.00  0.00     0.052 A 
HETATM    6  C   UNL     1     -42.574  55.595 -56.231  1.00  0.00     0.148 A 
HETATM    7  N   UNL     1     -43.234  56.556 -56.933  1.00  0.00    -0.247 NA
HETATM    8  C   UNL     1     -44.121  57.344 -56.291  1.00  0.00     0.105 A 
HETATM    9  C   UNL     1     -44.372  57.149 -54.933  1.00  0.00     0.047 A 
HETATM   10  C   UNL     1     -43.689  56.156 -54.226  1.00  0.00     0.034 A 
BRANCH   8  11
HETATM   11  N   UNL     1     -44.713  58.414 -56.978  1.00  0.00    -0.258 NA
HETATM   12  C   UNL     1     -45.420  59.393 -56.121  1.00  0.00     0.199 C 
HETATM   13  C   UNL     1     -46.127  60.512 -56.911  1.00  0.00     0.231 C 
HETATM   14  O   UNL     1     -46.486  61.562 -56.376  1.00  0.00    -0.272 OA
HETATM   15  N   UNL     1     -46.439  60.289 -58.230  1.00  0.00    -0.359 N 
HETATM   16  C   UNL     1     -45.781  59.253 -59.000  1.00  0.00     0.137 C 
HETATM   17  H   UNL     1     -46.833  61.090 -58.705  1.00  0.00     0.162 HD
HETATM   18  C   UNL     1     -45.477  58.004 -58.169  1.00  0.00     0.117 C 
ENDBRANCH   8  11
ENDBRANCH   2   5
BRANCH   1  19
HETATM   19  C   UNL     1     -40.606  53.638 -52.308  1.00  0.00     0.063 A 
HETATM   20  C   UNL     1     -40.215  52.278 -52.594  1.00  0.00     0.046 A 
HETATM   21  C   UNL     1     -40.045  51.492 -53.755  1.00  0.00     0.130 A 
HETATM   22  C   UNL     1     -39.983  51.641 -51.367  1.00  0.00     0.046 A 
HETATM   23  C   UNL     1     -39.671  50.149 -53.675  1.00  0.00     0.043 A 
HETATM   24  F   UNL     1     -40.234  52.022 -54.972  1.00  0.00    -0.205 F 
HETATM   25  C   UNL     1     -39.461  49.555 -52.437  1.00  0.00     0.005 A 
HETATM   26  C   UNL     1     -39.612  50.293 -51.259  1.00  0.00     0.030 A 
HETATM   27  N   UNL     1     -40.195  52.568 -50.377  1.00  0.00    -0.364 N 
HETATM   28  H   UNL     1     -40.105  52.387 -49.386  1.00  0.00     0.165 HD
HETATM   29  C   UNL     1     -40.566  53.761 -50.926  1.00  0.00     0.106 A 
ENDBRANCH   1  19
TORSDOF 3
ENDMDL
