MODEL 1
REMARK VINA RESULT:      -8.3      0.000      0.000
REMARK  6 active torsions:
REMARK  status: ('A' for Active; 'I' for Inactive)
REMARK    1  A    between atoms: C_8  and  N_9 
REMARK       I    between atoms: N_9  and  C_10 
REMARK    2  A    between atoms: C_10  and  C_11 
REMARK    3  A    between atoms: C_11  and  N_12 
REMARK    4  A    between atoms: N_12  and  C_15 
REMARK    5  A    between atoms: C_15  and  C_16 
REMARK    6  A    between atoms: C_15  and  C_22 
ROOT
HETATM    1  N   UNL     1     -40.924  53.490 -51.158  1.00  0.00    -0.055 N 
HETATM    2  H   UNL     1     -41.085  52.553 -50.786  1.00  0.00     0.278 HD
HETATM    3  H   UNL     1     -41.837  53.956 -51.267  1.00  0.00     0.278 HD
ENDROOT
BRANCH   1   4
HETATM    4  C   UNL     1     -40.130  54.310 -50.169  1.00  0.00     0.336 C 
BRANCH   4   5
HETATM    5  C   UNL     1     -40.844  55.615 -49.817  1.00  0.00     0.248 C 
HETATM    6  N   UNL     1     -40.983  56.477 -50.878  1.00  0.00    -0.322 N 
HETATM    7  H   UNL     1     -40.622  56.213 -51.788  1.00  0.00     0.169 HD
HETATM    8  O   UNL     1     -41.221  55.768 -48.659  1.00  0.00    -0.271 OA
BRANCH   6   9
HETATM    9  C   UNL     1     -41.588  57.727 -50.858  1.00  0.00     0.085 A 
HETATM   10  C   UNL     1     -42.947  57.868 -51.085  1.00  0.00     0.052 A 
HETATM   11  C   UNL     1     -44.029  56.897 -51.381  1.00  0.00     0.072 C 
HETATM   12  N   UNL     1     -43.206  59.207 -50.996  1.00  0.00    -0.280 N 
HETATM   13  H   UNL     1     -44.093  59.688 -51.110  1.00  0.00     0.189 HD
HETATM   14  N   UNL     1     -42.127  59.941 -50.724  1.00  0.00    -0.177 NA
HETATM   15  C   UNL     1     -41.122  59.059 -50.644  1.00  0.00     0.079 A 
HETATM   16  C   UNL     1     -39.765  59.591 -50.366  1.00  0.00     0.075 C 
ENDBRANCH   6   9
ENDBRANCH   4   5
ENDBRANCH   1   4
BRANCH   1  17
HETATM   17  C   UNL     1     -40.359  53.386 -52.550  1.00  0.00     0.252 C 
BRANCH  17  18
HETATM   18  C   UNL     1     -40.032  51.947 -52.911  1.00  0.00    -0.023 A 
HETATM   19  C   UNL     1     -40.135  51.472 -54.230  1.00  0.00     0.009 A 
HETATM   20  C   UNL     1     -39.867  50.134 -54.525  1.00  0.00     0.001 A 
HETATM   21  C   UNL     1     -39.498  49.253 -53.511  1.00  0.00     0.000 A 
HETATM   22  C   UNL     1     -39.388  49.709 -52.199  1.00  0.00     0.001 A 
HETATM   23  C   UNL     1     -39.651  51.046 -51.899  1.00  0.00     0.009 A 
ENDBRANCH  17  18
BRANCH  17  24
HETATM   24  C   UNL     1     -41.235  54.082 -53.587  1.00  0.00    -0.023 A 
HETATM   25  C   UNL     1     -42.633  54.037 -53.430  1.00  0.00     0.009 A 
HETATM   26  C   UNL     1     -43.479  54.668 -54.344  1.00  0.00     0.001 A 
HETATM   27  C   UNL     1     -42.945  55.357 -55.427  1.00  0.00     0.000 A 
HETATM   28  C   UNL     1     -41.565  55.424 -55.595  1.00  0.00     0.001 A 
HETATM   29  C   UNL     1     -40.713  54.796 -54.681  1.00  0.00     0.009 A 
ENDBRANCH  17  24
ENDBRANCH   1  17
TORSDOF 6
ENDMDL
MODEL 2
REMARK VINA RESULT:      -8.1      3.751      6.536
REMARK  6 active torsions:
REMARK  status: ('A' for Active; 'I' for Inactive)
REMARK    1  A    between atoms: C_8  and  N_9 
REMARK       I    between atoms: N_9  and  C_10 
REMARK    2  A    between atoms: C_10  and  C_11 
REMARK    3  A    between atoms: C_11  and  N_12 
REMARK    4  A    between atoms: N_12  and  C_15 
REMARK    5  A    between atoms: C_15  and  C_16 
REMARK    6  A    between atoms: C_15  and  C_22 
ROOT
HETATM    1  N   UNL     1     -41.238  53.923 -54.779  1.00  0.00    -0.055 N 
HETATM    2  H   UNL     1     -42.210  53.612 -54.758  1.00  0.00     0.278 HD
HETATM    3  H   UNL     1     -40.721  53.322 -55.440  1.00  0.00     0.278 HD
ENDROOT
BRANCH   1   4
HETATM    4  C   UNL     1     -41.155  55.332 -55.314  1.00  0.00     0.336 C 
BRANCH   4   5
HETATM    5  C   UNL     1     -42.475  55.774 -55.946  1.00  0.00     0.248 C 
HETATM    6  N   UNL     1     -42.359  56.169 -57.257  1.00  0.00    -0.322 N 
HETATM    7  H   UNL     1     -41.451  56.147 -57.708  1.00  0.00     0.169 HD
HETATM    8  O   UNL     1     -43.486  55.733 -55.251  1.00  0.00    -0.271 OA
BRANCH   6   9
HETATM    9  C   UNL     1     -43.382  56.615 -58.083  1.00  0.00     0.085 A 
HETATM   10  C   UNL     1     -43.813  57.931 -58.041  1.00  0.00     0.052 A 
HETATM   11  C   UNL     1     -43.400  59.106 -57.236  1.00  0.00     0.072 C 
HETATM   12  N   UNL     1     -44.816  58.027 -58.964  1.00  0.00    -0.280 N 
HETATM   13  H   UNL     1     -45.374  58.841 -59.210  1.00  0.00     0.189 HD
HETATM   14  N   UNL     1     -45.065  56.884 -59.603  1.00  0.00    -0.177 NA
HETATM   15  C   UNL     1     -44.206  56.002 -59.074  1.00  0.00     0.079 A 
HETATM   16  C   UNL     1     -44.259  54.608 -59.580  1.00  0.00     0.075 C 
ENDBRANCH   6   9
ENDBRANCH   4   5
ENDBRANCH   1   4
BRANCH   1  17
HETATM   17  C   UNL     1     -40.604  53.676 -53.435  1.00  0.00     0.252 C 
BRANCH  17  18
HETATM   18  C   UNL     1     -41.448  54.247 -52.309  1.00  0.00    -0.023 A 
HETATM   19  C   UNL     1     -40.904  55.099 -51.333  1.00  0.00     0.009 A 
HETATM   20  C   UNL     1     -41.695  55.577 -50.287  1.00  0.00     0.001 A 
HETATM   21  C   UNL     1     -43.036  55.208 -50.198  1.00  0.00     0.000 A 
HETATM   22  C   UNL     1     -43.591  54.367 -51.159  1.00  0.00     0.001 A 
HETATM   23  C   UNL     1     -42.806  53.890 -52.209  1.00  0.00     0.009 A 
ENDBRANCH  17  18
BRANCH  17  24
HETATM   24  C   UNL     1     -40.235  52.210 -53.227  1.00  0.00    -0.023 A 
HETATM   25  C   UNL     1     -40.339  51.326 -54.316  1.00  0.00     0.009 A 
HETATM   26  C   UNL     1     -40.003  49.977 -54.181  1.00  0.00     0.001 A 
HETATM   27  C   UNL     1     -39.553  49.490 -52.959  1.00  0.00     0.000 A 
HETATM   28  C   UNL     1     -39.431  50.350 -51.872  1.00  0.00     0.001 A 
HETATM   29  C   UNL     1     -39.765  51.702 -52.002  1.00  0.00     0.009 A 
ENDBRANCH  17  24
ENDBRANCH   1  17
TORSDOF 6
ENDMDL
MODEL 3
REMARK VINA RESULT:      -8.0      4.145      6.734
REMARK  6 active torsions:
REMARK  status: ('A' for Active; 'I' for Inactive)
REMARK    1  A    between atoms: C_8  and  N_9 
REMARK       I    between atoms: N_9  and  C_10 
REMARK    2  A    between atoms: C_10  and  C_11 
REMARK    3  A    between atoms: C_11  and  N_12 
REMARK    4  A    between atoms: N_12  and  C_15 
REMARK    5  A    between atoms: C_15  and  C_16 
REMARK    6  A    between atoms: C_15  and  C_22 
ROOT
HETATM    1  N   UNL     1     -40.998  54.516 -55.227  1.00  0.00    -0.055 N 
HETATM    2  H   UNL     1     -40.514  53.878 -55.861  1.00  0.00     0.278 HD
HETATM    3  H   UNL     1     -40.674  55.475 -55.422  1.00  0.00     0.278 HD
ENDROOT
BRANCH   1   4
HETATM    4  C   UNL     1     -42.482  54.491 -55.503  1.00  0.00     0.336 C 
BRANCH   4   5
HETATM    5  C   UNL     1     -42.908  55.651 -56.402  1.00  0.00     0.248 C 
HETATM    6  N   UNL     1     -42.816  55.376 -57.746  1.00  0.00    -0.322 N 
HETATM    7  H   UNL     1     -42.486  54.467 -58.049  1.00  0.00     0.169 HD
HETATM    8  O   UNL     1     -43.287  56.686 -55.863  1.00  0.00    -0.271 OA
BRANCH   6   9
HETATM    9  C   UNL     1     -43.135  56.232 -58.791  1.00  0.00     0.085 A 
HETATM   10  C   UNL     1     -43.994  55.836 -59.803  1.00  0.00     0.052 A 
HETATM   11  C   UNL     1     -44.733  54.578 -60.069  1.00  0.00     0.072 C 
HETATM   12  N   UNL     1     -44.087  56.901 -60.655  1.00  0.00    -0.280 N 
HETATM   13  H   UNL     1     -44.625  56.979 -61.514  1.00  0.00     0.189 HD
HETATM   14  N   UNL     1     -43.365  57.954 -60.273  1.00  0.00    -0.177 NA
HETATM   15  C   UNL     1     -42.765  57.566 -59.139  1.00  0.00     0.079 A 
HETATM   16  C   UNL     1     -41.861  58.538 -58.477  1.00  0.00     0.075 C 
ENDBRANCH   6   9
ENDBRANCH   4   5
ENDBRANCH   1   4
BRANCH   1  17
HETATM   17  C   UNL     1     -40.573  54.231 -53.810  1.00  0.00     0.252 C 
BRANCH  17  18
HETATM   18  C   UNL     1     -41.561  54.804 -52.808  1.00  0.00    -0.023 A 
HETATM   19  C   UNL     1     -41.513  56.150 -52.407  1.00  0.00     0.009 A 
HETATM   20  C   UNL     1     -42.409  56.638 -51.453  1.00  0.00     0.001 A 
HETATM   21  C   UNL     1     -43.359  55.791 -50.887  1.00  0.00     0.000 A 
HETATM   22  C   UNL     1     -43.422  54.456 -51.277  1.00  0.00     0.001 A 
HETATM   23  C   UNL     1     -42.531  53.964 -52.231  1.00  0.00     0.009 A 
ENDBRANCH  17  18
BRANCH  17  24
HETATM   24  C   UNL     1     -40.269  52.754 -53.579  1.00  0.00    -0.023 A 
HETATM   25  C   UNL     1     -39.771  52.355 -52.325  1.00  0.00     0.009 A 
HETATM   26  C   UNL     1     -39.487  51.015 -52.058  1.00  0.00     0.001 A 
HETATM   27  C   UNL     1     -39.700  50.049 -53.036  1.00  0.00     0.000 A 
HETATM   28  C   UNL     1     -40.204  50.421 -54.279  1.00  0.00     0.001 A 
HETATM   29  C   UNL     1     -40.491  51.762 -54.551  1.00  0.00     0.009 A 
ENDBRANCH  17  24
ENDBRANCH   1  17
TORSDOF 6
ENDMDL
MODEL 4
REMARK VINA RESULT:      -7.7      4.121      6.265
REMARK  6 active torsions:
REMARK  status: ('A' for Active; 'I' for Inactive)
REMARK    1  A    between atoms: C_8  and  N_9 
REMARK       I    between atoms: N_9  and  C_10 
REMARK    2  A    between atoms: C_10  and  C_11 
REMARK    3  A    between atoms: C_11  and  N_12 
REMARK    4  A    between atoms: N_12  and  C_15 
REMARK    5  A    between atoms: C_15  and  C_16 
REMARK    6  A    between atoms: C_15  and  C_22 
ROOT
HETATM    1  N   UNL     1     -43.680  54.838 -53.866  1.00  0.00    -0.055 N 
HETATM    2  H   UNL     1     -44.598  54.495 -53.581  1.00  0.00     0.278 HD
HETATM    3  H   UNL     1     -43.252  54.138 -54.490  1.00  0.00     0.278 HD
ENDROOT
BRANCH   1   4
HETATM    4  C   UNL     1     -43.827  56.108 -54.669  1.00  0.00     0.336 C 
BRANCH   4   5
HETATM    5  C   UNL     1     -43.175  55.983 -56.046  1.00  0.00     0.248 C 
HETATM    6  N   UNL     1     -43.915  56.535 -57.065  1.00  0.00    -0.322 N 
HETATM    7  H   UNL     1     -44.807  56.970 -56.856  1.00  0.00     0.169 HD
HETATM    8  O   UNL     1     -42.083  55.427 -56.115  1.00  0.00    -0.271 OA
BRANCH   6   9
HETATM    9  C   UNL     1     -43.575  56.574 -58.410  1.00  0.00     0.085 A 
HETATM   10  C   UNL     1     -42.814  57.609 -58.926  1.00  0.00     0.052 A 
HETATM   11  C   UNL     1     -42.212  58.822 -58.321  1.00  0.00     0.072 C 
HETATM   12  N   UNL     1     -42.669  57.341 -60.259  1.00  0.00    -0.280 N 
HETATM   13  H   UNL     1     -42.175  57.882 -60.963  1.00  0.00     0.189 HD
HETATM   14  N   UNL     1     -43.269  56.214 -60.644  1.00  0.00    -0.177 NA
HETATM   15  C   UNL     1     -43.838  55.731 -59.531  1.00  0.00     0.079 A 
HETATM   16  C   UNL     1     -44.610  54.470 -59.651  1.00  0.00     0.075 C 
ENDBRANCH   6   9
ENDBRANCH   4   5
ENDBRANCH   1   4
BRANCH   1  17
HETATM   17  C   UNL     1     -42.776  54.906 -52.663  1.00  0.00     0.252 C 
BRANCH  17  18
HETATM   18  C   UNL     1     -41.721  53.813 -52.698  1.00  0.00    -0.023 A 
HETATM   19  C   UNL     1     -40.939  53.501 -51.573  1.00  0.00     0.009 A 
HETATM   20  C   UNL     1     -39.949  52.520 -51.647  1.00  0.00     0.001 A 
HETATM   21  C   UNL     1     -39.723  51.842 -52.843  1.00  0.00     0.000 A 
HETATM   22  C   UNL     1     -40.492  52.136 -53.966  1.00  0.00     0.001 A 
HETATM   23  C   UNL     1     -41.485  53.114 -53.896  1.00  0.00     0.009 A 
ENDBRANCH  17  18
BRANCH  17  24
HETATM   24  C   UNL     1     -42.193  56.299 -52.451  1.00  0.00    -0.023 A 
HETATM   25  C   UNL     1     -42.772  57.133 -51.476  1.00  0.00     0.009 A 
HETATM   26  C   UNL     1     -42.269  58.413 -51.235  1.00  0.00     0.001 A 
HETATM   27  C   UNL     1     -41.178  58.881 -51.960  1.00  0.00     0.000 A 
HETATM   28  C   UNL     1     -40.583  58.068 -52.920  1.00  0.00     0.001 A 
HETATM   29  C   UNL     1     -41.081  56.785 -53.164  1.00  0.00     0.009 A 
ENDBRANCH  17  24
ENDBRANCH   1  17
TORSDOF 6
ENDMDL
MODEL 5
REMARK VINA RESULT:      -7.7      3.041      5.563
REMARK  6 active torsions:
REMARK  status: ('A' for Active; 'I' for Inactive)
REMARK    1  A    between atoms: C_8  and  N_9 
REMARK       I    between atoms: N_9  and  C_10 
REMARK    2  A    between atoms: C_10  and  C_11 
REMARK    3  A    between atoms: C_11  and  N_12 
REMARK    4  A    between atoms: N_12  and  C_15 
REMARK    5  A    between atoms: C_15  and  C_16 
REMARK    6  A    between atoms: C_15  and  C_22 
ROOT
HETATM    1  N   UNL     1     -41.034  54.271 -54.979  1.00  0.00    -0.055 N 
HETATM    2  H   UNL     1     -40.689  53.561 -55.627  1.00  0.00     0.278 HD
HETATM    3  H   UNL     1     -40.593  55.172 -55.220  1.00  0.00     0.278 HD
ENDROOT
BRANCH   1   4
HETATM    4  C   UNL     1     -42.522  54.453 -55.156  1.00  0.00     0.336 C 
BRANCH   4   5
HETATM    5  C   UNL     1     -42.871  55.885 -55.562  1.00  0.00     0.248 C 
HETATM    6  N   UNL     1     -44.099  56.308 -55.111  1.00  0.00    -0.322 N 
HETATM    7  H   UNL     1     -44.674  55.678 -54.562  1.00  0.00     0.169 HD
HETATM    8  O   UNL     1     -42.050  56.509 -56.227  1.00  0.00    -0.271 OA
BRANCH   6   9
HETATM    9  C   UNL     1     -44.676  57.553 -55.321  1.00  0.00     0.085 A 
HETATM   10  C   UNL     1     -44.956  58.400 -54.262  1.00  0.00     0.052 A 
HETATM   11  C   UNL     1     -44.770  58.283 -52.796  1.00  0.00     0.072 C 
HETATM   12  N   UNL     1     -45.512  59.520 -54.814  1.00  0.00    -0.280 N 
HETATM   13  H   UNL     1     -45.848  60.357 -54.345  1.00  0.00     0.189 HD
HETATM   14  N   UNL     1     -45.608  59.468 -56.143  1.00  0.00    -0.177 NA
HETATM   15  C   UNL     1     -45.111  58.269 -56.476  1.00  0.00     0.079 A 
HETATM   16  C   UNL     1     -45.105  57.908 -57.916  1.00  0.00     0.075 C 
ENDBRANCH   6   9
ENDBRANCH   4   5
ENDBRANCH   1   4
BRANCH   1  17
HETATM   17  C   UNL     1     -40.557  53.952 -53.586  1.00  0.00     0.252 C 
BRANCH  17  18
HETATM   18  C   UNL     1     -41.506  54.502 -52.535  1.00  0.00    -0.023 A 
HETATM   19  C   UNL     1     -42.619  53.771 -52.086  1.00  0.00     0.009 A 
HETATM   20  C   UNL     1     -43.496  54.318 -51.148  1.00  0.00     0.001 A 
HETATM   21  C   UNL     1     -43.277  55.600 -50.649  1.00  0.00     0.000 A 
HETATM   22  C   UNL     1     -42.176  56.336 -51.080  1.00  0.00     0.001 A 
HETATM   23  C   UNL     1     -41.295  55.793 -52.015  1.00  0.00     0.009 A 
ENDBRANCH  17  18
BRANCH  17  24
HETATM   24  C   UNL     1     -40.247  52.470 -53.402  1.00  0.00    -0.023 A 
HETATM   25  C   UNL     1     -39.768  52.030 -52.155  1.00  0.00     0.009 A 
HETATM   26  C   UNL     1     -39.479  50.682 -51.930  1.00  0.00     0.001 A 
HETATM   27  C   UNL     1     -39.669  49.751 -52.946  1.00  0.00     0.000 A 
HETATM   28  C   UNL     1     -40.154  50.163 -54.183  1.00  0.00     0.001 A 
HETATM   29  C   UNL     1     -40.446  51.511 -54.412  1.00  0.00     0.009 A 
ENDBRANCH  17  24
ENDBRANCH   1  17
TORSDOF 6
ENDMDL
MODEL 6
REMARK VINA RESULT:      -7.5      4.510      6.552
REMARK  6 active torsions:
REMARK  status: ('A' for Active; 'I' for Inactive)
REMARK    1  A    between atoms: C_8  and  N_9 
REMARK       I    between atoms: N_9  and  C_10 
REMARK    2  A    between atoms: C_10  and  C_11 
REMARK    3  A    between atoms: C_11  and  N_12 
REMARK    4  A    between atoms: N_12  and  C_15 
REMARK    5  A    between atoms: C_15  and  C_16 
REMARK    6  A    between atoms: C_15  and  C_22 
ROOT
HETATM    1  N   UNL     1     -41.614  55.125 -55.517  1.00  0.00    -0.055 N 
HETATM    2  H   UNL     1     -40.865  54.513 -55.844  1.00  0.00     0.278 HD
HETATM    3  H   UNL     1     -41.306  56.103 -55.631  1.00  0.00     0.278 HD
ENDROOT
BRANCH   1   4
HETATM    4  C   UNL     1     -42.840  54.951 -56.381  1.00  0.00     0.336 C 
BRANCH   4   5
HETATM    5  C   UNL     1     -43.224  56.252 -57.086  1.00  0.00     0.248 C 
HETATM    6  N   UNL     1     -43.794  56.067 -58.323  1.00  0.00    -0.322 N 
HETATM    7  H   UNL     1     -43.920  55.127 -58.680  1.00  0.00     0.169 HD
HETATM    8  O   UNL     1     -43.002  57.308 -56.502  1.00  0.00    -0.271 OA
BRANCH   6   9
HETATM    9  C   UNL     1     -44.242  57.058 -59.186  1.00  0.00     0.085 A 
HETATM   10  C   UNL     1     -43.370  57.710 -60.042  1.00  0.00     0.052 A 
HETATM   11  C   UNL     1     -41.911  57.592 -60.282  1.00  0.00     0.072 C 
HETATM   12  N   UNL     1     -44.128  58.611 -60.736  1.00  0.00    -0.280 N 
HETATM   13  H   UNL     1     -43.831  59.270 -61.450  1.00  0.00     0.189 HD
HETATM   14  N   UNL     1     -45.419  58.591 -60.403  1.00  0.00    -0.177 NA
HETATM   15  C   UNL     1     -45.512  57.654 -59.449  1.00  0.00     0.079 A 
HETATM   16  C   UNL     1     -46.851  57.414 -58.856  1.00  0.00     0.075 C 
ENDBRANCH   6   9
ENDBRANCH   4   5
ENDBRANCH   1   4
BRANCH   1  17
HETATM   17  C   UNL     1     -41.804  54.937 -54.035  1.00  0.00     0.252 C 
BRANCH  17  18
HETATM   18  C   UNL     1     -40.964  53.786 -53.509  1.00  0.00    -0.023 A 
HETATM   19  C   UNL     1     -40.518  52.750 -54.347  1.00  0.00     0.009 A 
HETATM   20  C   UNL     1     -39.781  51.684 -53.827  1.00  0.00     0.001 A 
HETATM   21  C   UNL     1     -39.484  51.636 -52.467  1.00  0.00     0.000 A 
HETATM   22  C   UNL     1     -39.914  52.658 -51.624  1.00  0.00     0.001 A 
HETATM   23  C   UNL     1     -40.648  53.727 -52.139  1.00  0.00     0.009 A 
ENDBRANCH  17  18
BRANCH  17  24
HETATM   24  C   UNL     1     -41.608  56.232 -53.254  1.00  0.00    -0.023 A 
HETATM   25  C   UNL     1     -40.682  57.177 -53.734  1.00  0.00     0.009 A 
HETATM   26  C   UNL     1     -40.472  58.383 -53.063  1.00  0.00     0.001 A 
HETATM   27  C   UNL     1     -41.187  58.669 -51.904  1.00  0.00     0.000 A 
HETATM   28  C   UNL     1     -42.116  57.754 -51.419  1.00  0.00     0.001 A 
HETATM   29  C   UNL     1     -42.331  56.545 -52.088  1.00  0.00     0.009 A 
ENDBRANCH  17  24
ENDBRANCH   1  17
TORSDOF 6
ENDMDL
MODEL 7
REMARK VINA RESULT:      -7.4      3.962      5.416
REMARK  6 active torsions:
REMARK  status: ('A' for Active; 'I' for Inactive)
REMARK    1  A    between atoms: C_8  and  N_9 
REMARK       I    between atoms: N_9  and  C_10 
REMARK    2  A    between atoms: C_10  and  C_11 
REMARK    3  A    between atoms: C_11  and  N_12 
REMARK    4  A    between atoms: N_12  and  C_15 
REMARK    5  A    between atoms: C_15  and  C_16 
REMARK    6  A    between atoms: C_15  and  C_22 
ROOT
HETATM    1  N   UNL     1     -41.590  54.808 -55.580  1.00  0.00    -0.055 N 
HETATM    2  H   UNL     1     -41.031  54.032 -55.935  1.00  0.00     0.278 HD
HETATM    3  H   UNL     1     -41.010  55.661 -55.599  1.00  0.00     0.278 HD
ENDROOT
BRANCH   1   4
HETATM    4  C   UNL     1     -42.765  55.061 -56.493  1.00  0.00     0.336 C 
BRANCH   4   5
HETATM    5  C   UNL     1     -43.029  56.555 -56.675  1.00  0.00     0.248 C 
HETATM    6  N   UNL     1     -42.092  57.196 -57.451  1.00  0.00    -0.322 N 
HETATM    7  H   UNL     1     -41.318  56.668 -57.838  1.00  0.00     0.169 HD
HETATM    8  O   UNL     1     -44.023  57.032 -56.135  1.00  0.00    -0.271 OA
BRANCH   6   9
HETATM    9  C   UNL     1     -42.075  58.542 -57.787  1.00  0.00     0.085 A 
HETATM   10  C   UNL     1     -42.032  58.949 -59.111  1.00  0.00     0.052 A 
HETATM   11  C   UNL     1     -41.992  58.209 -60.396  1.00  0.00     0.072 C 
HETATM   12  N   UNL     1     -42.024  60.315 -59.084  1.00  0.00    -0.280 N 
HETATM   13  H   UNL     1     -41.991  60.963 -59.867  1.00  0.00     0.189 HD
HETATM   14  N   UNL     1     -42.065  60.825 -57.853  1.00  0.00    -0.177 NA
HETATM   15  C   UNL     1     -42.087  59.759 -57.041  1.00  0.00     0.079 A 
HETATM   16  C   UNL     1     -42.114  60.013 -55.579  1.00  0.00     0.075 C 
ENDBRANCH   6   9
ENDBRANCH   4   5
ENDBRANCH   1   4
BRANCH   1  17
HETATM   17  C   UNL     1     -41.908  54.574 -54.126  1.00  0.00     0.252 C 
BRANCH  17  18
HETATM   18  C   UNL     1     -41.000  53.516 -53.523  1.00  0.00    -0.023 A 
HETATM   19  C   UNL     1     -40.430  52.496 -54.303  1.00  0.00     0.009 A 
HETATM   20  C   UNL     1     -39.632  51.513 -53.713  1.00  0.00     0.001 A 
HETATM   21  C   UNL     1     -39.397  51.533 -52.340  1.00  0.00     0.000 A 
HETATM   22  C   UNL     1     -39.950  52.540 -51.554  1.00  0.00     0.001 A 
HETATM   23  C   UNL     1     -40.746  53.527 -52.139  1.00  0.00     0.009 A 
ENDBRANCH  17  18
BRANCH  17  24
HETATM   24  C   UNL     1     -41.940  55.870 -53.322  1.00  0.00    -0.023 A 
HETATM   25  C   UNL     1     -43.015  56.092 -52.442  1.00  0.00     0.009 A 
HETATM   26  C   UNL     1     -43.086  57.256 -51.674  1.00  0.00     0.001 A 
HETATM   27  C   UNL     1     -42.084  58.216 -51.769  1.00  0.00     0.000 A 
HETATM   28  C   UNL     1     -41.006  58.010 -52.624  1.00  0.00     0.001 A 
HETATM   29  C   UNL     1     -40.928  56.845 -53.393  1.00  0.00     0.009 A 
ENDBRANCH  17  24
ENDBRANCH   1  17
TORSDOF 6
ENDMDL
MODEL 8
REMARK VINA RESULT:      -7.3      4.215      5.939
REMARK  6 active torsions:
REMARK  status: ('A' for Active; 'I' for Inactive)
REMARK    1  A    between atoms: C_8  and  N_9 
REMARK       I    between atoms: N_9  and  C_10 
REMARK    2  A    between atoms: C_10  and  C_11 
REMARK    3  A    between atoms: C_11  and  N_12 
REMARK    4  A    between atoms: N_12  and  C_15 
REMARK    5  A    between atoms: C_15  and  C_16 
REMARK    6  A    between atoms: C_15  and  C_22 
ROOT
HETATM    1  N   UNL     1     -41.622  55.292 -55.650  1.00  0.00    -0.055 N 
HETATM    2  H   UNL     1     -40.834  54.701 -55.917  1.00  0.00     0.278 HD
HETATM    3  H   UNL     1     -41.330  56.278 -55.732  1.00  0.00     0.278 HD
ENDROOT
BRANCH   1   4
HETATM    4  C   UNL     1     -42.767  55.095 -56.613  1.00  0.00     0.336 C 
BRANCH   4   5
HETATM    5  C   UNL     1     -43.028  56.350 -57.445  1.00  0.00     0.248 C 
HETATM    6  N   UNL     1     -42.101  57.347 -57.254  1.00  0.00    -0.322 N 
HETATM    7  H   UNL     1     -41.337  57.201 -56.604  1.00  0.00     0.169 HD
HETATM    8  O   UNL     1     -44.005  56.353 -58.188  1.00  0.00    -0.271 OA
BRANCH   6   9
HETATM    9  C   UNL     1     -42.081  58.590 -57.872  1.00  0.00     0.085 A 
HETATM   10  C   UNL     1     -42.144  59.759 -57.131  1.00  0.00     0.052 A 
HETATM   11  C   UNL     1     -42.241  60.031 -55.676  1.00  0.00     0.072 C 
HETATM   12  N   UNL     1     -42.105  60.781 -58.037  1.00  0.00    -0.280 N 
HETATM   13  H   UNL     1     -42.134  61.782 -57.864  1.00  0.00     0.189 HD
HETATM   14  N   UNL     1     -42.016  60.369 -59.302  1.00  0.00    -0.177 NA
HETATM   15  C   UNL     1     -42.009  59.031 -59.227  1.00  0.00     0.079 A 
HETATM   16  C   UNL     1     -41.938  58.275 -60.502  1.00  0.00     0.075 C 
ENDBRANCH   6   9
ENDBRANCH   4   5
ENDBRANCH   1   4
BRANCH   1  17
HETATM   17  C   UNL     1     -41.930  55.087 -54.190  1.00  0.00     0.252 C 
BRANCH  17  18
HETATM   18  C   UNL     1     -41.144  53.921 -53.615  1.00  0.00    -0.023 A 
HETATM   19  C   UNL     1     -40.798  53.859 -52.254  1.00  0.00     0.009 A 
HETATM   20  C   UNL     1     -40.040  52.795 -51.762  1.00  0.00     0.001 A 
HETATM   21  C   UNL     1     -39.614  51.783 -52.620  1.00  0.00     0.000 A 
HETATM   22  C   UNL     1     -39.952  51.827 -53.970  1.00  0.00     0.001 A 
HETATM   23  C   UNL     1     -40.713  52.886 -54.466  1.00  0.00     0.009 A 
ENDBRANCH  17  18
BRANCH  17  24
HETATM   24  C   UNL     1     -41.782  56.370 -53.378  1.00  0.00    -0.023 A 
HETATM   25  C   UNL     1     -40.663  57.191 -53.610  1.00  0.00     0.009 A 
HETATM   26  C   UNL     1     -40.487  58.382 -52.902  1.00  0.00     0.001 A 
HETATM   27  C   UNL     1     -41.426  58.775 -51.955  1.00  0.00     0.000 A 
HETATM   28  C   UNL     1     -42.546  57.983 -51.719  1.00  0.00     0.001 A 
HETATM   29  C   UNL     1     -42.729  56.791 -52.426  1.00  0.00     0.009 A 
ENDBRANCH  17  24
ENDBRANCH   1  17
TORSDOF 6
ENDMDL
MODEL 9
REMARK VINA RESULT:      -7.3      3.842      6.457
REMARK  6 active torsions:
REMARK  status: ('A' for Active; 'I' for Inactive)
REMARK    1  A    between atoms: C_8  and  N_9 
REMARK       I    between atoms: N_9  and  C_10 
REMARK    2  A    between atoms: C_10  and  C_11 
REMARK    3  A    between atoms: C_11  and  N_12 
REMARK    4  A    between atoms: N_12  and  C_15 
REMARK    5  A    between atoms: C_15  and  C_16 
REMARK    6  A    between atoms: C_15  and  C_22 
ROOT
HETATM    1  N   UNL     1     -42.806  54.643 -54.727  1.00  0.00    -0.055 N 
HETATM    2  H   UNL     1     -43.583  55.054 -54.207  1.00  0.00     0.278 HD
HETATM    3  H   UNL     1     -42.859  53.617 -54.630  1.00  0.00     0.278 HD
ENDROOT
BRANCH   1   4
HETATM    4  C   UNL     1     -42.947  54.951 -56.198  1.00  0.00     0.336 C 
BRANCH   4   5
HETATM    5  C   UNL     1     -43.132  56.447 -56.446  1.00  0.00     0.248 C 
HETATM    6  N   UNL     1     -42.165  57.002 -57.251  1.00  0.00    -0.322 N 
HETATM    7  H   UNL     1     -41.422  56.417 -57.615  1.00  0.00     0.169 HD
HETATM    8  O   UNL     1     -44.097  57.000 -55.928  1.00  0.00    -0.271 OA
BRANCH   6   9
HETATM    9  C   UNL     1     -42.078  58.329 -57.648  1.00  0.00     0.085 A 
HETATM   10  C   UNL     1     -41.987  58.671 -58.987  1.00  0.00     0.052 A 
HETATM   11  C   UNL     1     -41.954  57.871 -60.236  1.00  0.00     0.072 C 
HETATM   12  N   UNL     1     -41.915  60.035 -59.023  1.00  0.00    -0.280 N 
HETATM   13  H   UNL     1     -41.836  60.644 -59.833  1.00  0.00     0.189 HD
HETATM   14  N   UNL     1     -41.959  60.603 -57.818  1.00  0.00    -0.177 NA
HETATM   15  C   UNL     1     -42.049  59.578 -56.959  1.00  0.00     0.079 A 
HETATM   16  C   UNL     1     -42.095  59.902 -55.511  1.00  0.00     0.075 C 
ENDBRANCH   6   9
ENDBRANCH   4   5
ENDBRANCH   1   4
BRANCH   1  17
HETATM   17  C   UNL     1     -41.505  55.038 -54.079  1.00  0.00     0.252 C 
BRANCH  17  18
HETATM   18  C   UNL     1     -41.686  56.223 -53.145  1.00  0.00    -0.023 A 
HETATM   19  C   UNL     1     -40.779  57.296 -53.125  1.00  0.00     0.009 A 
HETATM   20  C   UNL     1     -40.949  58.351 -52.227  1.00  0.00     0.001 A 
HETATM   21  C   UNL     1     -42.020  58.348 -51.337  1.00  0.00     0.000 A 
HETATM   22  C   UNL     1     -42.931  57.294 -51.348  1.00  0.00     0.001 A 
HETATM   23  C   UNL     1     -42.767  56.238 -52.245  1.00  0.00     0.009 A 
ENDBRANCH  17  18
BRANCH  17  24
HETATM   24  C   UNL     1     -40.800  53.856 -53.422  1.00  0.00    -0.023 A 
HETATM   25  C   UNL     1     -40.370  52.789 -54.234  1.00  0.00     0.009 A 
HETATM   26  C   UNL     1     -39.710  51.689 -53.684  1.00  0.00     0.001 A 
HETATM   27  C   UNL     1     -39.463  51.636 -52.316  1.00  0.00     0.000 A 
HETATM   28  C   UNL     1     -39.870  52.685 -51.497  1.00  0.00     0.001 A 
HETATM   29  C   UNL     1     -40.529  53.791 -52.043  1.00  0.00     0.009 A 
ENDBRANCH  17  24
ENDBRANCH   1  17
TORSDOF 6
ENDMDL
MODEL 10
REMARK VINA RESULT:      -7.2      2.729      4.394
REMARK  6 active torsions:
REMARK  status: ('A' for Active; 'I' for Inactive)
REMARK    1  A    between atoms: C_8  and  N_9 
REMARK       I    between atoms: N_9  and  C_10 
REMARK    2  A    between atoms: C_10  and  C_11 
REMARK    3  A    between atoms: C_11  and  N_12 
REMARK    4  A    between atoms: N_12  and  C_15 
REMARK    5  A    between atoms: C_15  and  C_16 
REMARK    6  A    between atoms: C_15  and  C_22 
ROOT
HETATM    1  N   UNL     1     -44.276  56.518 -55.231  1.00  0.00    -0.055 N 
HETATM    2  H   UNL     1     -44.419  55.724 -54.606  1.00  0.00     0.278 HD
HETATM    3  H   UNL     1     -44.839  56.365 -56.082  1.00  0.00     0.278 HD
ENDROOT
BRANCH   1   4
HETATM    4  C   UNL     1     -44.793  57.783 -54.588  1.00  0.00     0.336 C 
BRANCH   4   5
HETATM    5  C   UNL     1     -44.297  57.928 -53.150  1.00  0.00     0.248 C 
HETATM    6  N   UNL     1     -43.082  58.563 -53.042  1.00  0.00    -0.322 N 
HETATM    7  H   UNL     1     -42.607  58.880 -53.880  1.00  0.00     0.169 HD
HETATM    8  O   UNL     1     -45.006  57.487 -52.251  1.00  0.00    -0.271 OA
BRANCH   6   9
HETATM    9  C   UNL     1     -42.391  58.836 -51.869  1.00  0.00     0.085 A 
HETATM   10  C   UNL     1     -41.600  57.874 -51.263  1.00  0.00     0.052 A 
HETATM   11  C   UNL     1     -41.282  56.465 -51.602  1.00  0.00     0.072 C 
HETATM   12  N   UNL     1     -41.076  58.466 -50.148  1.00  0.00    -0.280 N 
HETATM   13  H   UNL     1     -40.452  58.065 -49.454  1.00  0.00     0.189 HD
HETATM   14  N   UNL     1     -41.458  59.733 -49.988  1.00  0.00    -0.177 NA
HETATM   15  C   UNL     1     -42.271  59.980 -51.024  1.00  0.00     0.079 A 
HETATM   16  C   UNL     1     -42.881  61.330 -51.108  1.00  0.00     0.075 C 
ENDBRANCH   6   9
ENDBRANCH   4   5
ENDBRANCH   1   4
BRANCH   1  17
HETATM   17  C   UNL     1     -42.844  56.538 -55.697  1.00  0.00     0.252 C 
BRANCH  17  18
HETATM   18  C   UNL     1     -42.077  55.329 -55.189  1.00  0.00    -0.023 A 
HETATM   19  C   UNL     1     -40.675  55.260 -55.255  1.00  0.00     0.009 A 
HETATM   20  C   UNL     1     -40.000  54.119 -54.817  1.00  0.00     0.001 A 
HETATM   21  C   UNL     1     -40.713  53.033 -54.313  1.00  0.00     0.000 A 
HETATM   22  C   UNL     1     -42.103  53.088 -54.237  1.00  0.00     0.001 A 
HETATM   23  C   UNL     1     -42.782  54.227 -54.670  1.00  0.00     0.009 A 
ENDBRANCH  17  18
BRANCH  17  24
HETATM   24  C   UNL     1     -42.726  56.735 -57.205  1.00  0.00    -0.023 A 
HETATM   25  C   UNL     1     -43.146  55.696 -58.057  1.00  0.00     0.009 A 
HETATM   26  C   UNL     1     -43.070  55.830 -59.445  1.00  0.00     0.001 A 
HETATM   27  C   UNL     1     -42.577  57.004 -60.006  1.00  0.00     0.000 A 
HETATM   28  C   UNL     1     -42.167  58.047 -59.182  1.00  0.00     0.001 A 
HETATM   29  C   UNL     1     -42.244  57.919 -57.791  1.00  0.00     0.009 A 
ENDBRANCH  17  24
ENDBRANCH   1  17
TORSDOF 6
ENDMDL
