MODEL 1
REMARK VINA RESULT:      -7.5      0.000      0.000
REMARK  9 active torsions:
REMARK  status: ('A' for Active; 'I' for Inactive)
REMARK    1  A    between atoms: O_2  and  C_3 
REMARK    2  A    between atoms: C_3  and  C_4 
REMARK    3  A    between atoms: C_4  and  S_5 
REMARK    4  A    between atoms: S_5  and  C_6 
REMARK    5  A    between atoms: C_7  and  C_8 
REMARK       I    between atoms: C_8  and  N_9 
REMARK    6  A    between atoms: N_9  and  C_10 
REMARK    7  A    between atoms: C_11  and  C_12 
REMARK       I    between atoms: C_12  and  N_13 
REMARK    8  A    between atoms: N_13  and  C_14 
REMARK    9  A    between atoms: C_14  and  C_15 
ROOT
HETATM    1  C   UNL     1     -42.770  56.071 -56.779  1.00  0.00     0.050 A 
HETATM    2  C   UNL     1     -43.371  57.283 -56.403  1.00  0.00     0.058 A 
HETATM    3  C   UNL     1     -44.110  58.031 -57.333  1.00  0.00     0.019 A 
HETATM    4  C   UNL     1     -44.240  57.583 -58.646  1.00  0.00     0.001 A 
HETATM    5  C   UNL     1     -43.607  56.407 -59.041  1.00  0.00     0.002 A 
HETATM    6  C   UNL     1     -42.866  55.664 -58.117  1.00  0.00     0.030 A 
ENDROOT
BRANCH   1   7
HETATM    7  N   UNL     1     -42.046  55.224 -55.911  1.00  0.00    -0.322 N 
HETATM    8  C   UNL     1     -42.620  54.255 -55.099  1.00  0.00     0.257 C 
HETATM    9  O   UNL     1     -43.779  53.875 -55.190  1.00  0.00    -0.267 OA
HETATM   10  H   UNL     1     -41.048  55.154 -56.064  1.00  0.00     0.169 HD
BRANCH   8  11
HETATM   11  C   UNL     1     -41.665  53.617 -54.149  1.00  0.00     0.049 A 
HETATM   12  C   UNL     1     -41.595  53.951 -52.784  1.00  0.00     0.016 A 
HETATM   13  C   UNL     1     -40.642  53.295 -51.983  1.00  0.00     0.019 A 
HETATM   14  C   UNL     1     -39.785  52.329 -52.515  1.00  0.00     0.001 A 
HETATM   15  C   UNL     1     -39.851  52.011 -53.866  1.00  0.00     0.001 A 
HETATM   16  C   UNL     1     -40.780  52.658 -54.681  1.00  0.00     0.018 A 
BRANCH  12  17
HETATM   17  S   UNL     1     -42.597  55.163 -51.929  1.00  0.00    -0.127 SA
BRANCH  17  18
HETATM   18  C   UNL     1     -42.370  54.669 -50.180  1.00  0.00     0.106 C 
BRANCH  18  19
HETATM   19  C   UNL     1     -41.408  55.565 -49.400  1.00  0.00     0.177 C 
BRANCH  19  20
HETATM   20  O   UNL     1     -41.065  54.966 -48.151  1.00  0.00    -0.395 OA
HETATM   21  C   UNL     1     -40.468  53.689 -48.324  1.00  0.00     0.201 C 
ENDBRANCH  19  20
ENDBRANCH  18  19
ENDBRANCH  17  18
ENDBRANCH  12  17
ENDBRANCH   8  11
ENDBRANCH   1   7
BRANCH   2  22
HETATM   22  C   UNL     1     -43.085  57.960 -55.119  1.00  0.00     0.254 C 
HETATM   23  N   UNL     1     -41.989  58.790 -55.147  1.00  0.00    -0.354 N 
HETATM   24  H   UNL     1     -41.847  59.229 -56.054  1.00  0.00     0.162 HD
HETATM   25  O   UNL     1     -43.773  57.713 -54.136  1.00  0.00    -0.268 OA
BRANCH  23  26
HETATM   26  C   UNL     1     -41.640  59.612 -54.003  1.00  0.00     0.155 C 
BRANCH  26  27
HETATM   27  C   UNL     1     -40.846  58.817 -52.968  1.00  0.00     0.139 C 
HETATM   28  O   UNL     1     -39.462  59.215 -52.954  1.00  0.00    -0.384 OA
HETATM   29  C   UNL     1     -38.998  59.183 -51.595  1.00  0.00     0.168 C 
HETATM   30  C   UNL     1     -40.125  58.631 -50.747  1.00  0.00     0.029 C 
HETATM   31  C   UNL     1     -41.344  59.016 -51.545  1.00  0.00     0.035 C 
ENDBRANCH  26  27
ENDBRANCH  23  26
ENDBRANCH   2  22
TORSDOF 9
ENDMDL
MODEL 2
REMARK VINA RESULT:      -7.4      2.730      7.059
REMARK  9 active torsions:
REMARK  status: ('A' for Active; 'I' for Inactive)
REMARK    1  A    between atoms: O_2  and  C_3 
REMARK    2  A    between atoms: C_3  and  C_4 
REMARK    3  A    between atoms: C_4  and  S_5 
REMARK    4  A    between atoms: S_5  and  C_6 
REMARK    5  A    between atoms: C_7  and  C_8 
REMARK       I    between atoms: C_8  and  N_9 
REMARK    6  A    between atoms: N_9  and  C_10 
REMARK    7  A    between atoms: C_11  and  C_12 
REMARK       I    between atoms: C_12  and  N_13 
REMARK    8  A    between atoms: N_13  and  C_14 
REMARK    9  A    between atoms: C_14  and  C_15 
ROOT
HETATM    1  C   UNL     1     -40.762  54.565 -53.822  1.00  0.00     0.050 A 
HETATM    2  C   UNL     1     -40.864  54.294 -52.448  1.00  0.00     0.058 A 
HETATM    3  C   UNL     1     -40.508  53.034 -51.942  1.00  0.00     0.019 A 
HETATM    4  C   UNL     1     -40.066  52.032 -52.804  1.00  0.00     0.001 A 
HETATM    5  C   UNL     1     -40.008  52.276 -54.174  1.00  0.00     0.002 A 
HETATM    6  C   UNL     1     -40.367  53.529 -54.681  1.00  0.00     0.030 A 
ENDROOT
BRANCH   1   7
HETATM    7  N   UNL     1     -41.051  55.809 -54.424  1.00  0.00    -0.322 N 
HETATM    8  C   UNL     1     -42.310  56.199 -54.860  1.00  0.00     0.257 C 
HETATM    9  O   UNL     1     -43.348  55.611 -54.587  1.00  0.00    -0.267 OA
HETATM   10  H   UNL     1     -40.362  56.542 -54.316  1.00  0.00     0.169 HD
BRANCH   8  11
HETATM   11  C   UNL     1     -42.319  57.482 -55.618  1.00  0.00     0.049 A 
HETATM   12  C   UNL     1     -42.537  57.556 -57.006  1.00  0.00     0.016 A 
HETATM   13  C   UNL     1     -42.508  58.822 -57.621  1.00  0.00     0.019 A 
HETATM   14  C   UNL     1     -42.277  59.985 -56.882  1.00  0.00     0.001 A 
HETATM   15  C   UNL     1     -42.053  59.904 -55.513  1.00  0.00     0.001 A 
HETATM   16  C   UNL     1     -42.065  58.659 -54.885  1.00  0.00     0.018 A 
BRANCH  12  17
HETATM   17  S   UNL     1     -42.836  56.183 -58.115  1.00  0.00    -0.127 SA
BRANCH  17  18
HETATM   18  C   UNL     1     -42.900  57.023 -59.741  1.00  0.00     0.106 C 
BRANCH  18  19
HETATM   19  C   UNL     1     -44.241  56.884 -60.461  1.00  0.00     0.177 C 
BRANCH  19  20
HETATM   20  O   UNL     1     -44.290  55.664 -61.200  1.00  0.00    -0.395 OA
HETATM   21  C   UNL     1     -45.126  54.701 -60.575  1.00  0.00     0.201 C 
ENDBRANCH  19  20
ENDBRANCH  18  19
ENDBRANCH  17  18
ENDBRANCH  12  17
ENDBRANCH   8  11
ENDBRANCH   1   7
BRANCH   2  22
HETATM   22  C   UNL     1     -41.551  55.195 -51.497  1.00  0.00     0.254 C 
HETATM   23  N   UNL     1     -42.921  55.206 -51.616  1.00  0.00    -0.354 N 
HETATM   24  H   UNL     1     -43.301  54.308 -51.909  1.00  0.00     0.162 HD
HETATM   25  O   UNL     1     -40.892  55.889 -50.734  1.00  0.00    -0.268 OA
BRANCH  23  26
HETATM   26  C   UNL     1     -43.749  55.952 -50.685  1.00  0.00     0.155 C 
BRANCH  26  27
HETATM   27  C   UNL     1     -44.402  57.155 -51.362  1.00  0.00     0.139 C 
HETATM   28  O   UNL     1     -45.525  57.636 -50.600  1.00  0.00    -0.384 OA
HETATM   29  C   UNL     1     -45.548  59.069 -50.689  1.00  0.00     0.168 C 
HETATM   30  C   UNL     1     -44.447  59.480 -51.644  1.00  0.00     0.029 C 
HETATM   31  C   UNL     1     -43.466  58.344 -51.508  1.00  0.00     0.035 C 
ENDBRANCH  26  27
ENDBRANCH  23  26
ENDBRANCH   2  22
TORSDOF 9
ENDMDL
MODEL 3
REMARK VINA RESULT:      -7.3      1.873      3.021
REMARK  9 active torsions:
REMARK  status: ('A' for Active; 'I' for Inactive)
REMARK    1  A    between atoms: O_2  and  C_3 
REMARK    2  A    between atoms: C_3  and  C_4 
REMARK    3  A    between atoms: C_4  and  S_5 
REMARK    4  A    between atoms: S_5  and  C_6 
REMARK    5  A    between atoms: C_7  and  C_8 
REMARK       I    between atoms: C_8  and  N_9 
REMARK    6  A    between atoms: N_9  and  C_10 
REMARK    7  A    between atoms: C_11  and  C_12 
REMARK       I    between atoms: C_12  and  N_13 
REMARK    8  A    between atoms: N_13  and  C_14 
REMARK    9  A    between atoms: C_14  and  C_15 
ROOT
HETATM    1  C   UNL     1     -42.812  56.392 -56.054  1.00  0.00     0.050 A 
HETATM    2  C   UNL     1     -43.488  57.623 -56.011  1.00  0.00     0.058 A 
HETATM    3  C   UNL     1     -44.175  58.098 -57.139  1.00  0.00     0.019 A 
HETATM    4  C   UNL     1     -44.178  57.359 -58.320  1.00  0.00     0.001 A 
HETATM    5  C   UNL     1     -43.470  56.161 -58.387  1.00  0.00     0.002 A 
HETATM    6  C   UNL     1     -42.781  55.688 -57.266  1.00  0.00     0.030 A 
ENDROOT
BRANCH   1   7
HETATM    7  N   UNL     1     -42.132  55.806 -54.964  1.00  0.00    -0.322 N 
HETATM    8  C   UNL     1     -42.741  55.053 -53.970  1.00  0.00     0.257 C 
HETATM    9  O   UNL     1     -43.889  54.632 -54.028  1.00  0.00    -0.267 OA
HETATM   10  H   UNL     1     -41.125  55.727 -55.039  1.00  0.00     0.169 HD
BRANCH   8  11
HETATM   11  C   UNL     1     -41.837  54.695 -52.840  1.00  0.00     0.049 A 
HETATM   12  C   UNL     1     -40.986  53.574 -52.858  1.00  0.00     0.016 A 
HETATM   13  C   UNL     1     -40.187  53.324 -51.727  1.00  0.00     0.019 A 
HETATM   14  C   UNL     1     -40.223  54.161 -50.610  1.00  0.00     0.001 A 
HETATM   15  C   UNL     1     -41.073  55.260 -50.594  1.00  0.00     0.001 A 
HETATM   16  C   UNL     1     -41.882  55.522 -51.699  1.00  0.00     0.018 A 
BRANCH  12  17
HETATM   17  S   UNL     1     -40.812  52.387 -54.186  1.00  0.00    -0.127 SA
BRANCH  17  18
HETATM   18  C   UNL     1     -39.438  51.342 -53.576  1.00  0.00     0.106 C 
BRANCH  18  19
HETATM   19  C   UNL     1     -39.470  49.906 -54.097  1.00  0.00     0.177 C 
BRANCH  19  20
HETATM   20  O   UNL     1     -39.437  48.977 -53.014  1.00  0.00    -0.395 OA
HETATM   21  C   UNL     1     -39.597  49.624 -51.759  1.00  0.00     0.201 C 
ENDBRANCH  19  20
ENDBRANCH  18  19
ENDBRANCH  17  18
ENDBRANCH  12  17
ENDBRANCH   8  11
ENDBRANCH   1   7
BRANCH   2  22
HETATM   22  C   UNL     1     -43.335  58.588 -54.900  1.00  0.00     0.254 C 
HETATM   23  N   UNL     1     -42.031  58.860 -54.560  1.00  0.00    -0.354 N 
HETATM   24  H   UNL     1     -41.397  58.819 -55.355  1.00  0.00     0.162 HD
HETATM   25  O   UNL     1     -44.330  59.025 -54.335  1.00  0.00    -0.268 OA
BRANCH  23  26
HETATM   26  C   UNL     1     -41.709  59.868 -53.566  1.00  0.00     0.155 C 
BRANCH  26  27
HETATM   27  C   UNL     1     -41.260  59.231 -52.252  1.00  0.00     0.139 C 
HETATM   28  O   UNL     1     -39.824  59.203 -52.150  1.00  0.00    -0.384 OA
HETATM   29  C   UNL     1     -39.466  59.452 -50.782  1.00  0.00     0.168 C 
HETATM   30  C   UNL     1     -40.751  59.528 -49.985  1.00  0.00     0.029 C 
HETATM   31  C   UNL     1     -41.745  59.984 -51.023  1.00  0.00     0.035 C 
ENDBRANCH  26  27
ENDBRANCH  23  26
ENDBRANCH   2  22
TORSDOF 9
ENDMDL
MODEL 4
REMARK VINA RESULT:      -7.3      2.087      4.809
REMARK  9 active torsions:
REMARK  status: ('A' for Active; 'I' for Inactive)
REMARK    1  A    between atoms: O_2  and  C_3 
REMARK    2  A    between atoms: C_3  and  C_4 
REMARK    3  A    between atoms: C_4  and  S_5 
REMARK    4  A    between atoms: S_5  and  C_6 
REMARK    5  A    between atoms: C_7  and  C_8 
REMARK       I    between atoms: C_8  and  N_9 
REMARK    6  A    between atoms: N_9  and  C_10 
REMARK    7  A    between atoms: C_11  and  C_12 
REMARK       I    between atoms: C_12  and  N_13 
REMARK    8  A    between atoms: N_13  and  C_14 
REMARK    9  A    between atoms: C_14  and  C_15 
ROOT
HETATM    1  C   UNL     1     -43.447  57.091 -54.346  1.00  0.00     0.050 A 
HETATM    2  C   UNL     1     -43.719  57.493 -55.663  1.00  0.00     0.058 A 
HETATM    3  C   UNL     1     -44.573  58.578 -55.916  1.00  0.00     0.019 A 
HETATM    4  C   UNL     1     -45.174  59.257 -54.858  1.00  0.00     0.001 A 
HETATM    5  C   UNL     1     -44.949  58.834 -53.550  1.00  0.00     0.002 A 
HETATM    6  C   UNL     1     -44.103  57.751 -53.297  1.00  0.00     0.030 A 
ENDROOT
BRANCH   1   7
HETATM    7  N   UNL     1     -42.570  56.045 -53.984  1.00  0.00    -0.322 N 
HETATM    8  C   UNL     1     -42.952  54.722 -53.811  1.00  0.00     0.257 C 
HETATM    9  O   UNL     1     -44.035  54.266 -54.153  1.00  0.00    -0.267 OA
HETATM   10  H   UNL     1     -41.578  56.220 -54.090  1.00  0.00     0.169 HD
BRANCH   8  11
HETATM   11  C   UNL     1     -41.879  53.847 -53.259  1.00  0.00     0.049 A 
HETATM   12  C   UNL     1     -41.550  53.798 -51.892  1.00  0.00     0.016 A 
HETATM   13  C   UNL     1     -40.507  52.947 -51.485  1.00  0.00     0.019 A 
HETATM   14  C   UNL     1     -39.811  52.158 -52.404  1.00  0.00     0.001 A 
HETATM   15  C   UNL     1     -40.133  52.219 -53.754  1.00  0.00     0.001 A 
HETATM   16  C   UNL     1     -41.156  53.065 -54.182  1.00  0.00     0.018 A 
BRANCH  12  17
HETATM   17  S   UNL     1     -42.318  54.737 -50.575  1.00  0.00    -0.127 SA
BRANCH  17  18
HETATM   18  C   UNL     1     -41.046  56.010 -50.233  1.00  0.00     0.106 C 
BRANCH  18  19
HETATM   19  C   UNL     1     -41.372  57.386 -50.814  1.00  0.00     0.177 C 
BRANCH  19  20
HETATM   20  O   UNL     1     -40.770  57.544 -52.098  1.00  0.00    -0.395 OA
HETATM   21  C   UNL     1     -40.637  58.913 -52.454  1.00  0.00     0.201 C 
ENDBRANCH  19  20
ENDBRANCH  18  19
ENDBRANCH  17  18
ENDBRANCH  12  17
ENDBRANCH   8  11
ENDBRANCH   1   7
BRANCH   2  22
HETATM   22  C   UNL     1     -43.334  56.691 -56.846  1.00  0.00     0.254 C 
HETATM   23  N   UNL     1     -44.216  56.775 -57.898  1.00  0.00    -0.354 N 
HETATM   24  H   UNL     1     -44.673  57.682 -57.963  1.00  0.00     0.162 HD
HETATM   25  O   UNL     1     -42.332  55.990 -56.805  1.00  0.00    -0.268 OA
BRANCH  23  26
HETATM   26  C   UNL     1     -43.929  56.137 -59.171  1.00  0.00     0.155 C 
BRANCH  26  27
HETATM   27  C   UNL     1     -43.459  57.154 -60.209  1.00  0.00     0.139 C 
HETATM   28  O   UNL     1     -44.139  58.413 -60.052  1.00  0.00    -0.384 OA
HETATM   29  C   UNL     1     -43.204  59.467 -60.330  1.00  0.00     0.168 C 
HETATM   30  C   UNL     1     -41.915  58.818 -60.788  1.00  0.00     0.029 C 
HETATM   31  C   UNL     1     -41.976  57.473 -60.109  1.00  0.00     0.035 C 
ENDBRANCH  26  27
ENDBRANCH  23  26
ENDBRANCH   2  22
TORSDOF 9
ENDMDL
MODEL 5
REMARK VINA RESULT:      -7.3      2.536      7.007
REMARK  9 active torsions:
REMARK  status: ('A' for Active; 'I' for Inactive)
REMARK    1  A    between atoms: O_2  and  C_3 
REMARK    2  A    between atoms: C_3  and  C_4 
REMARK    3  A    between atoms: C_4  and  S_5 
REMARK    4  A    between atoms: S_5  and  C_6 
REMARK    5  A    between atoms: C_7  and  C_8 
REMARK       I    between atoms: C_8  and  N_9 
REMARK    6  A    between atoms: N_9  and  C_10 
REMARK    7  A    between atoms: C_11  and  C_12 
REMARK       I    between atoms: C_12  and  N_13 
REMARK    8  A    between atoms: N_13  and  C_14 
REMARK    9  A    between atoms: C_14  and  C_15 
ROOT
HETATM    1  C   UNL     1     -40.548  52.327 -53.353  1.00  0.00     0.050 A 
HETATM    2  C   UNL     1     -40.030  51.908 -52.117  1.00  0.00     0.058 A 
HETATM    3  C   UNL     1     -39.510  50.613 -51.964  1.00  0.00     0.019 A 
HETATM    4  C   UNL     1     -39.518  49.724 -53.037  1.00  0.00     0.001 A 
HETATM    5  C   UNL     1     -40.074  50.114 -54.253  1.00  0.00     0.002 A 
HETATM    6  C   UNL     1     -40.597  51.402 -54.406  1.00  0.00     0.030 A 
ENDROOT
BRANCH   1   7
HETATM    7  N   UNL     1     -41.051  53.619 -53.623  1.00  0.00    -0.322 N 
HETATM    8  C   UNL     1     -40.469  54.521 -54.502  1.00  0.00     0.257 C 
HETATM    9  O   UNL     1     -39.586  54.237 -55.300  1.00  0.00    -0.267 OA
HETATM   10  H   UNL     1     -42.007  53.806 -53.347  1.00  0.00     0.169 HD
BRANCH   8  11
HETATM   11  C   UNL     1     -41.089  55.877 -54.478  1.00  0.00     0.049 A 
HETATM   12  C   UNL     1     -42.120  56.270 -55.352  1.00  0.00     0.016 A 
HETATM   13  C   UNL     1     -42.618  57.582 -55.250  1.00  0.00     0.019 A 
HETATM   14  C   UNL     1     -42.117  58.480 -54.305  1.00  0.00     0.001 A 
HETATM   15  C   UNL     1     -41.091  58.089 -53.453  1.00  0.00     0.001 A 
HETATM   16  C   UNL     1     -40.574  56.798 -53.544  1.00  0.00     0.018 A 
BRANCH  12  17
HETATM   17  S   UNL     1     -42.879  55.269 -56.627  1.00  0.00    -0.127 SA
BRANCH  17  18
HETATM   18  C   UNL     1     -42.921  56.432 -58.040  1.00  0.00     0.106 C 
BRANCH  18  19
HETATM   19  C   UNL     1     -43.293  55.780 -59.371  1.00  0.00     0.177 C 
BRANCH  19  20
HETATM   20  O   UNL     1     -42.544  56.358 -60.440  1.00  0.00    -0.395 OA
HETATM   21  C   UNL     1     -41.861  57.534 -60.031  1.00  0.00     0.201 C 
ENDBRANCH  19  20
ENDBRANCH  18  19
ENDBRANCH  17  18
ENDBRANCH  12  17
ENDBRANCH   8  11
ENDBRANCH   1   7
BRANCH   2  22
HETATM   22  C   UNL     1     -40.203  52.681 -50.867  1.00  0.00     0.254 C 
HETATM   23  N   UNL     1     -40.138  54.044 -51.030  1.00  0.00    -0.354 N 
HETATM   24  H   UNL     1     -40.494  54.354 -51.932  1.00  0.00     0.162 HD
HETATM   25  O   UNL     1     -40.333  52.091 -49.802  1.00  0.00    -0.268 OA
BRANCH  23  26
HETATM   26  C   UNL     1     -40.398  54.946 -49.922  1.00  0.00     0.155 C 
BRANCH  26  27
HETATM   27  C   UNL     1     -41.873  55.337 -49.857  1.00  0.00     0.139 C 
HETATM   28  O   UNL     1     -42.082  56.669 -50.364  1.00  0.00    -0.384 OA
HETATM   29  C   UNL     1     -43.329  56.688 -51.076  1.00  0.00     0.168 C 
HETATM   30  C   UNL     1     -43.969  55.326 -50.904  1.00  0.00     0.029 C 
HETATM   31  C   UNL     1     -42.771  54.436 -50.689  1.00  0.00     0.035 C 
ENDBRANCH  26  27
ENDBRANCH  23  26
ENDBRANCH   2  22
TORSDOF 9
ENDMDL
MODEL 6
REMARK VINA RESULT:      -7.3      2.885      7.755
REMARK  9 active torsions:
REMARK  status: ('A' for Active; 'I' for Inactive)
REMARK    1  A    between atoms: O_2  and  C_3 
REMARK    2  A    between atoms: C_3  and  C_4 
REMARK    3  A    between atoms: C_4  and  S_5 
REMARK    4  A    between atoms: S_5  and  C_6 
REMARK    5  A    between atoms: C_7  and  C_8 
REMARK       I    between atoms: C_8  and  N_9 
REMARK    6  A    between atoms: N_9  and  C_10 
REMARK    7  A    between atoms: C_11  and  C_12 
REMARK       I    between atoms: C_12  and  N_13 
REMARK    8  A    between atoms: N_13  and  C_14 
REMARK    9  A    between atoms: C_14  and  C_15 
ROOT
HETATM    1  C   UNL     1     -43.032  56.088 -52.946  1.00  0.00     0.050 A 
HETATM    2  C   UNL     1     -42.914  54.689 -52.933  1.00  0.00     0.058 A 
HETATM    3  C   UNL     1     -43.310  53.949 -51.807  1.00  0.00     0.019 A 
HETATM    4  C   UNL     1     -43.809  54.602 -50.682  1.00  0.00     0.001 A 
HETATM    5  C   UNL     1     -43.885  55.992 -50.667  1.00  0.00     0.002 A 
HETATM    6  C   UNL     1     -43.486  56.731 -51.786  1.00  0.00     0.030 A 
ENDROOT
BRANCH   1   7
HETATM    7  N   UNL     1     -42.706  56.917 -54.041  1.00  0.00    -0.322 N 
HETATM    8  C   UNL     1     -43.598  57.292 -55.036  1.00  0.00     0.257 C 
HETATM    9  O   UNL     1     -44.810  57.130 -54.975  1.00  0.00    -0.267 OA
HETATM   10  H   UNL     1     -41.853  57.456 -53.971  1.00  0.00     0.169 HD
BRANCH   8  11
HETATM   11  C   UNL     1     -42.968  58.023 -56.172  1.00  0.00     0.049 A 
HETATM   12  C   UNL     1     -42.764  57.449 -57.441  1.00  0.00     0.016 A 
HETATM   13  C   UNL     1     -42.144  58.228 -58.435  1.00  0.00     0.019 A 
HETATM   14  C   UNL     1     -41.742  59.542 -58.185  1.00  0.00     0.001 A 
HETATM   15  C   UNL     1     -41.938  60.100 -56.927  1.00  0.00     0.001 A 
HETATM   16  C   UNL     1     -42.539  59.342 -55.923  1.00  0.00     0.018 A 
BRANCH  12  17
HETATM   17  S   UNL     1     -43.198  55.787 -57.943  1.00  0.00    -0.127 SA
BRANCH  17  18
HETATM   18  C   UNL     1     -43.278  55.955 -59.765  1.00  0.00     0.106 C 
BRANCH  18  19
HETATM   19  C   UNL     1     -44.634  55.587 -60.364  1.00  0.00     0.177 C 
BRANCH  19  20
HETATM   20  O   UNL     1     -45.631  56.530 -59.971  1.00  0.00    -0.395 OA
HETATM   21  C   UNL     1     -46.906  56.203 -60.504  1.00  0.00     0.201 C 
ENDBRANCH  19  20
ENDBRANCH  18  19
ENDBRANCH  17  18
ENDBRANCH  12  17
ENDBRANCH   8  11
ENDBRANCH   1   7
BRANCH   2  22
HETATM   22  C   UNL     1     -42.172  53.933 -53.967  1.00  0.00     0.254 C 
HETATM   23  N   UNL     1     -40.990  53.384 -53.528  1.00  0.00    -0.354 N 
HETATM   24  H   UNL     1     -41.019  53.110 -52.548  1.00  0.00     0.162 HD
HETATM   25  O   UNL     1     -42.602  53.888 -55.112  1.00  0.00    -0.268 OA
BRANCH  23  26
HETATM   26  C   UNL     1     -40.198  52.521 -54.387  1.00  0.00     0.155 C 
BRANCH  26  27
HETATM   27  C   UNL     1     -39.443  51.470 -53.576  1.00  0.00     0.139 C 
HETATM   28  O   UNL     1     -39.487  51.767 -52.168  1.00  0.00    -0.384 OA
HETATM   29  C   UNL     1     -39.598  50.527 -51.451  1.00  0.00     0.168 C 
HETATM   30  C   UNL     1     -39.508  49.408 -52.467  1.00  0.00     0.029 C 
HETATM   31  C   UNL     1     -40.021  50.071 -53.720  1.00  0.00     0.035 C 
ENDBRANCH  26  27
ENDBRANCH  23  26
ENDBRANCH   2  22
TORSDOF 9
ENDMDL
MODEL 7
REMARK VINA RESULT:      -7.2      1.760      4.804
REMARK  9 active torsions:
REMARK  status: ('A' for Active; 'I' for Inactive)
REMARK    1  A    between atoms: O_2  and  C_3 
REMARK    2  A    between atoms: C_3  and  C_4 
REMARK    3  A    between atoms: C_4  and  S_5 
REMARK    4  A    between atoms: S_5  and  C_6 
REMARK    5  A    between atoms: C_7  and  C_8 
REMARK       I    between atoms: C_8  and  N_9 
REMARK    6  A    between atoms: N_9  and  C_10 
REMARK    7  A    between atoms: C_11  and  C_12 
REMARK       I    between atoms: C_12  and  N_13 
REMARK    8  A    between atoms: N_13  and  C_14 
REMARK    9  A    between atoms: C_14  and  C_15 
ROOT
HETATM    1  C   UNL     1     -42.111  58.938 -52.728  1.00  0.00     0.050 A 
HETATM    2  C   UNL     1     -42.409  59.994 -53.604  1.00  0.00     0.058 A 
HETATM    3  C   UNL     1     -42.831  61.236 -53.105  1.00  0.00     0.019 A 
HETATM    4  C   UNL     1     -42.976  61.427 -51.732  1.00  0.00     0.001 A 
HETATM    5  C   UNL     1     -42.731  60.371 -50.859  1.00  0.00     0.002 A 
HETATM    6  C   UNL     1     -42.314  59.131 -51.354  1.00  0.00     0.030 A 
ENDROOT
BRANCH   1   7
HETATM    7  N   UNL     1     -41.637  57.668 -53.124  1.00  0.00    -0.322 N 
HETATM    8  C   UNL     1     -42.446  56.623 -53.546  1.00  0.00     0.257 C 
HETATM    9  O   UNL     1     -43.632  56.737 -53.827  1.00  0.00    -0.267 OA
HETATM   10  H   UNL     1     -40.650  57.593 -53.339  1.00  0.00     0.169 HD
BRANCH   8  11
HETATM   11  C   UNL     1     -41.722  55.334 -53.739  1.00  0.00     0.049 A 
HETATM   12  C   UNL     1     -41.928  54.203 -52.927  1.00  0.00     0.016 A 
HETATM   13  C   UNL     1     -41.176  53.044 -53.191  1.00  0.00     0.019 A 
HETATM   14  C   UNL     1     -40.249  53.000 -54.235  1.00  0.00     0.001 A 
HETATM   15  C   UNL     1     -40.042  54.123 -55.026  1.00  0.00     0.001 A 
HETATM   16  C   UNL     1     -40.768  55.287 -54.775  1.00  0.00     0.018 A 
BRANCH  12  17
HETATM   17  S   UNL     1     -43.058  54.074 -51.544  1.00  0.00    -0.127 SA
BRANCH  17  18
HETATM   18  C   UNL     1     -42.398  55.344 -50.402  1.00  0.00     0.106 C 
BRANCH  18  19
HETATM   19  C   UNL     1     -40.983  55.056 -49.902  1.00  0.00     0.177 C 
BRANCH  19  20
HETATM   20  O   UNL     1     -40.939  55.088 -48.476  1.00  0.00    -0.395 OA
HETATM   21  C   UNL     1     -40.324  53.925 -47.940  1.00  0.00     0.201 C 
ENDBRANCH  19  20
ENDBRANCH  18  19
ENDBRANCH  17  18
ENDBRANCH  12  17
ENDBRANCH   8  11
ENDBRANCH   1   7
BRANCH   2  22
HETATM   22  C   UNL     1     -42.527  59.817 -55.068  1.00  0.00     0.254 C 
HETATM   23  N   UNL     1     -43.727  59.287 -55.480  1.00  0.00    -0.354 N 
HETATM   24  H   UNL     1     -44.507  59.559 -54.885  1.00  0.00     0.162 HD
HETATM   25  O   UNL     1     -41.577  60.088 -55.791  1.00  0.00    -0.268 OA
BRANCH  23  26
HETATM   26  C   UNL     1     -44.044  59.154 -56.890  1.00  0.00     0.155 C 
BRANCH  26  27
HETATM   27  C   UNL     1     -44.206  57.688 -57.289  1.00  0.00     0.139 C 
HETATM   28  O   UNL     1     -44.771  57.566 -58.608  1.00  0.00    -0.384 OA
HETATM   29  C   UNL     1     -44.151  56.447 -59.261  1.00  0.00     0.168 C 
HETATM   30  C   UNL     1     -43.239  55.783 -58.250  1.00  0.00     0.029 C 
HETATM   31  C   UNL     1     -42.890  56.929 -57.334  1.00  0.00     0.035 C 
ENDBRANCH  26  27
ENDBRANCH  23  26
ENDBRANCH   2  22
TORSDOF 9
ENDMDL
MODEL 8
REMARK VINA RESULT:      -7.2      2.123      5.148
REMARK  9 active torsions:
REMARK  status: ('A' for Active; 'I' for Inactive)
REMARK    1  A    between atoms: O_2  and  C_3 
REMARK    2  A    between atoms: C_3  and  C_4 
REMARK    3  A    between atoms: C_4  and  S_5 
REMARK    4  A    between atoms: S_5  and  C_6 
REMARK    5  A    between atoms: C_7  and  C_8 
REMARK       I    between atoms: C_8  and  N_9 
REMARK    6  A    between atoms: N_9  and  C_10 
REMARK    7  A    between atoms: C_11  and  C_12 
REMARK       I    between atoms: C_12  and  N_13 
REMARK    8  A    between atoms: N_13  and  C_14 
REMARK    9  A    between atoms: C_14  and  C_15 
ROOT
HETATM    1  C   UNL     1     -41.833  57.082 -54.641  1.00  0.00     0.050 A 
HETATM    2  C   UNL     1     -42.299  57.482 -55.904  1.00  0.00     0.058 A 
HETATM    3  C   UNL     1     -42.772  58.788 -56.108  1.00  0.00     0.019 A 
HETATM    4  C   UNL     1     -42.799  59.696 -55.052  1.00  0.00     0.001 A 
HETATM    5  C   UNL     1     -42.384  59.293 -53.785  1.00  0.00     0.002 A 
HETATM    6  C   UNL     1     -41.917  57.992 -53.578  1.00  0.00     0.030 A 
ENDROOT
BRANCH   1   7
HETATM    7  N   UNL     1     -41.296  55.810 -54.343  1.00  0.00    -0.322 N 
HETATM    8  C   UNL     1     -42.012  54.771 -53.764  1.00  0.00     0.257 C 
HETATM    9  O   UNL     1     -43.229  54.756 -53.638  1.00  0.00    -0.267 OA
HETATM   10  H   UNL     1     -40.422  55.564 -54.789  1.00  0.00     0.169 HD
BRANCH   8  11
HETATM   11  C   UNL     1     -41.177  53.594 -53.390  1.00  0.00     0.049 A 
HETATM   12  C   UNL     1     -40.532  53.469 -52.145  1.00  0.00     0.016 A 
HETATM   13  C   UNL     1     -39.755  52.320 -51.907  1.00  0.00     0.019 A 
HETATM   14  C   UNL     1     -39.624  51.318 -52.870  1.00  0.00     0.001 A 
HETATM   15  C   UNL     1     -40.254  51.452 -54.101  1.00  0.00     0.001 A 
HETATM   16  C   UNL     1     -41.019  52.587 -54.364  1.00  0.00     0.018 A 
BRANCH  12  17
HETATM   17  S   UNL     1     -40.574  54.647 -50.798  1.00  0.00    -0.127 SA
BRANCH  17  18
HETATM   18  C   UNL     1     -42.064  54.111 -49.879  1.00  0.00     0.106 C 
BRANCH  18  19
HETATM   19  C   UNL     1     -43.351  54.808 -50.320  1.00  0.00     0.177 C 
BRANCH  19  20
HETATM   20  O   UNL     1     -43.098  56.176 -50.638  1.00  0.00    -0.395 OA
HETATM   21  C   UNL     1     -44.286  56.859 -51.011  1.00  0.00     0.201 C 
ENDBRANCH  19  20
ENDBRANCH  18  19
ENDBRANCH  17  18
ENDBRANCH  12  17
ENDBRANCH   8  11
ENDBRANCH   1   7
BRANCH   2  22
HETATM   22  C   UNL     1     -42.544  56.531 -57.011  1.00  0.00     0.254 C 
HETATM   23  N   UNL     1     -42.475  57.092 -58.265  1.00  0.00    -0.354 N 
HETATM   24  H   UNL     1     -41.805  57.856 -58.322  1.00  0.00     0.162 HD
HETATM   25  O   UNL     1     -42.834  55.368 -56.760  1.00  0.00    -0.268 OA
BRANCH  23  26
HETATM   26  C   UNL     1     -42.581  56.274 -59.460  1.00  0.00     0.155 C 
BRANCH  26  27
HETATM   27  C   UNL     1     -43.838  56.614 -60.259  1.00  0.00     0.139 C 
HETATM   28  O   UNL     1     -44.270  55.494 -61.053  1.00  0.00    -0.384 OA
HETATM   29  C   UNL     1     -45.706  55.473 -61.057  1.00  0.00     0.168 C 
HETATM   30  C   UNL     1     -46.178  56.707 -60.316  1.00  0.00     0.029 C 
HETATM   31  C   UNL     1     -45.026  56.979 -59.383  1.00  0.00     0.035 C 
ENDBRANCH  26  27
ENDBRANCH  23  26
ENDBRANCH   2  22
TORSDOF 9
ENDMDL
MODEL 9
REMARK VINA RESULT:      -7.2      2.325      6.696
REMARK  9 active torsions:
REMARK  status: ('A' for Active; 'I' for Inactive)
REMARK    1  A    between atoms: O_2  and  C_3 
REMARK    2  A    between atoms: C_3  and  C_4 
REMARK    3  A    between atoms: C_4  and  S_5 
REMARK    4  A    between atoms: S_5  and  C_6 
REMARK    5  A    between atoms: C_7  and  C_8 
REMARK       I    between atoms: C_8  and  N_9 
REMARK    6  A    between atoms: N_9  and  C_10 
REMARK    7  A    between atoms: C_11  and  C_12 
REMARK       I    between atoms: C_12  and  N_13 
REMARK    8  A    between atoms: N_13  and  C_14 
REMARK    9  A    between atoms: C_14  and  C_15 
ROOT
HETATM    1  C   UNL     1     -41.462  53.467 -53.545  1.00  0.00     0.050 A 
HETATM    2  C   UNL     1     -40.884  53.541 -52.268  1.00  0.00     0.058 A 
HETATM    3  C   UNL     1     -39.946  52.583 -51.852  1.00  0.00     0.019 A 
HETATM    4  C   UNL     1     -39.592  51.536 -52.701  1.00  0.00     0.001 A 
HETATM    5  C   UNL     1     -40.196  51.427 -53.951  1.00  0.00     0.002 A 
HETATM    6  C   UNL     1     -41.134  52.378 -54.365  1.00  0.00     0.030 A 
ENDROOT
BRANCH   1   7
HETATM    7  N   UNL     1     -42.377  54.403 -54.074  1.00  0.00    -0.322 N 
HETATM    8  C   UNL     1     -42.017  55.592 -54.693  1.00  0.00     0.257 C 
HETATM    9  O   UNL     1     -40.878  55.871 -55.043  1.00  0.00    -0.267 OA
HETATM   10  H   UNL     1     -43.326  54.084 -54.224  1.00  0.00     0.169 HD
BRANCH   8  11
HETATM   11  C   UNL     1     -43.167  56.486 -55.006  1.00  0.00     0.049 A 
HETATM   12  C   UNL     1     -43.505  56.881 -56.314  1.00  0.00     0.016 A 
HETATM   13  C   UNL     1     -44.603  57.742 -56.490  1.00  0.00     0.019 A 
HETATM   14  C   UNL     1     -45.354  58.197 -55.403  1.00  0.00     0.001 A 
HETATM   15  C   UNL     1     -45.009  57.812 -54.113  1.00  0.00     0.001 A 
HETATM   16  C   UNL     1     -43.917  56.969 -53.914  1.00  0.00     0.018 A 
BRANCH  12  17
HETATM   17  S   UNL     1     -42.661  56.414 -57.822  1.00  0.00    -0.127 SA
BRANCH  17  18
HETATM   18  C   UNL     1     -44.057  56.238 -58.993  1.00  0.00     0.106 C 
BRANCH  18  19
HETATM   19  C   UNL     1     -44.212  54.831 -59.569  1.00  0.00     0.177 C 
BRANCH  19  20
HETATM   20  O   UNL     1     -45.402  54.737 -60.351  1.00  0.00    -0.395 OA
HETATM   21  C   UNL     1     -46.171  55.930 -60.287  1.00  0.00     0.201 C 
ENDBRANCH  19  20
ENDBRANCH  18  19
ENDBRANCH  17  18
ENDBRANCH  12  17
ENDBRANCH   8  11
ENDBRANCH   1   7
BRANCH   2  22
HETATM   22  C   UNL     1     -41.375  54.456 -51.213  1.00  0.00     0.254 C 
HETATM   23  N   UNL     1     -40.972  55.762 -51.364  1.00  0.00    -0.354 N 
HETATM   24  H   UNL     1     -40.870  56.037 -52.339  1.00  0.00     0.162 HD
HETATM   25  O   UNL     1     -42.033  54.012 -50.281  1.00  0.00    -0.268 OA
BRANCH  23  26
HETATM   26  C   UNL     1     -41.458  56.805 -50.478  1.00  0.00     0.155 C 
BRANCH  26  27
HETATM   27  C   UNL     1     -41.200  58.194 -51.058  1.00  0.00     0.139 C 
HETATM   28  O   UNL     1     -40.564  58.111 -52.347  1.00  0.00    -0.384 OA
HETATM   29  C   UNL     1     -41.091  59.158 -53.176  1.00  0.00     0.168 C 
HETATM   30  C   UNL     1     -42.017  59.993 -52.317  1.00  0.00     0.029 C 
HETATM   31  C   UNL     1     -42.471  58.999 -51.278  1.00  0.00     0.035 C 
ENDBRANCH  26  27
ENDBRANCH  23  26
ENDBRANCH   2  22
TORSDOF 9
ENDMDL
MODEL 10
REMARK VINA RESULT:      -7.0      2.090      5.690
REMARK  9 active torsions:
REMARK  status: ('A' for Active; 'I' for Inactive)
REMARK    1  A    between atoms: O_2  and  C_3 
REMARK    2  A    between atoms: C_3  and  C_4 
REMARK    3  A    between atoms: C_4  and  S_5 
REMARK    4  A    between atoms: S_5  and  C_6 
REMARK    5  A    between atoms: C_7  and  C_8 
REMARK       I    between atoms: C_8  and  N_9 
REMARK    6  A    between atoms: N_9  and  C_10 
REMARK    7  A    between atoms: C_11  and  C_12 
REMARK       I    between atoms: C_12  and  N_13 
REMARK    8  A    between atoms: N_13  and  C_14 
REMARK    9  A    between atoms: C_14  and  C_15 
ROOT
HETATM    1  C   UNL     1     -40.822  53.751 -54.151  1.00  0.00     0.050 A 
HETATM    2  C   UNL     1     -40.870  53.815 -52.750  1.00  0.00     0.058 A 
HETATM    3  C   UNL     1     -40.306  52.793 -51.969  1.00  0.00     0.019 A 
HETATM    4  C   UNL     1     -39.708  51.694 -52.582  1.00  0.00     0.001 A 
HETATM    5  C   UNL     1     -39.700  51.598 -53.971  1.00  0.00     0.002 A 
HETATM    6  C   UNL     1     -40.264  52.613 -54.750  1.00  0.00     0.030 A 
ENDROOT
BRANCH   1   7
HETATM    7  N   UNL     1     -41.317  54.745 -55.024  1.00  0.00    -0.322 N 
HETATM    8  C   UNL     1     -42.551  54.694 -55.656  1.00  0.00     0.257 C 
HETATM    9  O   UNL     1     -43.439  53.900 -55.374  1.00  0.00    -0.267 OA
HETATM   10  H   UNL     1     -40.857  55.647 -55.000  1.00  0.00     0.169 HD
BRANCH   8  11
HETATM   11  C   UNL     1     -42.765  55.774 -56.660  1.00  0.00     0.049 A 
HETATM   12  C   UNL     1     -42.843  57.138 -56.322  1.00  0.00     0.016 A 
HETATM   13  C   UNL     1     -43.063  58.071 -57.352  1.00  0.00     0.019 A 
HETATM   14  C   UNL     1     -43.196  57.668 -58.682  1.00  0.00     0.001 A 
HETATM   15  C   UNL     1     -43.129  56.319 -59.009  1.00  0.00     0.001 A 
HETATM   16  C   UNL     1     -42.923  55.376 -58.003  1.00  0.00     0.018 A 
BRANCH  12  17
HETATM   17  S   UNL     1     -42.708  57.840 -54.680  1.00  0.00    -0.127 SA
BRANCH  17  18
HETATM   18  C   UNL     1     -44.444  57.775 -54.103  1.00  0.00     0.106 C 
BRANCH  18  19
HETATM   19  C   UNL     1     -45.155  59.128 -54.116  1.00  0.00     0.177 C 
BRANCH  19  20
HETATM   20  O   UNL     1     -45.559  59.497 -52.798  1.00  0.00    -0.395 OA
HETATM   21  C   UNL     1     -46.046  60.830 -52.749  1.00  0.00     0.201 C 
ENDBRANCH  19  20
ENDBRANCH  18  19
ENDBRANCH  17  18
ENDBRANCH  12  17
ENDBRANCH   8  11
ENDBRANCH   1   7
BRANCH   2  22
HETATM   22  C   UNL     1     -41.693  54.802 -52.016  1.00  0.00     0.254 C 
HETATM   23  N   UNL     1     -41.040  55.423 -50.977  1.00  0.00    -0.354 N 
HETATM   24  H   UNL     1     -40.044  55.544 -51.149  1.00  0.00     0.162 HD
HETATM   25  O   UNL     1     -42.867  54.962 -52.323  1.00  0.00    -0.268 OA
BRANCH  23  26
HETATM   26  C   UNL     1     -41.671  56.496 -50.228  1.00  0.00     0.155 C 
BRANCH  26  27
HETATM   27  C   UNL     1     -41.505  57.840 -50.934  1.00  0.00     0.139 C 
HETATM   28  O   UNL     1     -42.778  58.475 -51.155  1.00  0.00    -0.384 OA
HETATM   29  C   UNL     1     -42.613  59.890 -50.972  1.00  0.00     0.168 C 
HETATM   30  C   UNL     1     -41.139  60.145 -50.734  1.00  0.00     0.029 C 
HETATM   31  C   UNL     1     -40.680  58.839 -50.138  1.00  0.00     0.035 C 
ENDBRANCH  26  27
ENDBRANCH  23  26
ENDBRANCH   2  22
TORSDOF 9
ENDMDL
