MODEL 1
REMARK VINA RESULT:      -8.4      0.000      0.000
REMARK  6 active torsions:
REMARK  status: ('A' for Active; 'I' for Inactive)
REMARK    1  A    between atoms: C_9  and  C_10 
REMARK    2  A    between atoms: C_10  and  N_11 
REMARK       I    between atoms: N_11  and  C_12 
REMARK    3  A    between atoms: N_11  and  C_22 
REMARK    4  A    between atoms: C_12  and  C_13 
REMARK    5  A    between atoms: C_16  and  O_17 
REMARK    6  A    between atoms: C_22  and  C_23 
ROOT
HETATM    1  N   UNL     1     -42.201  56.622 -52.544  1.00  0.00    -0.341 N 
HETATM    2  C   UNL     1     -41.531  57.259 -53.595  1.00  0.00     0.254 C 
HETATM    3  O   UNL     1     -40.333  57.538 -53.572  1.00  0.00    -0.267 OA
ENDROOT
BRANCH   1   4
HETATM    4  C   UNL     1     -41.420  56.307 -51.348  1.00  0.00     0.170 C 
BRANCH   4   5
HETATM    5  C   UNL     1     -41.056  54.853 -51.264  1.00  0.00     0.029 A 
HETATM    6  C   UNL     1     -40.826  54.271 -49.907  1.00  0.00     0.253 A 
HETATM    7  N   UNL     1     -40.454  52.952 -49.849  1.00  0.00    -0.322 N 
HETATM    8  O   UNL     1     -40.945  54.935 -48.880  1.00  0.00    -0.268 OA
HETATM    9  C   UNL     1     -40.223  52.158 -50.979  1.00  0.00     0.045 A 
HETATM   10  H   UNL     1     -40.307  52.575 -48.924  1.00  0.00     0.169 HD
HETATM   11  C   UNL     1     -40.405  52.712 -52.249  1.00  0.00    -0.008 A 
HETATM   12  C   UNL     1     -39.795  50.840 -50.834  1.00  0.00     0.031 A 
HETATM   13  C   UNL     1     -40.133  51.940 -53.383  1.00  0.00     0.020 A 
HETATM   14  C   UNL     1     -40.854  54.097 -52.358  1.00  0.00     0.028 A 
HETATM   15  C   UNL     1     -39.668  50.624 -53.252  1.00  0.00    -0.061 A 
HETATM   16  C   UNL     1     -39.381  49.800 -54.473  1.00  0.00     0.048 C 
HETATM   17  C   UNL     1     -39.522  50.075 -51.970  1.00  0.00     0.009 A 
ENDBRANCH   4   5
ENDBRANCH   1   4
BRANCH   1  18
HETATM   18  C   UNL     1     -43.652  56.761 -52.322  1.00  0.00     0.158 C 
BRANCH  18  19
HETATM   19  C   UNL     1     -43.985  57.646 -51.100  1.00  0.00     0.139 C 
HETATM   20  O   UNL     1     -45.396  57.556 -50.804  1.00  0.00    -0.384 OA
HETATM   21  C   UNL     1     -46.009  58.826 -51.059  1.00  0.00     0.168 C 
HETATM   22  C   UNL     1     -45.026  59.625 -51.881  1.00  0.00     0.029 C 
HETATM   23  C   UNL     1     -43.703  59.120 -51.361  1.00  0.00     0.035 C 
ENDBRANCH  18  19
ENDBRANCH   1  18
BRANCH   2  24
HETATM   24  C   UNL     1     -42.294  57.655 -54.804  1.00  0.00     0.032 A 
HETATM   25  C   UNL     1     -42.583  56.679 -55.760  1.00  0.00     0.020 A 
HETATM   26  C   UNL     1     -43.275  57.029 -56.919  1.00  0.00     0.038 A 
HETATM   27  C   UNL     1     -43.684  58.349 -57.132  1.00  0.00     0.068 A 
HETATM   28  C   UNL     1     -43.441  59.312 -56.150  1.00  0.00     0.038 A 
HETATM   29  C   UNL     1     -42.757  58.963 -54.979  1.00  0.00     0.020 A 
BRANCH  27  30
HETATM   30  O   UNL     1     -44.325  58.563 -58.321  1.00  0.00    -0.356 OA
HETATM   31  C   UNL     1     -44.812  57.410 -58.998  1.00  0.00     0.210 C 
ENDBRANCH  27  30
ENDBRANCH   2  24
TORSDOF 6
ENDMDL
MODEL 2
REMARK VINA RESULT:      -8.3      1.827      2.670
REMARK  6 active torsions:
REMARK  status: ('A' for Active; 'I' for Inactive)
REMARK    1  A    between atoms: C_9  and  C_10 
REMARK    2  A    between atoms: C_10  and  N_11 
REMARK       I    between atoms: N_11  and  C_12 
REMARK    3  A    between atoms: N_11  and  C_22 
REMARK    4  A    between atoms: C_12  and  C_13 
REMARK    5  A    between atoms: C_16  and  O_17 
REMARK    6  A    between atoms: C_22  and  C_23 
ROOT
HETATM    1  N   UNL     1     -42.527  57.321 -53.299  1.00  0.00    -0.341 N 
HETATM    2  C   UNL     1     -43.385  57.308 -54.404  1.00  0.00     0.254 C 
HETATM    3  O   UNL     1     -44.453  56.699 -54.431  1.00  0.00    -0.267 OA
ENDROOT
BRANCH   1   4
HETATM    4  C   UNL     1     -42.929  56.535 -52.132  1.00  0.00     0.170 C 
BRANCH   4   5
HETATM    5  C   UNL     1     -42.102  55.294 -51.960  1.00  0.00     0.029 A 
HETATM    6  C   UNL     1     -41.328  55.145 -50.691  1.00  0.00     0.253 A 
HETATM    7  N   UNL     1     -40.544  54.025 -50.567  1.00  0.00    -0.322 N 
HETATM    8  O   UNL     1     -41.367  55.985 -49.796  1.00  0.00    -0.268 OA
HETATM    9  C   UNL     1     -40.390  53.068 -51.576  1.00  0.00     0.045 A 
HETATM   10  H   UNL     1     -40.031  53.939 -49.701  1.00  0.00     0.169 HD
HETATM   11  C   UNL     1     -41.088  53.224 -52.777  1.00  0.00    -0.008 A 
HETATM   12  C   UNL     1     -39.532  51.985 -51.391  1.00  0.00     0.031 A 
HETATM   13  C   UNL     1     -40.905  52.297 -53.807  1.00  0.00     0.020 A 
HETATM   14  C   UNL     1     -41.976  54.373 -52.933  1.00  0.00     0.028 A 
HETATM   15  C   UNL     1     -40.018  51.223 -53.648  1.00  0.00    -0.061 A 
HETATM   16  C   UNL     1     -39.828  50.229 -54.755  1.00  0.00     0.048 C 
HETATM   17  C   UNL     1     -39.351  51.063 -52.424  1.00  0.00     0.009 A 
ENDBRANCH   4   5
ENDBRANCH   1   4
BRANCH   1  18
HETATM   18  C   UNL     1     -41.077  57.565 -53.417  1.00  0.00     0.158 C 
BRANCH  18  19
HETATM   19  C   UNL     1     -40.684  59.011 -53.043  1.00  0.00     0.139 C 
HETATM   20  O   UNL     1     -39.318  59.039 -52.575  1.00  0.00    -0.384 OA
HETATM   21  C   UNL     1     -39.307  59.379 -51.183  1.00  0.00     0.168 C 
HETATM   22  C   UNL     1     -40.720  59.201 -50.682  1.00  0.00     0.029 C 
HETATM   23  C   UNL     1     -41.530  59.562 -51.902  1.00  0.00     0.035 C 
ENDBRANCH  18  19
ENDBRANCH   1  18
BRANCH   2  24
HETATM   24  C   UNL     1     -42.992  58.038 -55.634  1.00  0.00     0.032 A 
HETATM   25  C   UNL     1     -42.590  57.298 -56.748  1.00  0.00     0.020 A 
HETATM   26  C   UNL     1     -42.189  57.959 -57.910  1.00  0.00     0.038 A 
HETATM   27  C   UNL     1     -42.188  59.356 -57.969  1.00  0.00     0.068 A 
HETATM   28  C   UNL     1     -42.642  60.092 -56.871  1.00  0.00     0.038 A 
HETATM   29  C   UNL     1     -43.057  59.432 -55.708  1.00  0.00     0.020 A 
BRANCH  27  30
HETATM   30  O   UNL     1     -41.744  59.877 -59.153  1.00  0.00    -0.356 OA
HETATM   31  C   UNL     1     -42.176  59.219 -60.339  1.00  0.00     0.210 C 
ENDBRANCH  27  30
ENDBRANCH   2  24
TORSDOF 6
ENDMDL
MODEL 3
REMARK VINA RESULT:      -8.2      2.772      8.072
REMARK  6 active torsions:
REMARK  status: ('A' for Active; 'I' for Inactive)
REMARK    1  A    between atoms: C_9  and  C_10 
REMARK    2  A    between atoms: C_10  and  N_11 
REMARK       I    between atoms: N_11  and  C_12 
REMARK    3  A    between atoms: N_11  and  C_22 
REMARK    4  A    between atoms: C_12  and  C_13 
REMARK    5  A    between atoms: C_16  and  O_17 
REMARK    6  A    between atoms: C_22  and  C_23 
ROOT
HETATM    1  N   UNL     1     -42.342  56.146 -54.472  1.00  0.00    -0.341 N 
HETATM    2  C   UNL     1     -42.761  54.903 -53.984  1.00  0.00     0.254 C 
HETATM    3  O   UNL     1     -43.924  54.506 -54.038  1.00  0.00    -0.267 OA
ENDROOT
BRANCH   1   4
HETATM    4  C   UNL     1     -43.366  57.018 -55.047  1.00  0.00     0.170 C 
BRANCH   4   5
HETATM    5  C   UNL     1     -43.079  57.381 -56.475  1.00  0.00     0.029 A 
HETATM    6  C   UNL     1     -42.958  56.268 -57.464  1.00  0.00     0.253 A 
HETATM    7  N   UNL     1     -42.654  56.613 -58.756  1.00  0.00    -0.322 N 
HETATM    8  O   UNL     1     -43.105  55.090 -57.147  1.00  0.00    -0.268 OA
HETATM    9  C   UNL     1     -42.396  57.924 -59.172  1.00  0.00     0.045 A 
HETATM   10  H   UNL     1     -42.580  55.848 -59.411  1.00  0.00     0.169 HD
HETATM   11  C   UNL     1     -42.476  58.962 -58.239  1.00  0.00    -0.008 A 
HETATM   12  C   UNL     1     -42.041  58.185 -60.494  1.00  0.00     0.031 A 
HETATM   13  C   UNL     1     -42.176  60.270 -58.634  1.00  0.00     0.020 A 
HETATM   14  C   UNL     1     -42.850  58.649 -56.863  1.00  0.00     0.028 A 
HETATM   15  C   UNL     1     -41.783  60.541 -59.953  1.00  0.00    -0.061 A 
HETATM   16  C   UNL     1     -41.465  61.946 -60.372  1.00  0.00     0.048 C 
HETATM   17  C   UNL     1     -41.739  59.492 -60.883  1.00  0.00     0.009 A 
ENDBRANCH   4   5
ENDBRANCH   1   4
BRANCH   1  18
HETATM   18  C   UNL     1     -41.146  56.841 -53.961  1.00  0.00     0.158 C 
BRANCH  18  19
HETATM   19  C   UNL     1     -41.493  58.136 -53.193  1.00  0.00     0.139 C 
HETATM   20  O   UNL     1     -40.310  58.953 -53.056  1.00  0.00    -0.384 OA
HETATM   21  C   UNL     1     -39.942  59.016 -51.673  1.00  0.00     0.168 C 
HETATM   22  C   UNL     1     -40.698  57.914 -50.972  1.00  0.00     0.029 C 
HETATM   23  C   UNL     1     -41.974  57.854 -51.775  1.00  0.00     0.035 C 
ENDBRANCH  18  19
ENDBRANCH   1  18
BRANCH   2  24
HETATM   24  C   UNL     1     -41.771  54.009 -53.335  1.00  0.00     0.032 A 
HETATM   25  C   UNL     1     -41.028  53.143 -54.140  1.00  0.00     0.020 A 
HETATM   26  C   UNL     1     -40.109  52.272 -53.555  1.00  0.00     0.038 A 
HETATM   27  C   UNL     1     -39.924  52.260 -52.168  1.00  0.00     0.068 A 
HETATM   28  C   UNL     1     -40.630  53.165 -51.372  1.00  0.00     0.038 A 
HETATM   29  C   UNL     1     -41.544  54.050 -51.957  1.00  0.00     0.020 A 
BRANCH  27  30
HETATM   30  O   UNL     1     -39.018  51.338 -51.722  1.00  0.00    -0.356 OA
HETATM   31  C   UNL     1     -39.548  50.125 -51.200  1.00  0.00     0.210 C 
ENDBRANCH  27  30
ENDBRANCH   2  24
TORSDOF 6
ENDMDL
MODEL 4
REMARK VINA RESULT:      -7.9      3.119      8.255
REMARK  6 active torsions:
REMARK  status: ('A' for Active; 'I' for Inactive)
REMARK    1  A    between atoms: C_9  and  C_10 
REMARK    2  A    between atoms: C_10  and  N_11 
REMARK       I    between atoms: N_11  and  C_12 
REMARK    3  A    between atoms: N_11  and  C_22 
REMARK    4  A    between atoms: C_12  and  C_13 
REMARK    5  A    between atoms: C_16  and  O_17 
REMARK    6  A    between atoms: C_22  and  C_23 
ROOT
HETATM    1  N   UNL     1     -42.318  57.385 -54.653  1.00  0.00    -0.341 N 
HETATM    2  C   UNL     1     -42.853  56.098 -54.527  1.00  0.00     0.254 C 
HETATM    3  O   UNL     1     -44.043  55.835 -54.689  1.00  0.00    -0.267 OA
ENDROOT
BRANCH   1   4
HETATM    4  C   UNL     1     -43.251  58.468 -54.965  1.00  0.00     0.170 C 
BRANCH   4   5
HETATM    5  C   UNL     1     -43.010  59.063 -56.321  1.00  0.00     0.029 A 
HETATM    6  C   UNL     1     -43.678  58.419 -57.491  1.00  0.00     0.253 A 
HETATM    7  N   UNL     1     -43.415  58.949 -58.729  1.00  0.00    -0.322 N 
HETATM    8  O   UNL     1     -44.421  57.447 -57.371  1.00  0.00    -0.268 OA
HETATM    9  C   UNL     1     -42.521  60.002 -58.950  1.00  0.00     0.045 A 
HETATM   10  H   UNL     1     -43.879  58.503 -59.508  1.00  0.00     0.169 HD
HETATM   11  C   UNL     1     -41.870  60.584 -57.859  1.00  0.00    -0.008 A 
HETATM   12  C   UNL     1     -42.268  60.448 -60.246  1.00  0.00     0.031 A 
HETATM   13  C   UNL     1     -40.941  61.607 -58.074  1.00  0.00     0.020 A 
HETATM   14  C   UNL     1     -42.160  60.088 -56.517  1.00  0.00     0.028 A 
HETATM   15  C   UNL     1     -40.651  62.040 -59.376  1.00  0.00    -0.061 A 
HETATM   16  C   UNL     1     -39.656  63.140 -59.601  1.00  0.00     0.048 C 
HETATM   17  C   UNL     1     -41.338  61.468 -60.456  1.00  0.00     0.009 A 
ENDBRANCH   4   5
ENDBRANCH   1   4
BRANCH   1  18
HETATM   18  C   UNL     1     -41.081  57.805 -53.969  1.00  0.00     0.158 C 
BRANCH  18  19
HETATM   19  C   UNL     1     -41.343  58.822 -52.836  1.00  0.00     0.139 C 
HETATM   20  O   UNL     1     -40.092  59.392 -52.395  1.00  0.00    -0.384 OA
HETATM   21  C   UNL     1     -39.830  58.964 -51.053  1.00  0.00     0.168 C 
HETATM   22  C   UNL     1     -40.757  57.804 -50.778  1.00  0.00     0.029 C 
HETATM   23  C   UNL     1     -41.964  58.169 -51.607  1.00  0.00     0.035 C 
ENDBRANCH  18  19
ENDBRANCH   1  18
BRANCH   2  24
HETATM   24  C   UNL     1     -41.958  54.976 -54.151  1.00  0.00     0.032 A 
HETATM   25  C   UNL     1     -41.083  54.470 -55.114  1.00  0.00     0.020 A 
HETATM   26  C   UNL     1     -40.249  53.397 -54.796  1.00  0.00     0.038 A 
HETATM   27  C   UNL     1     -40.280  52.827 -53.519  1.00  0.00     0.068 A 
HETATM   28  C   UNL     1     -41.117  53.371 -52.542  1.00  0.00     0.038 A 
HETATM   29  C   UNL     1     -41.947  54.455 -52.853  1.00  0.00     0.020 A 
BRANCH  27  30
HETATM   30  O   UNL     1     -39.436  51.765 -53.349  1.00  0.00    -0.356 OA
HETATM   31  C   UNL     1     -39.850  50.525 -53.913  1.00  0.00     0.210 C 
ENDBRANCH  27  30
ENDBRANCH   2  24
TORSDOF 6
ENDMDL
MODEL 5
REMARK VINA RESULT:      -7.6     15.762     18.642
REMARK  6 active torsions:
REMARK  status: ('A' for Active; 'I' for Inactive)
REMARK    1  A    between atoms: C_9  and  C_10 
REMARK    2  A    between atoms: C_10  and  N_11 
REMARK       I    between atoms: N_11  and  C_12 
REMARK    3  A    between atoms: N_11  and  C_22 
REMARK    4  A    between atoms: C_12  and  C_13 
REMARK    5  A    between atoms: C_16  and  O_17 
REMARK    6  A    between atoms: C_22  and  C_23 
ROOT
HETATM    1  N   UNL     1     -35.312  41.186 -54.658  1.00  0.00    -0.341 N 
HETATM    2  C   UNL     1     -35.454  41.737 -53.379  1.00  0.00     0.254 C 
HETATM    3  O   UNL     1     -35.889  42.869 -53.169  1.00  0.00    -0.267 OA
ENDROOT
BRANCH   1   4
HETATM    4  C   UNL     1     -35.679  42.031 -55.794  1.00  0.00     0.170 C 
BRANCH   4   5
HETATM    5  C   UNL     1     -36.518  41.306 -56.805  1.00  0.00     0.029 A 
HETATM    6  C   UNL     1     -37.916  40.948 -56.420  1.00  0.00     0.253 A 
HETATM    7  N   UNL     1     -38.656  40.248 -57.339  1.00  0.00    -0.322 N 
HETATM    8  O   UNL     1     -38.393  41.246 -55.327  1.00  0.00    -0.268 OA
HETATM    9  C   UNL     1     -38.155  39.808 -58.569  1.00  0.00     0.045 A 
HETATM   10  H   UNL     1     -39.600  40.019 -57.064  1.00  0.00     0.169 HD
HETATM   11  C   UNL     1     -36.836  40.113 -58.916  1.00  0.00    -0.008 A 
HETATM   12  C   UNL     1     -38.956  39.055 -59.425  1.00  0.00     0.031 A 
HETATM   13  C   UNL     1     -36.311  39.638 -60.123  1.00  0.00     0.020 A 
HETATM   14  C   UNL     1     -36.027  40.903 -57.992  1.00  0.00     0.028 A 
HETATM   15  C   UNL     1     -37.096  38.850 -60.976  1.00  0.00    -0.061 A 
HETATM   16  C   UNL     1     -36.530  38.347 -62.271  1.00  0.00     0.048 C 
HETATM   17  C   UNL     1     -38.427  38.581 -60.628  1.00  0.00     0.009 A 
ENDBRANCH   4   5
ENDBRANCH   1   4
BRANCH   1  18
HETATM   18  C   UNL     1     -34.342  40.118 -54.963  1.00  0.00     0.158 C 
BRANCH  18  19
HETATM   19  C   UNL     1     -32.916  40.660 -55.203  1.00  0.00     0.139 C 
HETATM   20  O   UNL     1     -32.510  40.378 -56.560  1.00  0.00    -0.384 OA
HETATM   21  C   UNL     1     -31.435  39.432 -56.540  1.00  0.00     0.168 C 
HETATM   22  C   UNL     1     -31.411  38.831 -55.155  1.00  0.00     0.029 C 
HETATM   23  C   UNL     1     -31.884  39.986 -54.308  1.00  0.00     0.035 C 
ENDBRANCH  18  19
ENDBRANCH   1  18
BRANCH   2  24
HETATM   24  C   UNL     1     -35.037  40.943 -52.199  1.00  0.00     0.032 A 
HETATM   25  C   UNL     1     -33.870  41.313 -51.525  1.00  0.00     0.020 A 
HETATM   26  C   UNL     1     -33.439  40.568 -50.427  1.00  0.00     0.038 A 
HETATM   27  C   UNL     1     -34.166  39.454 -49.994  1.00  0.00     0.068 A 
HETATM   28  C   UNL     1     -35.360  39.119 -50.636  1.00  0.00     0.038 A 
HETATM   29  C   UNL     1     -35.804  39.872 -51.731  1.00  0.00     0.020 A 
BRANCH  27  30
HETATM   30  O   UNL     1     -33.618  38.796 -48.928  1.00  0.00    -0.356 OA
HETATM   31  C   UNL     1     -32.310  39.196 -48.536  1.00  0.00     0.210 C 
ENDBRANCH  27  30
ENDBRANCH   2  24
TORSDOF 6
ENDMDL
MODEL 6
REMARK VINA RESULT:      -7.6      2.560      7.981
REMARK  6 active torsions:
REMARK  status: ('A' for Active; 'I' for Inactive)
REMARK    1  A    between atoms: C_9  and  C_10 
REMARK    2  A    between atoms: C_10  and  N_11 
REMARK       I    between atoms: N_11  and  C_12 
REMARK    3  A    between atoms: N_11  and  C_22 
REMARK    4  A    between atoms: C_12  and  C_13 
REMARK    5  A    between atoms: C_16  and  O_17 
REMARK    6  A    between atoms: C_22  and  C_23 
ROOT
HETATM    1  N   UNL     1     -42.284  57.023 -54.236  1.00  0.00    -0.341 N 
HETATM    2  C   UNL     1     -42.771  55.720 -54.080  1.00  0.00     0.254 C 
HETATM    3  O   UNL     1     -43.965  55.427 -54.135  1.00  0.00    -0.267 OA
ENDROOT
BRANCH   1   4
HETATM    4  C   UNL     1     -43.270  58.084 -54.447  1.00  0.00     0.170 C 
BRANCH   4   5
HETATM    5  C   UNL     1     -43.482  58.394 -55.899  1.00  0.00     0.029 A 
HETATM    6  C   UNL     1     -42.571  59.391 -56.538  1.00  0.00     0.253 A 
HETATM    7  N   UNL     1     -42.804  59.695 -57.855  1.00  0.00    -0.322 N 
HETATM    8  O   UNL     1     -41.659  59.936 -55.920  1.00  0.00    -0.268 OA
HETATM    9  C   UNL     1     -43.869  59.174 -58.597  1.00  0.00     0.045 A 
HETATM   10  H   UNL     1     -42.175  60.368 -58.270  1.00  0.00     0.169 HD
HETATM   11  C   UNL     1     -44.743  58.266 -57.991  1.00  0.00    -0.008 A 
HETATM   12  C   UNL     1     -44.068  59.575 -59.917  1.00  0.00     0.031 A 
HETATM   13  C   UNL     1     -45.837  57.775 -58.710  1.00  0.00     0.020 A 
HETATM   14  C   UNL     1     -44.502  57.872 -56.606  1.00  0.00     0.028 A 
HETATM   15  C   UNL     1     -46.068  58.198 -60.027  1.00  0.00    -0.061 A 
HETATM   16  C   UNL     1     -47.242  57.665 -60.795  1.00  0.00     0.048 C 
HETATM   17  C   UNL     1     -45.164  59.083 -60.630  1.00  0.00     0.009 A 
ENDBRANCH   4   5
ENDBRANCH   1   4
BRANCH   1  18
HETATM   18  C   UNL     1     -41.001  57.469 -53.664  1.00  0.00     0.158 C 
BRANCH  18  19
HETATM   19  C   UNL     1     -41.155  58.702 -52.745  1.00  0.00     0.139 C 
HETATM   20  O   UNL     1     -39.858  59.281 -52.485  1.00  0.00    -0.384 OA
HETATM   21  C   UNL     1     -39.540  59.112 -51.098  1.00  0.00     0.168 C 
HETATM   22  C   UNL     1     -40.499  58.080 -50.556  1.00  0.00     0.029 C 
HETATM   23  C   UNL     1     -41.734  58.338 -51.384  1.00  0.00     0.035 C 
ENDBRANCH  18  19
ENDBRANCH   1  18
BRANCH   2  24
HETATM   24  C   UNL     1     -41.817  54.620 -53.802  1.00  0.00     0.032 A 
HETATM   25  C   UNL     1     -41.108  54.067 -54.871  1.00  0.00     0.020 A 
HETATM   26  C   UNL     1     -40.223  53.013 -54.643  1.00  0.00     0.038 A 
HETATM   27  C   UNL     1     -40.038  52.505 -53.353  1.00  0.00     0.068 A 
HETATM   28  C   UNL     1     -40.708  53.096 -52.279  1.00  0.00     0.038 A 
HETATM   29  C   UNL     1     -41.587  54.163 -52.501  1.00  0.00     0.020 A 
BRANCH  27  30
HETATM   30  O   UNL     1     -39.167  51.454 -53.273  1.00  0.00    -0.356 OA
HETATM   31  C   UNL     1     -39.734  50.178 -52.994  1.00  0.00     0.210 C 
ENDBRANCH  27  30
ENDBRANCH   2  24
TORSDOF 6
ENDMDL
MODEL 7
REMARK VINA RESULT:      -7.5     15.458     17.427
REMARK  6 active torsions:
REMARK  status: ('A' for Active; 'I' for Inactive)
REMARK    1  A    between atoms: C_9  and  C_10 
REMARK    2  A    between atoms: C_10  and  N_11 
REMARK       I    between atoms: N_11  and  C_12 
REMARK    3  A    between atoms: N_11  and  C_22 
REMARK    4  A    between atoms: C_12  and  C_13 
REMARK    5  A    between atoms: C_16  and  O_17 
REMARK    6  A    between atoms: C_22  and  C_23 
ROOT
HETATM    1  N   UNL     1     -37.235  40.626 -54.653  1.00  0.00    -0.341 N 
HETATM    2  C   UNL     1     -38.208  41.033 -55.573  1.00  0.00     0.254 C 
HETATM    3  O   UNL     1     -39.305  41.487 -55.250  1.00  0.00    -0.267 OA
ENDROOT
BRANCH   1   4
HETATM    4  C   UNL     1     -37.574  40.728 -53.233  1.00  0.00     0.170 C 
BRANCH   4   5
HETATM    5  C   UNL     1     -36.361  40.743 -52.350  1.00  0.00     0.029 A 
HETATM    6  C   UNL     1     -35.481  41.949 -52.399  1.00  0.00     0.253 A 
HETATM    7  N   UNL     1     -34.354  41.931 -51.618  1.00  0.00    -0.322 N 
HETATM    8  O   UNL     1     -35.733  42.917 -53.114  1.00  0.00    -0.268 OA
HETATM    9  C   UNL     1     -33.963  40.834 -50.841  1.00  0.00     0.045 A 
HETATM   10  H   UNL     1     -33.773  42.756 -51.661  1.00  0.00     0.169 HD
HETATM   11  C   UNL     1     -34.769  39.692 -50.821  1.00  0.00    -0.008 A 
HETATM   12  C   UNL     1     -32.774  40.876 -50.116  1.00  0.00     0.031 A 
HETATM   13  C   UNL     1     -34.364  38.575 -50.084  1.00  0.00     0.020 A 
HETATM   14  C   UNL     1     -36.007  39.688 -51.595  1.00  0.00     0.028 A 
HETATM   15  C   UNL     1     -33.152  38.591 -49.378  1.00  0.00    -0.061 A 
HETATM   16  C   UNL     1     -32.725  37.390 -48.586  1.00  0.00     0.048 C 
HETATM   17  C   UNL     1     -32.373  39.757 -49.383  1.00  0.00     0.009 A 
ENDBRANCH   4   5
ENDBRANCH   1   4
BRANCH   1  18
HETATM   18  C   UNL     1     -36.198  39.629 -54.977  1.00  0.00     0.158 C 
BRANCH  18  19
HETATM   19  C   UNL     1     -34.921  40.267 -55.567  1.00  0.00     0.139 C 
HETATM   20  O   UNL     1     -34.682  39.743 -56.891  1.00  0.00    -0.384 OA
HETATM   21  C   UNL     1     -33.484  38.956 -56.873  1.00  0.00     0.168 C 
HETATM   22  C   UNL     1     -33.167  38.682 -55.422  1.00  0.00     0.029 C 
HETATM   23  C   UNL     1     -33.679  39.932 -54.751  1.00  0.00     0.035 C 
ENDBRANCH  18  19
ENDBRANCH   1  18
BRANCH   2  24
HETATM   24  C   UNL     1     -37.935  40.892 -57.024  1.00  0.00     0.032 A 
HETATM   25  C   UNL     1     -38.338  39.718 -57.666  1.00  0.00     0.020 A 
HETATM   26  C   UNL     1     -38.071  39.546 -59.025  1.00  0.00     0.038 A 
HETATM   27  C   UNL     1     -37.405  40.540 -59.750  1.00  0.00     0.068 A 
HETATM   28  C   UNL     1     -37.053  41.735 -59.117  1.00  0.00     0.038 A 
HETATM   29  C   UNL     1     -37.330  41.917 -57.757  1.00  0.00     0.020 A 
BRANCH  27  30
HETATM   30  O   UNL     1     -37.180  40.233 -61.063  1.00  0.00    -0.356 OA
HETATM   31  C   UNL     1     -37.195  38.851 -61.406  1.00  0.00     0.210 C 
ENDBRANCH  27  30
ENDBRANCH   2  24
TORSDOF 6
ENDMDL
MODEL 8
REMARK VINA RESULT:      -7.4      2.516      5.040
REMARK  6 active torsions:
REMARK  status: ('A' for Active; 'I' for Inactive)
REMARK    1  A    between atoms: C_9  and  C_10 
REMARK    2  A    between atoms: C_10  and  N_11 
REMARK       I    between atoms: N_11  and  C_12 
REMARK    3  A    between atoms: N_11  and  C_22 
REMARK    4  A    between atoms: C_12  and  C_13 
REMARK    5  A    between atoms: C_16  and  O_17 
REMARK    6  A    between atoms: C_22  and  C_23 
ROOT
HETATM    1  N   UNL     1     -44.192  58.021 -55.759  1.00  0.00    -0.341 N 
HETATM    2  C   UNL     1     -43.998  59.387 -55.527  1.00  0.00     0.254 C 
HETATM    3  O   UNL     1     -44.297  59.950 -54.475  1.00  0.00    -0.267 OA
ENDROOT
BRANCH   1   4
HETATM    4  C   UNL     1     -44.816  57.244 -54.687  1.00  0.00     0.170 C 
BRANCH   4   5
HETATM    5  C   UNL     1     -43.834  56.369 -53.964  1.00  0.00     0.029 A 
HETATM    6  C   UNL     1     -43.297  56.858 -52.658  1.00  0.00     0.253 A 
HETATM    7  N   UNL     1     -42.369  56.067 -52.029  1.00  0.00    -0.322 N 
HETATM    8  O   UNL     1     -43.649  57.927 -52.163  1.00  0.00    -0.268 OA
HETATM    9  C   UNL     1     -41.865  54.879 -52.571  1.00  0.00     0.045 A 
HETATM   10  H   UNL     1     -42.021  56.411 -51.146  1.00  0.00     0.169 HD
HETATM   11  C   UNL     1     -42.342  54.438 -53.808  1.00  0.00    -0.008 A 
HETATM   12  C   UNL     1     -40.883  54.160 -51.892  1.00  0.00     0.031 A 
HETATM   13  C   UNL     1     -41.811  53.276 -54.378  1.00  0.00     0.020 A 
HETATM   14  C   UNL     1     -43.370  55.220 -54.488  1.00  0.00     0.028 A 
HETATM   15  C   UNL     1     -40.798  52.563 -53.723  1.00  0.00    -0.061 A 
HETATM   16  C   UNL     1     -40.234  51.315 -54.338  1.00  0.00     0.048 C 
HETATM   17  C   UNL     1     -40.355  53.002 -52.467  1.00  0.00     0.009 A 
ENDBRANCH   4   5
ENDBRANCH   1   4
BRANCH   1  18
HETATM   18  C   UNL     1     -44.351  57.455 -57.111  1.00  0.00     0.158 C 
BRANCH  18  19
HETATM   19  C   UNL     1     -43.043  56.838 -57.655  1.00  0.00     0.139 C 
HETATM   20  O   UNL     1     -42.601  57.576 -58.815  1.00  0.00    -0.384 OA
HETATM   21  C   UNL     1     -42.702  56.735 -59.971  1.00  0.00     0.168 C 
HETATM   22  C   UNL     1     -43.571  55.564 -59.582  1.00  0.00     0.029 C 
HETATM   23  C   UNL     1     -43.234  55.399 -58.121  1.00  0.00     0.035 C 
ENDBRANCH  18  19
ENDBRANCH   1  18
BRANCH   2  24
HETATM   24  C   UNL     1     -43.428  60.229 -56.606  1.00  0.00     0.032 A 
HETATM   25  C   UNL     1     -42.038  60.311 -56.724  1.00  0.00     0.020 A 
HETATM   26  C   UNL     1     -41.474  61.118 -57.713  1.00  0.00     0.038 A 
HETATM   27  C   UNL     1     -42.287  61.843 -58.589  1.00  0.00     0.068 A 
HETATM   28  C   UNL     1     -43.676  61.717 -58.503  1.00  0.00     0.038 A 
HETATM   29  C   UNL     1     -44.247  60.899 -57.521  1.00  0.00     0.020 A 
BRANCH  27  30
HETATM   30  O   UNL     1     -41.608  62.616 -59.490  1.00  0.00    -0.356 OA
HETATM   31  C   UNL     1     -40.187  62.533 -59.456  1.00  0.00     0.210 C 
ENDBRANCH  27  30
ENDBRANCH   2  24
TORSDOF 6
ENDMDL
MODEL 9
REMARK VINA RESULT:      -7.4     15.630     17.649
REMARK  6 active torsions:
REMARK  status: ('A' for Active; 'I' for Inactive)
REMARK    1  A    between atoms: C_9  and  C_10 
REMARK    2  A    between atoms: C_10  and  N_11 
REMARK       I    between atoms: N_11  and  C_12 
REMARK    3  A    between atoms: N_11  and  C_22 
REMARK    4  A    between atoms: C_12  and  C_13 
REMARK    5  A    between atoms: C_16  and  O_17 
REMARK    6  A    between atoms: C_22  and  C_23 
ROOT
HETATM    1  N   UNL     1     -34.375  41.066 -53.176  1.00  0.00    -0.341 N 
HETATM    2  C   UNL     1     -35.378  41.940 -53.610  1.00  0.00     0.254 C 
HETATM    3  O   UNL     1     -35.763  42.912 -52.962  1.00  0.00    -0.267 OA
ENDROOT
BRANCH   1   4
HETATM    4  C   UNL     1     -33.787  41.324 -51.861  1.00  0.00     0.170 C 
BRANCH   4   5
HETATM    5  C   UNL     1     -34.288  40.378 -50.809  1.00  0.00     0.029 A 
HETATM    6  C   UNL     1     -33.321  39.387 -50.249  1.00  0.00     0.253 A 
HETATM    7  N   UNL     1     -33.804  38.501 -49.319  1.00  0.00    -0.322 N 
HETATM    8  O   UNL     1     -32.146  39.342 -50.605  1.00  0.00    -0.268 OA
HETATM    9  C   UNL     1     -35.146  38.442 -48.925  1.00  0.00     0.045 A 
HETATM   10  H   UNL     1     -33.136  37.842 -48.948  1.00  0.00     0.169 HD
HETATM   11  C   UNL     1     -36.058  39.348 -49.474  1.00  0.00    -0.008 A 
HETATM   12  C   UNL     1     -35.567  37.477 -48.013  1.00  0.00     0.031 A 
HETATM   13  C   UNL     1     -37.409  39.267 -49.120  1.00  0.00     0.020 A 
HETATM   14  C   UNL     1     -35.577  40.344 -50.427  1.00  0.00     0.028 A 
HETATM   15  C   UNL     1     -37.852  38.278 -48.231  1.00  0.00    -0.061 A 
HETATM   16  C   UNL     1     -39.302  38.198 -47.853  1.00  0.00     0.048 C 
HETATM   17  C   UNL     1     -36.918  37.399 -47.665  1.00  0.00     0.009 A 
ENDBRANCH   4   5
ENDBRANCH   1   4
BRANCH   1  18
HETATM   18  C   UNL     1     -34.280  39.669 -53.638  1.00  0.00     0.158 C 
BRANCH  18  19
HETATM   19  C   UNL     1     -32.919  39.351 -54.296  1.00  0.00     0.139 C 
HETATM   20  O   UNL     1     -32.402  40.535 -54.941  1.00  0.00    -0.384 OA
HETATM   21  C   UNL     1     -32.390  40.328 -56.359  1.00  0.00     0.168 C 
HETATM   22  C   UNL     1     -33.261  39.125 -56.629  1.00  0.00     0.029 C 
HETATM   23  C   UNL     1     -33.039  38.296 -55.388  1.00  0.00     0.035 C 
ENDBRANCH  18  19
ENDBRANCH   1  18
BRANCH   2  24
HETATM   24  C   UNL     1     -36.049  41.684 -54.907  1.00  0.00     0.032 A 
HETATM   25  C   UNL     1     -35.452  42.170 -56.073  1.00  0.00     0.020 A 
HETATM   26  C   UNL     1     -36.075  41.968 -57.305  1.00  0.00     0.038 A 
HETATM   27  C   UNL     1     -37.291  41.280 -57.383  1.00  0.00     0.068 A 
HETATM   28  C   UNL     1     -37.857  40.749 -56.222  1.00  0.00     0.038 A 
HETATM   29  C   UNL     1     -37.229  40.939 -54.985  1.00  0.00     0.020 A 
BRANCH  27  30
HETATM   30  O   UNL     1     -37.808  41.178 -58.645  1.00  0.00    -0.356 OA
HETATM   31  C   UNL     1     -37.304  42.090 -59.615  1.00  0.00     0.210 C 
ENDBRANCH  27  30
ENDBRANCH   2  24
TORSDOF 6
ENDMDL
MODEL 10
REMARK VINA RESULT:      -7.0      2.957      7.071
REMARK  6 active torsions:
REMARK  status: ('A' for Active; 'I' for Inactive)
REMARK    1  A    between atoms: C_9  and  C_10 
REMARK    2  A    between atoms: C_10  and  N_11 
REMARK       I    between atoms: N_11  and  C_12 
REMARK    3  A    between atoms: N_11  and  C_22 
REMARK    4  A    between atoms: C_12  and  C_13 
REMARK    5  A    between atoms: C_16  and  O_17 
REMARK    6  A    between atoms: C_22  and  C_23 
ROOT
HETATM    1  N   UNL     1     -42.440  58.179 -52.860  1.00  0.00    -0.341 N 
HETATM    2  C   UNL     1     -42.677  59.544 -52.662  1.00  0.00     0.254 C 
HETATM    3  O   UNL     1     -42.117  60.434 -53.301  1.00  0.00    -0.267 OA
ENDROOT
BRANCH   1   4
HETATM    4  C   UNL     1     -41.443  57.814 -53.868  1.00  0.00     0.170 C 
BRANCH   4   5
HETATM    5  C   UNL     1     -42.060  57.209 -55.095  1.00  0.00     0.029 A 
HETATM    6  C   UNL     1     -41.576  55.862 -55.524  1.00  0.00     0.253 A 
HETATM    7  N   UNL     1     -42.119  55.340 -56.670  1.00  0.00    -0.322 N 
HETATM    8  O   UNL     1     -40.719  55.243 -54.898  1.00  0.00    -0.268 OA
HETATM    9  C   UNL     1     -43.040  56.021 -57.475  1.00  0.00     0.045 A 
HETATM   10  H   UNL     1     -41.783  54.428 -56.942  1.00  0.00     0.169 HD
HETATM   11  C   UNL     1     -43.468  57.296 -57.092  1.00  0.00    -0.008 A 
HETATM   12  C   UNL     1     -43.504  55.442 -58.655  1.00  0.00     0.031 A 
HETATM   13  C   UNL     1     -44.352  58.002 -57.913  1.00  0.00     0.020 A 
HETATM   14  C   UNL     1     -42.957  57.868 -55.850  1.00  0.00     0.028 A 
HETATM   15  C   UNL     1     -44.799  57.446 -59.120  1.00  0.00    -0.061 A 
HETATM   16  C   UNL     1     -45.751  58.207 -59.995  1.00  0.00     0.048 C 
HETATM   17  C   UNL     1     -44.385  56.153 -59.472  1.00  0.00     0.009 A 
ENDBRANCH   4   5
ENDBRANCH   1   4
BRANCH   1  18
HETATM   18  C   UNL     1     -42.661  57.170 -51.808  1.00  0.00     0.158 C 
BRANCH  18  19
HETATM   19  C   UNL     1     -41.441  56.244 -51.605  1.00  0.00     0.139 C 
HETATM   20  O   UNL     1     -41.827  54.872 -51.840  1.00  0.00    -0.384 OA
HETATM   21  C   UNL     1     -41.749  54.147 -50.606  1.00  0.00     0.168 C 
HETATM   22  C   UNL     1     -41.665  55.175 -49.503  1.00  0.00     0.029 C 
HETATM   23  C   UNL     1     -40.911  56.293 -50.178  1.00  0.00     0.035 C 
ENDBRANCH  18  19
ENDBRANCH   1  18
BRANCH   2  24
HETATM   24  C   UNL     1     -43.632  59.967 -51.609  1.00  0.00     0.032 A 
HETATM   25  C   UNL     1     -43.138  60.662 -50.502  1.00  0.00     0.020 A 
HETATM   26  C   UNL     1     -44.009  61.049 -49.483  1.00  0.00     0.038 A 
HETATM   27  C   UNL     1     -45.373  60.748 -49.560  1.00  0.00     0.068 A 
HETATM   28  C   UNL     1     -45.871  60.100 -50.693  1.00  0.00     0.038 A 
HETATM   29  C   UNL     1     -45.003  59.721 -51.725  1.00  0.00     0.020 A 
BRANCH  27  30
HETATM   30  O   UNL     1     -46.109  61.155 -48.482  1.00  0.00    -0.356 OA
HETATM   31  C   UNL     1     -45.551  60.902 -47.198  1.00  0.00     0.210 C 
ENDBRANCH  27  30
ENDBRANCH   2  24
TORSDOF 6
ENDMDL
