MODEL 1
REMARK VINA RESULT:      -8.5      0.000      0.000
REMARK  2 active torsions:
REMARK  status: ('A' for Active; 'I' for Inactive)
REMARK    1  A    between atoms: O_2  and  C_3 
REMARK    2  A    between atoms: C_7  and  N_8 
REMARK       I    between atoms: N_8  and  C_9 
REMARK       I    between atoms: C_9  and  N_10 
ROOT
HETATM    1  N   UNL     1     -42.746  57.780 -51.124  1.00  0.00    -0.307 N 
HETATM    2  C   UNL     1     -42.431  57.013 -52.218  1.00  0.00     0.323 C 
HETATM    3  N   UNL     1     -41.537  55.974 -51.981  1.00  0.00    -0.328 N 
HETATM    4  C   UNL     1     -41.000  55.302 -53.175  1.00  0.00     0.185 C 
HETATM    5  C   UNL     1     -40.631  53.903 -52.839  1.00  0.00     0.035 A 
HETATM    6  C   UNL     1     -40.596  53.328 -51.589  1.00  0.00    -0.020 A 
HETATM    7  C   UNL     1     -40.977  54.102 -50.380  1.00  0.00     0.061 C 
HETATM    8  C   UNL     1     -40.927  55.616 -50.678  1.00  0.00     0.132 C 
HETATM    9  N   UNL     1     -40.272  52.954 -53.755  1.00  0.00    -0.357 N 
HETATM   10  H   UNL     1     -40.222  53.087 -54.756  1.00  0.00     0.166 HD
HETATM   11  C   UNL     1     -40.006  51.762 -53.114  1.00  0.00     0.043 A 
HETATM   12  C   UNL     1     -40.202  51.972 -51.746  1.00  0.00    -0.001 A 
HETATM   13  C   UNL     1     -39.621  50.524 -53.640  1.00  0.00     0.030 A 
HETATM   14  C   UNL     1     -39.429  49.469 -52.742  1.00  0.00     0.002 A 
HETATM   15  C   UNL     1     -39.615  49.648 -51.374  1.00  0.00     0.001 A 
HETATM   16  C   UNL     1     -40.002  50.894 -50.862  1.00  0.00     0.014 A 
HETATM   17  O   UNL     1     -42.884  57.219 -53.343  1.00  0.00    -0.247 OA
HETATM   18  H   UNL     1     -42.037  57.860 -50.411  1.00  0.00     0.170 HD
ENDROOT
BRANCH   1  19
HETATM   19  C   UNL     1     -43.758  58.770 -51.045  1.00  0.00     0.058 A 
HETATM   20  C   UNL     1     -43.390  60.101 -50.787  1.00  0.00     0.063 A 
HETATM   21  C   UNL     1     -44.354  61.110 -50.710  1.00  0.00     0.063 A 
HETATM   22 CL   UNL     1     -41.727  60.538 -50.575  1.00  0.00    -0.082 Cl
HETATM   23  C   UNL     1     -45.705  60.808 -50.882  1.00  0.00     0.070 A 
HETATM   24  C   UNL     1     -46.084  59.485 -51.102  1.00  0.00     0.039 A 
HETATM   25  C   UNL     1     -45.117  58.474 -51.180  1.00  0.00     0.034 A 
BRANCH  23  26
HETATM   26  O   UNL     1     -46.550  61.880 -50.802  1.00  0.00    -0.356 OA
HETATM   27  C   UNL     1     -46.459  62.678 -49.628  1.00  0.00     0.210 C 
ENDBRANCH  23  26
ENDBRANCH   1  19
TORSDOF 2
ENDMDL
MODEL 2
REMARK VINA RESULT:      -8.0      4.839      9.299
REMARK  2 active torsions:
REMARK  status: ('A' for Active; 'I' for Inactive)
REMARK    1  A    between atoms: O_2  and  C_3 
REMARK    2  A    between atoms: C_7  and  N_8 
REMARK       I    between atoms: N_8  and  C_9 
REMARK       I    between atoms: C_9  and  N_10 
ROOT
HETATM    1  N   UNL     1     -41.427  54.972 -54.032  1.00  0.00    -0.307 N 
HETATM    2  C   UNL     1     -42.767  55.269 -54.033  1.00  0.00     0.323 C 
HETATM    3  N   UNL     1     -43.131  56.380 -54.787  1.00  0.00    -0.328 N 
HETATM    4  C   UNL     1     -44.511  56.857 -54.604  1.00  0.00     0.185 C 
HETATM    5  C   UNL     1     -44.970  57.547 -55.837  1.00  0.00     0.035 A 
HETATM    6  C   UNL     1     -44.211  57.883 -56.936  1.00  0.00    -0.020 A 
HETATM    7  C   UNL     1     -42.768  57.538 -57.002  1.00  0.00     0.061 C 
HETATM    8  C   UNL     1     -42.225  57.237 -55.589  1.00  0.00     0.132 C 
HETATM    9  N   UNL     1     -46.256  57.951 -56.068  1.00  0.00    -0.357 N 
HETATM   10  H   UNL     1     -47.037  57.823 -55.439  1.00  0.00     0.166 HD
HETATM   11  C   UNL     1     -46.344  58.544 -57.310  1.00  0.00     0.043 A 
HETATM   12  C   UNL     1     -45.066  58.515 -57.877  1.00  0.00    -0.001 A 
HETATM   13  C   UNL     1     -47.450  59.089 -57.970  1.00  0.00     0.030 A 
HETATM   14  C   UNL     1     -47.247  59.621 -59.247  1.00  0.00     0.002 A 
HETATM   15  C   UNL     1     -45.986  59.608 -59.837  1.00  0.00     0.001 A 
HETATM   16  C   UNL     1     -44.887  59.058 -59.164  1.00  0.00     0.014 A 
HETATM   17  O   UNL     1     -43.605  54.621 -53.408  1.00  0.00    -0.247 OA
HETATM   18  H   UNL     1     -40.793  55.748 -54.150  1.00  0.00     0.170 HD
ENDROOT
BRANCH   1  19
HETATM   19  C   UNL     1     -40.817  53.803 -53.507  1.00  0.00     0.058 A 
HETATM   20  C   UNL     1     -40.545  53.737 -52.131  1.00  0.00     0.063 A 
HETATM   21  C   UNL     1     -39.954  52.602 -51.570  1.00  0.00     0.063 A 
HETATM   22 CL   UNL     1     -40.951  55.053 -51.080  1.00  0.00    -0.082 Cl
HETATM   23  C   UNL     1     -39.618  51.513 -52.375  1.00  0.00     0.070 A 
HETATM   24  C   UNL     1     -39.850  51.584 -53.747  1.00  0.00     0.039 A 
HETATM   25  C   UNL     1     -40.443  52.722 -54.309  1.00  0.00     0.034 A 
BRANCH  23  26
HETATM   26  O   UNL     1     -39.062  50.455 -51.711  1.00  0.00    -0.356 OA
HETATM   27  C   UNL     1     -39.800  49.933 -50.611  1.00  0.00     0.210 C 
ENDBRANCH  23  26
ENDBRANCH   1  19
TORSDOF 2
ENDMDL
MODEL 3
REMARK VINA RESULT:      -7.9      2.109      2.803
REMARK  2 active torsions:
REMARK  status: ('A' for Active; 'I' for Inactive)
REMARK    1  A    between atoms: O_2  and  C_3 
REMARK    2  A    between atoms: C_7  and  N_8 
REMARK       I    between atoms: N_8  and  C_9 
REMARK       I    between atoms: C_9  and  N_10 
ROOT
HETATM    1  N   UNL     1     -43.073  58.577 -51.692  1.00  0.00    -0.307 N 
HETATM    2  C   UNL     1     -42.096  57.788 -51.137  1.00  0.00     0.323 C 
HETATM    3  N   UNL     1     -42.161  56.438 -51.464  1.00  0.00    -0.328 N 
HETATM    4  C   UNL     1     -41.283  55.546 -50.692  1.00  0.00     0.185 C 
HETATM    5  C   UNL     1     -40.949  54.346 -51.502  1.00  0.00     0.035 A 
HETATM    6  C   UNL     1     -41.494  53.981 -52.713  1.00  0.00    -0.020 A 
HETATM    7  C   UNL     1     -42.518  54.827 -53.377  1.00  0.00     0.061 C 
HETATM    8  C   UNL     1     -43.155  55.794 -52.356  1.00  0.00     0.132 C 
HETATM    9  N   UNL     1     -40.017  53.409 -51.154  1.00  0.00    -0.357 N 
HETATM   10  H   UNL     1     -39.446  53.425 -50.320  1.00  0.00     0.166 HD
HETATM   11  C   UNL     1     -39.945  52.437 -52.130  1.00  0.00     0.043 A 
HETATM   12  C   UNL     1     -40.868  52.773 -53.123  1.00  0.00    -0.001 A 
HETATM   13  C   UNL     1     -39.131  51.301 -52.209  1.00  0.00     0.030 A 
HETATM   14  C   UNL     1     -39.265  50.485 -53.337  1.00  0.00     0.002 A 
HETATM   15  C   UNL     1     -40.177  50.794 -54.342  1.00  0.00     0.001 A 
HETATM   16  C   UNL     1     -40.985  51.935 -54.249  1.00  0.00     0.014 A 
HETATM   17  O   UNL     1     -41.221  58.221 -50.389  1.00  0.00    -0.247 OA
HETATM   18  H   UNL     1     -43.959  58.132 -51.879  1.00  0.00     0.170 HD
ENDROOT
BRANCH   1  19
HETATM   19  C   UNL     1     -43.131  59.994 -51.676  1.00  0.00     0.058 A 
HETATM   20  C   UNL     1     -42.839  60.701 -52.853  1.00  0.00     0.063 A 
HETATM   21  C   UNL     1     -42.893  62.097 -52.884  1.00  0.00     0.063 A 
HETATM   22 CL   UNL     1     -42.421  59.865 -54.312  1.00  0.00    -0.082 Cl
HETATM   23  C   UNL     1     -43.233  62.814 -51.737  1.00  0.00     0.070 A 
HETATM   24  C   UNL     1     -43.489  62.123 -50.554  1.00  0.00     0.039 A 
HETATM   25  C   UNL     1     -43.436  60.724 -50.524  1.00  0.00     0.034 A 
BRANCH  23  26
HETATM   26  O   UNL     1     -43.269  64.172 -51.896  1.00  0.00    -0.356 OA
HETATM   27  C   UNL     1     -42.851  64.678 -53.158  1.00  0.00     0.210 C 
ENDBRANCH  23  26
ENDBRANCH   1  19
TORSDOF 2
ENDMDL
MODEL 4
REMARK VINA RESULT:      -7.9      2.122      3.043
REMARK  2 active torsions:
REMARK  status: ('A' for Active; 'I' for Inactive)
REMARK    1  A    between atoms: O_2  and  C_3 
REMARK    2  A    between atoms: C_7  and  N_8 
REMARK       I    between atoms: N_8  and  C_9 
REMARK       I    between atoms: C_9  and  N_10 
ROOT
HETATM    1  N   UNL     1     -42.923  60.125 -50.435  1.00  0.00    -0.307 N 
HETATM    2  C   UNL     1     -42.634  59.696 -51.707  1.00  0.00     0.323 C 
HETATM    3  N   UNL     1     -41.831  58.564 -51.788  1.00  0.00    -0.328 N 
HETATM    4  C   UNL     1     -41.311  58.238 -53.126  1.00  0.00     0.185 C 
HETATM    5  C   UNL     1     -41.062  56.777 -53.223  1.00  0.00     0.035 A 
HETATM    6  C   UNL     1     -41.109  55.853 -52.203  1.00  0.00    -0.020 A 
HETATM    7  C   UNL     1     -41.465  56.259 -50.820  1.00  0.00     0.061 C 
HETATM    8  C   UNL     1     -41.290  57.783 -50.649  1.00  0.00     0.132 C 
HETATM    9  N   UNL     1     -40.748  56.119 -54.380  1.00  0.00    -0.357 N 
HETATM   10  H   UNL     1     -40.658  56.541 -55.294  1.00  0.00     0.166 HD
HETATM   11  C   UNL     1     -40.595  54.772 -54.125  1.00  0.00     0.043 A 
HETATM   12  C   UNL     1     -40.816  54.579 -52.758  1.00  0.00    -0.001 A 
HETATM   13  C   UNL     1     -40.290  53.720 -54.996  1.00  0.00     0.030 A 
HETATM   14  C   UNL     1     -40.209  52.433 -54.455  1.00  0.00     0.002 A 
HETATM   15  C   UNL     1     -40.422  52.210 -53.098  1.00  0.00     0.001 A 
HETATM   16  C   UNL     1     -40.727  53.273 -52.238  1.00  0.00     0.014 A 
HETATM   17  O   UNL     1     -43.036  60.266 -52.721  1.00  0.00    -0.247 OA
HETATM   18  H   UNL     1     -42.232  59.928 -49.727  1.00  0.00     0.170 HD
ENDROOT
BRANCH   1  19
HETATM   19  C   UNL     1     -43.857  61.126 -50.068  1.00  0.00     0.058 A 
HETATM   20  C   UNL     1     -45.218  60.789 -49.985  1.00  0.00     0.063 A 
HETATM   21  C   UNL     1     -46.172  61.742 -49.619  1.00  0.00     0.063 A 
HETATM   22 CL   UNL     1     -45.757  59.176 -50.316  1.00  0.00    -0.082 Cl
HETATM   23  C   UNL     1     -45.786  63.052 -49.335  1.00  0.00     0.070 A 
HETATM   24  C   UNL     1     -44.443  63.405 -49.449  1.00  0.00     0.039 A 
HETATM   25  C   UNL     1     -43.487  62.449 -49.816  1.00  0.00     0.034 A 
BRANCH  23  26
HETATM   26  O   UNL     1     -46.805  63.888 -48.971  1.00  0.00    -0.356 OA
HETATM   27  C   UNL     1     -47.725  63.391 -48.006  1.00  0.00     0.210 C 
ENDBRANCH  23  26
ENDBRANCH   1  19
TORSDOF 2
ENDMDL
MODEL 5
REMARK VINA RESULT:      -7.7      2.568      9.232
REMARK  2 active torsions:
REMARK  status: ('A' for Active; 'I' for Inactive)
REMARK    1  A    between atoms: O_2  and  C_3 
REMARK    2  A    between atoms: C_7  and  N_8 
REMARK       I    between atoms: N_8  and  C_9 
REMARK       I    between atoms: C_9  and  N_10 
ROOT
HETATM    1  N   UNL     1     -42.329  55.710 -53.159  1.00  0.00    -0.307 N 
HETATM    2  C   UNL     1     -41.874  57.001 -53.047  1.00  0.00     0.323 C 
HETATM    3  N   UNL     1     -42.820  57.934 -52.641  1.00  0.00    -0.328 N 
HETATM    4  C   UNL     1     -42.421  59.346 -52.752  1.00  0.00     0.185 C 
HETATM    5  C   UNL     1     -43.158  60.156 -51.749  1.00  0.00     0.035 A 
HETATM    6  C   UNL     1     -44.198  59.743 -50.945  1.00  0.00    -0.020 A 
HETATM    7  C   UNL     1     -44.693  58.344 -50.995  1.00  0.00     0.061 C 
HETATM    8  C   UNL     1     -44.239  57.663 -52.303  1.00  0.00     0.132 C 
HETATM    9  N   UNL     1     -42.894  61.467 -51.464  1.00  0.00    -0.357 N 
HETATM   10  H   UNL     1     -42.172  62.031 -51.891  1.00  0.00     0.166 HD
HETATM   11  C   UNL     1     -43.750  61.913 -50.479  1.00  0.00     0.043 A 
HETATM   12  C   UNL     1     -44.583  60.845 -50.135  1.00  0.00    -0.001 A 
HETATM   13  C   UNL     1     -43.840  63.168 -49.865  1.00  0.00     0.030 A 
HETATM   14  C   UNL     1     -44.810  63.336 -48.872  1.00  0.00     0.002 A 
HETATM   15  C   UNL     1     -45.655  62.291 -48.510  1.00  0.00     0.001 A 
HETATM   16  C   UNL     1     -45.553  61.040 -49.133  1.00  0.00     0.014 A 
HETATM   17  O   UNL     1     -40.716  57.334 -53.296  1.00  0.00    -0.247 OA
HETATM   18  H   UNL     1     -43.304  55.596 -53.394  1.00  0.00     0.170 HD
ENDROOT
BRANCH   1  19
HETATM   19  C   UNL     1     -41.544  54.548 -53.371  1.00  0.00     0.058 A 
HETATM   20  C   UNL     1     -41.118  53.803 -52.259  1.00  0.00     0.063 A 
HETATM   21  C   UNL     1     -40.351  52.647 -52.421  1.00  0.00     0.063 A 
HETATM   22 CL   UNL     1     -41.547  54.282 -50.650  1.00  0.00    -0.082 Cl
HETATM   23  C   UNL     1     -39.988  52.216 -53.698  1.00  0.00     0.070 A 
HETATM   24  C   UNL     1     -40.375  52.969 -54.805  1.00  0.00     0.039 A 
HETATM   25  C   UNL     1     -41.145  54.127 -54.642  1.00  0.00     0.034 A 
BRANCH  23  26
HETATM   26  O   UNL     1     -39.253  51.064 -53.730  1.00  0.00    -0.356 OA
HETATM   27  C   UNL     1     -39.814  49.968 -54.443  1.00  0.00     0.210 C 
ENDBRANCH  23  26
ENDBRANCH   1  19
TORSDOF 2
ENDMDL
MODEL 6
REMARK VINA RESULT:      -7.6      2.636      9.310
REMARK  2 active torsions:
REMARK  status: ('A' for Active; 'I' for Inactive)
REMARK    1  A    between atoms: O_2  and  C_3 
REMARK    2  A    between atoms: C_7  and  N_8 
REMARK       I    between atoms: N_8  and  C_9 
REMARK       I    between atoms: C_9  and  N_10 
ROOT
HETATM    1  N   UNL     1     -41.361  55.321 -51.842  1.00  0.00    -0.307 N 
HETATM    2  C   UNL     1     -42.686  55.638 -51.664  1.00  0.00     0.323 C 
HETATM    3  N   UNL     1     -42.948  56.976 -51.396  1.00  0.00    -0.328 N 
HETATM    4  C   UNL     1     -44.319  57.288 -50.962  1.00  0.00     0.185 C 
HETATM    5  C   UNL     1     -44.656  58.687 -51.331  1.00  0.00     0.035 A 
HETATM    6  C   UNL     1     -43.802  59.646 -51.831  1.00  0.00    -0.020 A 
HETATM    7  C   UNL     1     -42.373  59.337 -52.087  1.00  0.00     0.061 C 
HETATM    8  C   UNL     1     -41.952  58.071 -51.311  1.00  0.00     0.132 C 
HETATM    9  N   UNL     1     -45.904  59.237 -51.234  1.00  0.00    -0.357 N 
HETATM   10  H   UNL     1     -46.735  58.762 -50.911  1.00  0.00     0.166 HD
HETATM   11  C   UNL     1     -45.873  60.546 -51.670  1.00  0.00     0.043 A 
HETATM   12  C   UNL     1     -44.558  60.828 -52.050  1.00  0.00    -0.001 A 
HETATM   13  C   UNL     1     -46.905  61.486 -51.763  1.00  0.00     0.030 A 
HETATM   14  C   UNL     1     -46.584  62.753 -52.260  1.00  0.00     0.002 A 
HETATM   15  C   UNL     1     -45.283  63.065 -52.645  1.00  0.00     0.001 A 
HETATM   16  C   UNL     1     -44.260  62.112 -52.546  1.00  0.00     0.014 A 
HETATM   17  O   UNL     1     -43.593  54.809 -51.720  1.00  0.00    -0.247 OA
HETATM   18  H   UNL     1     -40.692  55.891 -51.348  1.00  0.00     0.170 HD
ENDROOT
BRANCH   1  19
HETATM   19  C   UNL     1     -40.838  54.086 -52.304  1.00  0.00     0.058 A 
HETATM   20  C   UNL     1     -40.180  53.243 -51.395  1.00  0.00     0.063 A 
HETATM   21  C   UNL     1     -39.657  52.014 -51.805  1.00  0.00     0.063 A 
HETATM   22 CL   UNL     1     -40.010  53.691 -49.730  1.00  0.00    -0.082 Cl
HETATM   23  C   UNL     1     -39.777  51.606 -53.133  1.00  0.00     0.070 A 
HETATM   24  C   UNL     1     -40.397  52.452 -54.052  1.00  0.00     0.039 A 
HETATM   25  C   UNL     1     -40.921  53.683 -53.640  1.00  0.00     0.034 A 
BRANCH  23  26
HETATM   26  O   UNL     1     -39.243  50.378 -53.410  1.00  0.00    -0.356 OA
HETATM   27  C   UNL     1     -39.705  49.732 -54.591  1.00  0.00     0.210 C 
ENDBRANCH  23  26
ENDBRANCH   1  19
TORSDOF 2
ENDMDL
MODEL 7
REMARK VINA RESULT:      -7.5      4.642      5.183
REMARK  2 active torsions:
REMARK  status: ('A' for Active; 'I' for Inactive)
REMARK    1  A    between atoms: O_2  and  C_3 
REMARK    2  A    between atoms: C_7  and  N_8 
REMARK       I    between atoms: N_8  and  C_9 
REMARK       I    between atoms: C_9  and  N_10 
ROOT
HETATM    1  N   UNL     1     -43.085  57.545 -56.092  1.00  0.00    -0.307 N 
HETATM    2  C   UNL     1     -42.536  56.311 -56.335  1.00  0.00     0.323 C 
HETATM    3  N   UNL     1     -41.747  55.796 -55.312  1.00  0.00    -0.328 N 
HETATM    4  C   UNL     1     -40.957  54.601 -55.648  1.00  0.00     0.185 C 
HETATM    5  C   UNL     1     -40.709  53.803 -54.420  1.00  0.00     0.035 A 
HETATM    6  C   UNL     1     -40.984  54.166 -53.120  1.00  0.00    -0.020 A 
HETATM    7  C   UNL     1     -41.623  55.470 -52.810  1.00  0.00     0.061 C 
HETATM    8  C   UNL     1     -41.471  56.437 -54.004  1.00  0.00     0.132 C 
HETATM    9  N   UNL     1     -40.163  52.549 -54.406  1.00  0.00    -0.357 N 
HETATM   10  H   UNL     1     -39.874  52.021 -55.218  1.00  0.00     0.166 HD
HETATM   11  C   UNL     1     -40.083  52.089 -53.108  1.00  0.00     0.043 A 
HETATM   12  C   UNL     1     -40.594  53.091 -52.278  1.00  0.00    -0.001 A 
HETATM   13  C   UNL     1     -39.611  50.868 -52.614  1.00  0.00     0.030 A 
HETATM   14  C   UNL     1     -39.661  50.664 -51.232  1.00  0.00     0.002 A 
HETATM   15  C   UNL     1     -40.163  51.644 -50.380  1.00  0.00     0.001 A 
HETATM   16  C   UNL     1     -40.633  52.862 -50.889  1.00  0.00     0.014 A 
HETATM   17  O   UNL     1     -42.705  55.689 -57.383  1.00  0.00    -0.247 OA
HETATM   18  H   UNL     1     -42.564  58.157 -55.482  1.00  0.00     0.170 HD
ENDROOT
BRANCH   1  19
HETATM   19  C   UNL     1     -44.065  58.208 -56.874  1.00  0.00     0.058 A 
HETATM   20  C   UNL     1     -43.648  59.047 -57.920  1.00  0.00     0.063 A 
HETATM   21  C   UNL     1     -44.580  59.712 -58.721  1.00  0.00     0.063 A 
HETATM   22 CL   UNL     1     -41.965  59.270 -58.264  1.00  0.00    -0.082 Cl
HETATM   23  C   UNL     1     -45.946  59.556 -58.489  1.00  0.00     0.070 A 
HETATM   24  C   UNL     1     -46.370  58.754 -57.431  1.00  0.00     0.039 A 
HETATM   25  C   UNL     1     -45.435  58.087 -56.628  1.00  0.00     0.034 A 
BRANCH  23  26
HETATM   26  O   UNL     1     -46.759  60.242 -59.349  1.00  0.00    -0.356 OA
HETATM   27  C   UNL     1     -46.621  59.942 -60.733  1.00  0.00     0.210 C 
ENDBRANCH  23  26
ENDBRANCH   1  19
TORSDOF 2
ENDMDL
MODEL 8
REMARK VINA RESULT:      -7.3      2.004      2.450
REMARK  2 active torsions:
REMARK  status: ('A' for Active; 'I' for Inactive)
REMARK    1  A    between atoms: O_2  and  C_3 
REMARK    2  A    between atoms: C_7  and  N_8 
REMARK       I    between atoms: N_8  and  C_9 
REMARK       I    between atoms: C_9  and  N_10 
ROOT
HETATM    1  N   UNL     1     -43.406  59.253 -52.780  1.00  0.00    -0.307 N 
HETATM    2  C   UNL     1     -43.215  58.291 -53.741  1.00  0.00     0.323 C 
HETATM    3  N   UNL     1     -42.207  57.372 -53.474  1.00  0.00    -0.328 N 
HETATM    4  C   UNL     1     -41.825  56.493 -54.591  1.00  0.00     0.185 C 
HETATM    5  C   UNL     1     -41.283  55.216 -54.061  1.00  0.00     0.035 A 
HETATM    6  C   UNL     1     -40.985  54.917 -52.750  1.00  0.00    -0.020 A 
HETATM    7  C   UNL     1     -41.220  55.906 -51.668  1.00  0.00     0.061 C 
HETATM    8  C   UNL     1     -41.354  57.325 -52.262  1.00  0.00     0.132 C 
HETATM    9  N   UNL     1     -41.002  54.116 -54.823  1.00  0.00    -0.357 N 
HETATM   10  H   UNL     1     -41.136  54.040 -55.823  1.00  0.00     0.166 HD
HETATM   11  C   UNL     1     -40.528  53.099 -54.021  1.00  0.00     0.043 A 
HETATM   12  C   UNL     1     -40.506  53.580 -52.708  1.00  0.00    -0.001 A 
HETATM   13  C   UNL     1     -40.131  51.800 -54.355  1.00  0.00     0.030 A 
HETATM   14  C   UNL     1     -39.698  50.967 -53.319  1.00  0.00     0.002 A 
HETATM   15  C   UNL     1     -39.664  51.418 -52.002  1.00  0.00     0.001 A 
HETATM   16  C   UNL     1     -40.065  52.722 -51.682  1.00  0.00     0.014 A 
HETATM   17  O   UNL     1     -43.870  58.235 -54.781  1.00  0.00    -0.247 OA
HETATM   18  H   UNL     1     -42.595  59.516 -52.239  1.00  0.00     0.170 HD
ENDROOT
BRANCH   1  19
HETATM   19  C   UNL     1     -44.472  60.185 -52.711  1.00  0.00     0.058 A 
HETATM   20  C   UNL     1     -45.570  59.903 -51.882  1.00  0.00     0.063 A 
HETATM   21  C   UNL     1     -46.639  60.797 -51.777  1.00  0.00     0.063 A 
HETATM   22 CL   UNL     1     -45.627  58.446 -50.946  1.00  0.00    -0.082 Cl
HETATM   23  C   UNL     1     -46.634  61.988 -52.504  1.00  0.00     0.070 A 
HETATM   24  C   UNL     1     -45.566  62.260 -53.358  1.00  0.00     0.039 A 
HETATM   25  C   UNL     1     -44.495  61.363 -53.462  1.00  0.00     0.034 A 
BRANCH  23  26
HETATM   26  O   UNL     1     -47.724  62.789 -52.306  1.00  0.00    -0.356 OA
HETATM   27  C   UNL     1     -47.615  64.137 -52.747  1.00  0.00     0.210 C 
ENDBRANCH  23  26
ENDBRANCH   1  19
TORSDOF 2
ENDMDL
MODEL 9
REMARK VINA RESULT:      -7.3      6.535      9.875
REMARK  2 active torsions:
REMARK  status: ('A' for Active; 'I' for Inactive)
REMARK    1  A    between atoms: O_2  and  C_3 
REMARK    2  A    between atoms: C_7  and  N_8 
REMARK       I    between atoms: N_8  and  C_9 
REMARK       I    between atoms: C_9  and  N_10 
ROOT
HETATM    1  N   UNL     1     -41.889  56.363 -55.397  1.00  0.00    -0.307 N 
HETATM    2  C   UNL     1     -42.573  56.339 -56.588  1.00  0.00     0.323 C 
HETATM    3  N   UNL     1     -42.767  57.576 -57.191  1.00  0.00    -0.328 N 
HETATM    4  C   UNL     1     -43.701  57.600 -58.327  1.00  0.00     0.185 C 
HETATM    5  C   UNL     1     -43.347  58.713 -59.245  1.00  0.00     0.035 A 
HETATM    6  C   UNL     1     -42.424  59.711 -59.026  1.00  0.00    -0.020 A 
HETATM    7  C   UNL     1     -41.624  59.752 -57.776  1.00  0.00     0.061 C 
HETATM    8  C   UNL     1     -42.292  58.887 -56.686  1.00  0.00     0.132 C 
HETATM    9  N   UNL     1     -43.898  58.905 -60.481  1.00  0.00    -0.357 N 
HETATM   10  H   UNL     1     -44.597  58.317 -60.915  1.00  0.00     0.166 HD
HETATM   11  C   UNL     1     -43.339  60.019 -61.074  1.00  0.00     0.043 A 
HETATM   12  C   UNL     1     -42.407  60.546 -60.175  1.00  0.00    -0.001 A 
HETATM   13  C   UNL     1     -43.581  60.585 -62.330  1.00  0.00     0.030 A 
HETATM   14  C   UNL     1     -42.850  61.725 -62.679  1.00  0.00     0.002 A 
HETATM   15  C   UNL     1     -41.916  62.274 -61.804  1.00  0.00     0.001 A 
HETATM   16  C   UNL     1     -41.684  61.695 -60.550  1.00  0.00     0.014 A 
HETATM   17  O   UNL     1     -43.006  55.306 -57.099  1.00  0.00    -0.247 OA
HETATM   18  H   UNL     1     -41.983  57.200 -54.842  1.00  0.00     0.170 HD
ENDROOT
BRANCH   1  19
HETATM   19  C   UNL     1     -41.399  55.244 -54.677  1.00  0.00     0.058 A 
HETATM   20  C   UNL     1     -41.718  55.118 -53.316  1.00  0.00     0.063 A 
HETATM   21  C   UNL     1     -41.264  54.027 -52.570  1.00  0.00     0.063 A 
HETATM   22 CL   UNL     1     -42.703  56.301 -52.520  1.00  0.00    -0.082 Cl
HETATM   23  C   UNL     1     -40.475  53.045 -53.169  1.00  0.00     0.070 A 
HETATM   24  C   UNL     1     -40.122  53.179 -54.511  1.00  0.00     0.039 A 
HETATM   25  C   UNL     1     -40.579  54.273 -55.257  1.00  0.00     0.034 A 
BRANCH  23  26
HETATM   26  O   UNL     1     -40.107  52.019 -52.343  1.00  0.00    -0.356 OA
HETATM   27  C   UNL     1     -40.135  52.283 -50.945  1.00  0.00     0.210 C 
ENDBRANCH  23  26
ENDBRANCH   1  19
TORSDOF 2
ENDMDL
MODEL 10
REMARK VINA RESULT:      -7.2     16.689     19.155
REMARK  2 active torsions:
REMARK  status: ('A' for Active; 'I' for Inactive)
REMARK    1  A    between atoms: O_2  and  C_3 
REMARK    2  A    between atoms: C_7  and  N_8 
REMARK       I    between atoms: N_8  and  C_9 
REMARK       I    between atoms: C_9  and  N_10 
ROOT
HETATM    1  N   UNL     1     -34.177  40.205 -54.230  1.00  0.00    -0.307 N 
HETATM    2  C   UNL     1     -34.635  39.458 -53.173  1.00  0.00     0.323 C 
HETATM    3  N   UNL     1     -33.689  39.158 -52.200  1.00  0.00    -0.328 N 
HETATM    4  C   UNL     1     -34.093  38.161 -51.195  1.00  0.00     0.185 C 
HETATM    5  C   UNL     1     -33.353  38.397 -49.929  1.00  0.00     0.035 A 
HETATM    6  C   UNL     1     -32.307  39.271 -49.725  1.00  0.00    -0.020 A 
HETATM    7  C   UNL     1     -31.809  40.136 -50.824  1.00  0.00     0.061 C 
HETATM    8  C   UNL     1     -32.268  39.582 -52.190  1.00  0.00     0.132 C 
HETATM    9  N   UNL     1     -33.618  37.767 -48.745  1.00  0.00    -0.357 N 
HETATM   10  H   UNL     1     -34.345  37.081 -48.591  1.00  0.00     0.166 HD
HETATM   11  C   UNL     1     -32.758  38.224 -47.769  1.00  0.00     0.043 A 
HETATM   12  C   UNL     1     -31.920  39.173 -48.362  1.00  0.00    -0.001 A 
HETATM   13  C   UNL     1     -32.669  37.879 -46.416  1.00  0.00     0.030 A 
HETATM   14  C   UNL     1     -31.694  38.521 -45.646  1.00  0.00     0.002 A 
HETATM   15  C   UNL     1     -30.844  39.469 -46.209  1.00  0.00     0.001 A 
HETATM   16  C   UNL     1     -30.946  39.805 -47.565  1.00  0.00     0.014 A 
HETATM   17  O   UNL     1     -35.795  39.059 -53.079  1.00  0.00    -0.247 OA
HETATM   18  H   UNL     1     -33.203  40.095 -54.471  1.00  0.00     0.170 HD
ENDROOT
BRANCH   1  19
HETATM   19  C   UNL     1     -34.960  40.801 -55.251  1.00  0.00     0.058 A 
HETATM   20  C   UNL     1     -34.747  40.416 -56.585  1.00  0.00     0.063 A 
HETATM   21  C   UNL     1     -35.502  40.970 -57.622  1.00  0.00     0.063 A 
HETATM   22 CL   UNL     1     -33.553  39.226 -56.987  1.00  0.00    -0.082 Cl
HETATM   23  C   UNL     1     -36.480  41.925 -57.347  1.00  0.00     0.070 A 
HETATM   24  C   UNL     1     -36.675  42.341 -56.031  1.00  0.00     0.039 A 
HETATM   25  C   UNL     1     -35.918  41.784 -54.992  1.00  0.00     0.034 A 
BRANCH  23  26
HETATM   26  O   UNL     1     -37.165  42.381 -58.439  1.00  0.00    -0.356 OA
HETATM   27  C   UNL     1     -37.241  41.502 -59.556  1.00  0.00     0.210 C 
ENDBRANCH  23  26
ENDBRANCH   1  19
TORSDOF 2
ENDMDL
