MODEL 1
REMARK VINA RESULT:      -9.4      0.000      0.000
REMARK  3 active torsions:
REMARK  status: ('A' for Active; 'I' for Inactive)
REMARK    1  A    between atoms: C_3  and  N_4 
REMARK    2  A    between atoms: C_14  and  N_15 
REMARK       I    between atoms: N_15  and  C_16 
REMARK    3  A    between atoms: C_16  and  C_17 
ROOT
HETATM    1  N   UNL     1     -40.536  52.914 -53.518  1.00  0.00    -0.237 N 
HETATM    2  N   UNL     1     -39.941  53.092 -54.730  1.00  0.00    -0.179 NA
HETATM    3  C   UNL     1     -40.505  54.172 -55.259  1.00  0.00     0.150 A 
HETATM    4  C   UNL     1     -41.484  54.723 -54.427  1.00  0.00     0.008 A 
HETATM    5  C   UNL     1     -41.476  53.919 -53.302  1.00  0.00     0.047 A 
HETATM    6  C   UNL     1     -42.268  54.198 -52.064  1.00  0.00     0.069 C 
HETATM    7  C   UNL     1     -42.766  55.678 -52.032  1.00  0.00    -0.040 C 
HETATM    8  C   UNL     1     -41.627  56.623 -51.601  1.00  0.00     0.015 C 
HETATM    9  C   UNL     1     -43.898  55.794 -50.993  1.00  0.00     0.015 C 
HETATM   10  C   UNL     1     -43.324  56.090 -53.428  1.00  0.00     0.039 C 
HETATM   11  C   UNL     1     -42.298  55.961 -54.579  1.00  0.00     0.122 C 
ENDROOT
BRANCH  11  12
HETATM   12  N   UNL     1     -42.973  55.907 -55.860  1.00  0.00    -0.347 N 
HETATM   13  C   UNL     1     -42.838  56.921 -56.773  1.00  0.00     0.270 C 
HETATM   14  O   UNL     1     -42.098  57.888 -56.613  1.00  0.00    -0.266 OA
HETATM   15  H   UNL     1     -43.676  55.194 -55.987  1.00  0.00     0.163 HD
BRANCH  13  16
HETATM   16  C   UNL     1     -43.662  56.803 -58.003  1.00  0.00     0.120 A 
HETATM   17  N   UNL     1     -43.340  55.886 -58.979  1.00  0.00    -0.303 N 
HETATM   18  C   UNL     1     -44.262  55.969 -60.023  1.00  0.00     0.324 A 
HETATM   19  H   UNL     1     -42.558  55.249 -58.935  1.00  0.00     0.171 HD
HETATM   20  O   UNL     1     -44.297  55.317 -61.049  1.00  0.00    -0.247 OA
HETATM   21  N   UNL     1     -45.148  56.980 -59.625  1.00  0.00    -0.316 N 
HETATM   22  C   UNL     1     -44.763  57.465 -58.398  1.00  0.00     0.128 A 
HETATM   23  H   UNL     1     -45.937  57.271 -60.182  1.00  0.00     0.170 HD
ENDBRANCH  13  16
ENDBRANCH  11  12
BRANCH   1  24
HETATM   24  C   UNL     1     -40.180  51.795 -52.695  1.00  0.00     0.064 A 
HETATM   25  C   UNL     1     -39.949  50.506 -53.239  1.00  0.00    -0.033 A 
HETATM   26  C   UNL     1     -39.996  50.184 -54.710  1.00  0.00     0.050 C 
HETATM   27  C   UNL     1     -39.633  49.444 -52.366  1.00  0.00     0.009 A 
HETATM   28  C   UNL     1     -39.531  49.641 -50.991  1.00  0.00     0.001 A 
HETATM   29  C   UNL     1     -39.759  50.902 -50.459  1.00  0.00     0.002 A 
HETATM   30  C   UNL     1     -40.087  51.967 -51.302  1.00  0.00     0.032 A 
ENDBRANCH   1  24
TORSDOF 3
ENDMDL
MODEL 2
REMARK VINA RESULT:      -9.4      1.492      2.034
REMARK  3 active torsions:
REMARK  status: ('A' for Active; 'I' for Inactive)
REMARK    1  A    between atoms: C_3  and  N_4 
REMARK    2  A    between atoms: C_14  and  N_15 
REMARK       I    between atoms: N_15  and  C_16 
REMARK    3  A    between atoms: C_16  and  C_17 
ROOT
HETATM    1  N   UNL     1     -40.699  53.443 -53.787  1.00  0.00    -0.237 N 
HETATM    2  N   UNL     1     -40.107  54.057 -54.849  1.00  0.00    -0.179 NA
HETATM    3  C   UNL     1     -40.730  55.223 -54.990  1.00  0.00     0.150 A 
HETATM    4  C   UNL     1     -41.745  55.401 -54.045  1.00  0.00     0.008 A 
HETATM    5  C   UNL     1     -41.697  54.261 -53.264  1.00  0.00     0.047 A 
HETATM    6  C   UNL     1     -42.512  54.055 -52.026  1.00  0.00     0.069 C 
HETATM    7  C   UNL     1     -43.095  55.406 -51.501  1.00  0.00    -0.040 C 
HETATM    8  C   UNL     1     -42.016  56.203 -50.744  1.00  0.00     0.015 C 
HETATM    9  C   UNL     1     -44.239  55.098 -50.516  1.00  0.00     0.015 C 
HETATM   10  C   UNL     1     -43.668  56.242 -52.685  1.00  0.00     0.039 C 
HETATM   11  C   UNL     1     -42.629  56.572 -53.784  1.00  0.00     0.122 C 
ENDROOT
BRANCH  11  12
HETATM   12  N   UNL     1     -43.292  56.926 -55.023  1.00  0.00    -0.347 N 
HETATM   13  C   UNL     1     -42.988  58.091 -55.678  1.00  0.00     0.270 C 
HETATM   14  O   UNL     1     -42.106  58.866 -55.317  1.00  0.00    -0.266 OA
HETATM   15  H   UNL     1     -44.098  56.382 -55.293  1.00  0.00     0.163 HD
BRANCH  13  16
HETATM   16  C   UNL     1     -43.809  58.396 -56.878  1.00  0.00     0.120 A 
HETATM   17  N   UNL     1     -44.779  57.516 -57.306  1.00  0.00    -0.303 N 
HETATM   18  C   UNL     1     -45.407  58.029 -58.442  1.00  0.00     0.324 A 
HETATM   19  H   UNL     1     -45.001  56.641 -56.857  1.00  0.00     0.171 HD
HETATM   20  O   UNL     1     -46.308  57.533 -59.091  1.00  0.00    -0.247 OA
HETATM   21  N   UNL     1     -44.765  59.253 -58.673  1.00  0.00    -0.316 N 
HETATM   22  C   UNL     1     -43.804  59.452 -57.709  1.00  0.00     0.128 A 
HETATM   23  H   UNL     1     -45.007  59.867 -59.436  1.00  0.00     0.170 HD
ENDBRANCH  13  16
ENDBRANCH  11  12
BRANCH   1  24
HETATM   24  C   UNL     1     -40.284  52.129 -53.389  1.00  0.00     0.064 A 
HETATM   25  C   UNL     1     -39.743  51.870 -52.104  1.00  0.00    -0.033 A 
HETATM   26  C   UNL     1     -39.595  52.906 -51.019  1.00  0.00     0.050 C 
HETATM   27  C   UNL     1     -39.328  50.559 -51.791  1.00  0.00     0.009 A 
HETATM   28  C   UNL     1     -39.451  49.520 -52.710  1.00  0.00     0.001 A 
HETATM   29  C   UNL     1     -39.978  49.774 -53.967  1.00  0.00     0.002 A 
HETATM   30  C   UNL     1     -40.385  51.067 -54.307  1.00  0.00     0.032 A 
ENDBRANCH   1  24
TORSDOF 3
ENDMDL
MODEL 3
REMARK VINA RESULT:      -8.9      4.978      7.326
REMARK  3 active torsions:
REMARK  status: ('A' for Active; 'I' for Inactive)
REMARK    1  A    between atoms: C_3  and  N_4 
REMARK    2  A    between atoms: C_14  and  N_15 
REMARK       I    between atoms: N_15  and  C_16 
REMARK    3  A    between atoms: C_16  and  C_17 
ROOT
HETATM    1  N   UNL     1     -42.639  55.193 -51.980  1.00  0.00    -0.237 N 
HETATM    2  N   UNL     1     -43.560  54.964 -51.003  1.00  0.00    -0.179 NA
HETATM    3  C   UNL     1     -44.216  56.109 -50.844  1.00  0.00     0.150 A 
HETATM    4  C   UNL     1     -43.742  57.115 -51.690  1.00  0.00     0.008 A 
HETATM    5  C   UNL     1     -42.747  56.506 -52.432  1.00  0.00     0.047 A 
HETATM    6  C   UNL     1     -42.034  57.155 -53.576  1.00  0.00     0.069 C 
HETATM    7  C   UNL     1     -42.812  58.409 -54.089  1.00  0.00    -0.040 C 
HETATM    8  C   UNL     1     -43.998  57.985 -54.976  1.00  0.00     0.015 C 
HETATM    9  C   UNL     1     -41.857  59.262 -54.947  1.00  0.00     0.015 C 
HETATM   10  C   UNL     1     -43.304  59.268 -52.885  1.00  0.00     0.039 C 
HETATM   11  C   UNL     1     -44.229  58.507 -51.905  1.00  0.00     0.122 C 
ENDROOT
BRANCH  11  12
HETATM   12  N   UNL     1     -44.273  59.176 -50.621  1.00  0.00    -0.347 N 
HETATM   13  C   UNL     1     -45.364  59.918 -50.248  1.00  0.00     0.270 C 
HETATM   14  O   UNL     1     -46.387  60.011 -50.921  1.00  0.00    -0.266 OA
HETATM   15  H   UNL     1     -43.416  59.224 -50.090  1.00  0.00     0.163 HD
BRANCH  13  16
HETATM   16  C   UNL     1     -45.247  60.644 -48.958  1.00  0.00     0.120 A 
HETATM   17  N   UNL     1     -45.594  60.030 -47.774  1.00  0.00    -0.303 N 
HETATM   18  C   UNL     1     -45.393  60.913 -46.713  1.00  0.00     0.324 A 
HETATM   19  H   UNL     1     -45.935  59.083 -47.694  1.00  0.00     0.171 HD
HETATM   20  O   UNL     1     -45.589  60.722 -45.528  1.00  0.00    -0.247 OA
HETATM   21  N   UNL     1     -44.912  62.082 -47.318  1.00  0.00    -0.316 N 
HETATM   22  C   UNL     1     -44.830  61.890 -48.677  1.00  0.00     0.128 A 
HETATM   23  H   UNL     1     -44.668  62.912 -46.798  1.00  0.00     0.170 HD
ENDBRANCH  13  16
ENDBRANCH  11  12
BRANCH   1  24
HETATM   24  C   UNL     1     -41.726  54.158 -52.370  1.00  0.00     0.064 A 
HETATM   25  C   UNL     1     -41.793  53.539 -53.644  1.00  0.00    -0.033 A 
HETATM   26  C   UNL     1     -42.770  53.923 -54.726  1.00  0.00     0.050 C 
HETATM   27  C   UNL     1     -40.882  52.507 -53.949  1.00  0.00     0.009 A 
HETATM   28  C   UNL     1     -39.916  52.097 -53.033  1.00  0.00     0.001 A 
HETATM   29  C   UNL     1     -39.852  52.702 -51.786  1.00  0.00     0.002 A 
HETATM   30  C   UNL     1     -40.752  53.718 -51.455  1.00  0.00     0.032 A 
ENDBRANCH   1  24
TORSDOF 3
ENDMDL
MODEL 4
REMARK VINA RESULT:      -8.9      1.467      1.874
REMARK  3 active torsions:
REMARK  status: ('A' for Active; 'I' for Inactive)
REMARK    1  A    between atoms: C_3  and  N_4 
REMARK    2  A    between atoms: C_14  and  N_15 
REMARK       I    between atoms: N_15  and  C_16 
REMARK    3  A    between atoms: C_16  and  C_17 
ROOT
HETATM    1  N   UNL     1     -41.136  54.252 -53.883  1.00  0.00    -0.237 N 
HETATM    2  N   UNL     1     -40.587  54.179 -55.128  1.00  0.00    -0.179 NA
HETATM    3  C   UNL     1     -41.246  55.063 -55.870  1.00  0.00     0.150 A 
HETATM    4  C   UNL     1     -42.243  55.726 -55.148  1.00  0.00     0.008 A 
HETATM    5  C   UNL     1     -42.145  55.213 -53.868  1.00  0.00     0.047 A 
HETATM    6  C   UNL     1     -42.924  55.721 -52.696  1.00  0.00     0.069 C 
HETATM    7  C   UNL     1     -43.533  57.130 -52.990  1.00  0.00    -0.040 C 
HETATM    8  C   UNL     1     -42.459  58.225 -52.841  1.00  0.00     0.015 C 
HETATM    9  C   UNL     1     -44.644  57.410 -51.960  1.00  0.00     0.015 C 
HETATM   10  C   UNL     1     -44.156  57.161 -54.418  1.00  0.00     0.039 C 
HETATM   11  C   UNL     1     -43.153  56.835 -55.551  1.00  0.00     0.122 C 
ENDROOT
BRANCH  11  12
HETATM   12  N   UNL     1     -43.855  56.433 -56.753  1.00  0.00    -0.347 N 
HETATM   13  C   UNL     1     -43.562  57.004 -57.965  1.00  0.00     0.270 C 
HETATM   14  O   UNL     1     -42.661  57.822 -58.134  1.00  0.00    -0.266 OA
HETATM   15  H   UNL     1     -44.674  55.855 -56.644  1.00  0.00     0.163 HD
BRANCH  13  16
HETATM   16  C   UNL     1     -44.421  56.589 -59.103  1.00  0.00     0.120 A 
HETATM   17  N   UNL     1     -45.794  56.608 -58.991  1.00  0.00    -0.303 N 
HETATM   18  C   UNL     1     -46.368  56.180 -60.188  1.00  0.00     0.324 A 
HETATM   19  H   UNL     1     -46.300  56.896 -58.166  1.00  0.00     0.171 HD
HETATM   20  O   UNL     1     -47.548  56.068 -60.458  1.00  0.00    -0.247 OA
HETATM   21  N   UNL     1     -45.274  55.903 -61.020  1.00  0.00    -0.316 N 
HETATM   22  C   UNL     1     -44.108  56.162 -60.339  1.00  0.00     0.128 A 
HETATM   23  H   UNL     1     -45.372  55.572 -61.968  1.00  0.00     0.170 HD
ENDBRANCH  13  16
ENDBRANCH  11  12
BRANCH   1  24
HETATM   24  C   UNL     1     -40.675  53.386 -52.837  1.00  0.00     0.064 A 
HETATM   25  C   UNL     1     -40.252  52.058 -53.095  1.00  0.00    -0.033 A 
HETATM   26  C   UNL     1     -40.188  51.436 -54.466  1.00  0.00     0.050 C 
HETATM   27  C   UNL     1     -39.839  51.252 -52.012  1.00  0.00     0.009 A 
HETATM   28  C   UNL     1     -39.828  51.740 -50.708  1.00  0.00     0.001 A 
HETATM   29  C   UNL     1     -40.243  53.039 -50.456  1.00  0.00     0.002 A 
HETATM   30  C   UNL     1     -40.670  53.853 -51.510  1.00  0.00     0.032 A 
ENDBRANCH   1  24
TORSDOF 3
ENDMDL
MODEL 5
REMARK VINA RESULT:      -8.3      2.899      8.100
REMARK  3 active torsions:
REMARK  status: ('A' for Active; 'I' for Inactive)
REMARK    1  A    between atoms: C_3  and  N_4 
REMARK    2  A    between atoms: C_14  and  N_15 
REMARK       I    between atoms: N_15  and  C_16 
REMARK    3  A    between atoms: C_16  and  C_17 
ROOT
HETATM    1  N   UNL     1     -42.908  57.175 -57.697  1.00  0.00    -0.237 N 
HETATM    2  N   UNL     1     -43.265  55.873 -57.875  1.00  0.00    -0.179 NA
HETATM    3  C   UNL     1     -43.116  55.288 -56.691  1.00  0.00     0.150 A 
HETATM    4  C   UNL     1     -42.650  56.174 -55.715  1.00  0.00     0.008 A 
HETATM    5  C   UNL     1     -42.544  57.387 -56.369  1.00  0.00     0.047 A 
HETATM    6  C   UNL     1     -42.210  58.680 -55.694  1.00  0.00     0.069 C 
HETATM    7  C   UNL     1     -42.402  58.577 -54.147  1.00  0.00    -0.040 C 
HETATM    8  C   UNL     1     -43.894  58.688 -53.778  1.00  0.00     0.015 C 
HETATM    9  C   UNL     1     -41.659  59.750 -53.480  1.00  0.00     0.015 C 
HETATM   10  C   UNL     1     -41.802  57.239 -53.617  1.00  0.00     0.039 C 
HETATM   11  C   UNL     1     -42.423  55.974 -54.256  1.00  0.00     0.122 C 
ENDROOT
BRANCH  11  12
HETATM   12  N   UNL     1     -41.546  54.833 -54.085  1.00  0.00    -0.347 N 
HETATM   13  C   UNL     1     -41.828  53.859 -53.163  1.00  0.00     0.270 C 
HETATM   14  O   UNL     1     -42.850  53.838 -52.483  1.00  0.00    -0.266 OA
HETATM   15  H   UNL     1     -40.644  54.867 -54.535  1.00  0.00     0.163 HD
BRANCH  13  16
HETATM   16  C   UNL     1     -40.801  52.797 -53.004  1.00  0.00     0.120 A 
HETATM   17  N   UNL     1     -40.581  51.878 -54.006  1.00  0.00    -0.303 N 
HETATM   18  C   UNL     1     -39.572  50.995 -53.619  1.00  0.00     0.324 A 
HETATM   19  H   UNL     1     -41.073  51.858 -54.887  1.00  0.00     0.171 HD
HETATM   20  O   UNL     1     -39.112  50.059 -54.243  1.00  0.00    -0.247 OA
HETATM   21  N   UNL     1     -39.202  51.429 -52.338  1.00  0.00    -0.316 N 
HETATM   22  C   UNL     1     -39.959  52.523 -51.992  1.00  0.00     0.128 A 
HETATM   23  H   UNL     1     -38.481  50.983 -51.792  1.00  0.00     0.170 HD
ENDBRANCH  13  16
ENDBRANCH  11  12
BRANCH   1  24
HETATM   24  C   UNL     1     -42.915  58.085 -58.805  1.00  0.00     0.064 A 
HETATM   25  C   UNL     1     -43.973  59.005 -59.014  1.00  0.00    -0.033 A 
HETATM   26  C   UNL     1     -45.154  59.166 -58.092  1.00  0.00     0.050 C 
HETATM   27  C   UNL     1     -43.928  59.850 -60.143  1.00  0.00     0.009 A 
HETATM   28  C   UNL     1     -42.865  59.806 -61.041  1.00  0.00     0.001 A 
HETATM   29  C   UNL     1     -41.831  58.904 -60.837  1.00  0.00     0.002 A 
HETATM   30  C   UNL     1     -41.858  58.047 -59.734  1.00  0.00     0.032 A 
ENDBRANCH   1  24
TORSDOF 3
ENDMDL
MODEL 6
REMARK VINA RESULT:      -8.0      3.793      8.008
REMARK  3 active torsions:
REMARK  status: ('A' for Active; 'I' for Inactive)
REMARK    1  A    between atoms: C_3  and  N_4 
REMARK    2  A    between atoms: C_14  and  N_15 
REMARK       I    between atoms: N_15  and  C_16 
REMARK    3  A    between atoms: C_16  and  C_17 
ROOT
HETATM    1  N   UNL     1     -43.427  57.469 -57.049  1.00  0.00    -0.237 N 
HETATM    2  N   UNL     1     -43.270  58.816 -56.932  1.00  0.00    -0.179 NA
HETATM    3  C   UNL     1     -42.820  59.025 -55.699  1.00  0.00     0.150 A 
HETATM    4  C   UNL     1     -42.683  57.838 -54.974  1.00  0.00     0.008 A 
HETATM    5  C   UNL     1     -43.052  56.844 -55.861  1.00  0.00     0.047 A 
HETATM    6  C   UNL     1     -42.936  55.379 -55.580  1.00  0.00     0.069 C 
HETATM    7  C   UNL     1     -41.987  55.109 -54.369  1.00  0.00    -0.040 C 
HETATM    8  C   UNL     1     -40.512  55.215 -54.803  1.00  0.00     0.015 C 
HETATM    9  C   UNL     1     -42.233  53.675 -53.862  1.00  0.00     0.015 C 
HETATM   10  C   UNL     1     -42.293  56.107 -53.211  1.00  0.00     0.039 C 
HETATM   11  C   UNL     1     -42.142  57.596 -53.606  1.00  0.00     0.122 C 
ENDROOT
BRANCH  11  12
HETATM   12  N   UNL     1     -42.860  58.445 -52.678  1.00  0.00    -0.347 N 
HETATM   13  C   UNL     1     -42.236  59.496 -52.055  1.00  0.00     0.270 C 
HETATM   14  O   UNL     1     -41.078  59.834 -52.284  1.00  0.00    -0.266 OA
HETATM   15  H   UNL     1     -43.772  58.139 -52.374  1.00  0.00     0.163 HD
BRANCH  13  16
HETATM   16  C   UNL     1     -43.045  60.226 -51.046  1.00  0.00     0.120 A 
HETATM   17  N   UNL     1     -44.239  59.709 -50.595  1.00  0.00    -0.303 N 
HETATM   18  C   UNL     1     -44.800  60.575 -49.656  1.00  0.00     0.324 A 
HETATM   19  H   UNL     1     -44.638  58.832 -50.898  1.00  0.00     0.171 HD
HETATM   20  O   UNL     1     -45.845  60.449 -49.047  1.00  0.00    -0.247 OA
HETATM   21  N   UNL     1     -43.886  61.634 -49.569  1.00  0.00    -0.316 N 
HETATM   22  C   UNL     1     -42.831  61.395 -50.418  1.00  0.00     0.128 A 
HETATM   23  H   UNL     1     -44.017  62.426 -48.958  1.00  0.00     0.170 HD
ENDBRANCH  13  16
ENDBRANCH  11  12
BRANCH   1  24
HETATM   24  C   UNL     1     -43.945  56.904 -58.261  1.00  0.00     0.064 A 
HETATM   25  C   UNL     1     -45.270  57.154 -58.699  1.00  0.00    -0.033 A 
HETATM   26  C   UNL     1     -46.243  58.060 -57.991  1.00  0.00     0.050 C 
HETATM   27  C   UNL     1     -45.723  56.541 -59.886  1.00  0.00     0.009 A 
HETATM   28  C   UNL     1     -44.893  55.711 -60.636  1.00  0.00     0.001 A 
HETATM   29  C   UNL     1     -43.597  55.465 -60.206  1.00  0.00     0.002 A 
HETATM   30  C   UNL     1     -43.130  56.050 -59.027  1.00  0.00     0.032 A 
ENDBRANCH   1  24
TORSDOF 3
ENDMDL
MODEL 7
REMARK VINA RESULT:      -7.8      3.096      4.332
REMARK  3 active torsions:
REMARK  status: ('A' for Active; 'I' for Inactive)
REMARK    1  A    between atoms: C_3  and  N_4 
REMARK    2  A    between atoms: C_14  and  N_15 
REMARK       I    between atoms: N_15  and  C_16 
REMARK    3  A    between atoms: C_16  and  C_17 
ROOT
HETATM    1  N   UNL     1     -42.522  56.646 -53.204  1.00  0.00    -0.237 N 
HETATM    2  N   UNL     1     -41.886  56.380 -54.379  1.00  0.00    -0.179 NA
HETATM    3  C   UNL     1     -42.451  57.170 -55.286  1.00  0.00     0.150 A 
HETATM    4  C   UNL     1     -43.469  57.960 -54.744  1.00  0.00     0.008 A 
HETATM    5  C   UNL     1     -43.487  57.631 -53.402  1.00  0.00     0.047 A 
HETATM    6  C   UNL     1     -44.328  58.324 -52.377  1.00  0.00     0.069 C 
HETATM    7  C   UNL     1     -44.854  59.696 -52.910  1.00  0.00    -0.040 C 
HETATM    8  C   UNL     1     -43.748  60.767 -52.831  1.00  0.00     0.015 C 
HETATM    9  C   UNL     1     -46.025  60.154 -52.020  1.00  0.00     0.015 C 
HETATM   10  C   UNL     1     -45.369  59.543 -54.374  1.00  0.00     0.039 C 
HETATM   11  C   UNL     1     -44.299  59.029 -55.367  1.00  0.00     0.122 C 
ENDROOT
BRANCH  11  12
HETATM   12  N   UNL     1     -44.927  58.483 -56.553  1.00  0.00    -0.347 N 
HETATM   13  C   UNL     1     -44.439  58.765 -57.803  1.00  0.00     0.270 C 
HETATM   14  O   UNL     1     -43.420  59.421 -58.005  1.00  0.00    -0.266 OA
HETATM   15  H   UNL     1     -45.826  58.038 -56.444  1.00  0.00     0.163 HD
BRANCH  13  16
HETATM   16  C   UNL     1     -45.229  58.237 -58.945  1.00  0.00     0.120 A 
HETATM   17  N   UNL     1     -46.066  57.155 -58.778  1.00  0.00    -0.303 N 
HETATM   18  C   UNL     1     -46.692  56.858 -59.989  1.00  0.00     0.324 A 
HETATM   19  H   UNL     1     -46.204  56.663 -57.908  1.00  0.00     0.171 HD
HETATM   20  O   UNL     1     -47.494  55.974 -60.223  1.00  0.00    -0.247 OA
HETATM   21  N   UNL     1     -46.189  57.811 -60.885  1.00  0.00    -0.316 N 
HETATM   22  C   UNL     1     -45.308  58.635 -60.226  1.00  0.00     0.128 A 
HETATM   23  H   UNL     1     -46.464  57.854 -61.855  1.00  0.00     0.170 HD
ENDBRANCH  13  16
ENDBRANCH  11  12
BRANCH   1  24
HETATM   24  C   UNL     1     -42.176  55.923 -52.015  1.00  0.00     0.064 A 
HETATM   25  C   UNL     1     -41.357  56.488 -51.004  1.00  0.00    -0.033 A 
HETATM   26  C   UNL     1     -40.814  57.893 -51.036  1.00  0.00     0.050 C 
HETATM   27  C   UNL     1     -41.032  55.707 -49.875  1.00  0.00     0.009 A 
HETATM   28  C   UNL     1     -41.509  54.408 -49.729  1.00  0.00     0.001 A 
HETATM   29  C   UNL     1     -42.309  53.855 -50.719  1.00  0.00     0.002 A 
HETATM   30  C   UNL     1     -42.634  54.603 -51.854  1.00  0.00     0.032 A 
ENDBRANCH   1  24
TORSDOF 3
ENDMDL
MODEL 8
REMARK VINA RESULT:      -7.6     14.550     17.267
REMARK  3 active torsions:
REMARK  status: ('A' for Active; 'I' for Inactive)
REMARK    1  A    between atoms: C_3  and  N_4 
REMARK    2  A    between atoms: C_14  and  N_15 
REMARK       I    between atoms: N_15  and  C_16 
REMARK    3  A    between atoms: C_16  and  C_17 
ROOT
HETATM    1  N   UNL     1     -37.452  40.809 -54.406  1.00  0.00    -0.237 N 
HETATM    2  N   UNL     1     -38.336  41.586 -53.721  1.00  0.00    -0.179 NA
HETATM    3  C   UNL     1     -38.294  41.164 -52.462  1.00  0.00     0.150 A 
HETATM    4  C   UNL     1     -37.403  40.101 -52.286  1.00  0.00     0.008 A 
HETATM    5  C   UNL     1     -36.851  39.900 -53.538  1.00  0.00     0.047 A 
HETATM    6  C   UNL     1     -35.731  38.949 -53.821  1.00  0.00     0.069 C 
HETATM    7  C   UNL     1     -34.999  38.529 -52.507  1.00  0.00    -0.040 C 
HETATM    8  C   UNL     1     -34.034  39.639 -52.047  1.00  0.00     0.015 C 
HETATM    9  C   UNL     1     -34.169  37.263 -52.789  1.00  0.00     0.015 C 
HETATM   10  C   UNL     1     -36.038  38.207 -51.390  1.00  0.00     0.039 C 
HETATM   11  C   UNL     1     -36.983  39.384 -51.049  1.00  0.00     0.122 C 
ENDROOT
BRANCH  11  12
HETATM   12  N   UNL     1     -38.173  38.905 -50.377  1.00  0.00    -0.347 N 
HETATM   13  C   UNL     1     -38.218  38.802 -49.010  1.00  0.00     0.270 C 
HETATM   14  O   UNL     1     -37.309  39.165 -48.268  1.00  0.00    -0.266 OA
HETATM   15  H   UNL     1     -38.895  38.489 -50.945  1.00  0.00     0.163 HD
BRANCH  13  16
HETATM   16  C   UNL     1     -39.451  38.197 -48.444  1.00  0.00     0.120 A 
HETATM   17  N   UNL     1     -40.608  38.936 -48.333  1.00  0.00    -0.303 N 
HETATM   18  C   UNL     1     -41.616  38.147 -47.778  1.00  0.00     0.324 A 
HETATM   19  H   UNL     1     -40.705  39.899 -48.618  1.00  0.00     0.171 HD
HETATM   20  O   UNL     1     -42.766  38.459 -47.533  1.00  0.00    -0.247 OA
HETATM   21  N   UNL     1     -41.006  36.904 -47.561  1.00  0.00    -0.316 N 
HETATM   22  C   UNL     1     -39.697  36.961 -47.976  1.00  0.00     0.128 A 
HETATM   23  H   UNL     1     -41.492  36.113 -47.165  1.00  0.00     0.170 HD
ENDBRANCH  13  16
ENDBRANCH  11  12
BRANCH   1  24
HETATM   24  C   UNL     1     -37.284  40.980 -55.820  1.00  0.00     0.064 A 
HETATM   25  C   UNL     1     -36.226  41.752 -56.362  1.00  0.00    -0.033 A 
HETATM   26  C   UNL     1     -35.154  42.421 -55.541  1.00  0.00     0.050 C 
HETATM   27  C   UNL     1     -36.140  41.902 -57.762  1.00  0.00     0.009 A 
HETATM   28  C   UNL     1     -37.060  41.298 -58.615  1.00  0.00     0.001 A 
HETATM   29  C   UNL     1     -38.096  40.544 -58.084  1.00  0.00     0.002 A 
HETATM   30  C   UNL     1     -38.212  40.391 -56.700  1.00  0.00     0.032 A 
ENDBRANCH   1  24
TORSDOF 3
ENDMDL
MODEL 9
REMARK VINA RESULT:      -7.6     14.473     17.471
REMARK  3 active torsions:
REMARK  status: ('A' for Active; 'I' for Inactive)
REMARK    1  A    between atoms: C_3  and  N_4 
REMARK    2  A    between atoms: C_14  and  N_15 
REMARK       I    between atoms: N_15  and  C_16 
REMARK    3  A    between atoms: C_16  and  C_17 
ROOT
HETATM    1  N   UNL     1     -36.411  40.955 -56.198  1.00  0.00    -0.237 N 
HETATM    2  N   UNL     1     -37.014  41.718 -55.244  1.00  0.00    -0.179 NA
HETATM    3  C   UNL     1     -36.388  41.438 -54.105  1.00  0.00     0.150 A 
HETATM    4  C   UNL     1     -35.378  40.486 -54.272  1.00  0.00     0.008 A 
HETATM    5  C   UNL     1     -35.388  40.203 -55.625  1.00  0.00     0.047 A 
HETATM    6  C   UNL     1     -34.382  39.332 -56.310  1.00  0.00     0.069 C 
HETATM    7  C   UNL     1     -33.115  39.125 -55.420  1.00  0.00    -0.040 C 
HETATM    8  C   UNL     1     -32.197  40.361 -55.489  1.00  0.00     0.015 C 
HETATM    9  C   UNL     1     -32.327  37.916 -55.960  1.00  0.00     0.015 C 
HETATM   10  C   UNL     1     -33.532  38.831 -53.947  1.00  0.00     0.039 C 
HETATM   11  C   UNL     1     -34.386  39.948 -53.300  1.00  0.00     0.122 C 
ENDROOT
BRANCH  11  12
HETATM   12  N   UNL     1     -35.107  39.437 -52.151  1.00  0.00    -0.347 N 
HETATM   13  C   UNL     1     -35.050  40.078 -50.940  1.00  0.00     0.270 C 
HETATM   14  O   UNL     1     -34.462  41.141 -50.758  1.00  0.00    -0.266 OA
HETATM   15  H   UNL     1     -35.505  38.513 -52.223  1.00  0.00     0.163 HD
BRANCH  13  16
HETATM   16  C   UNL     1     -35.742  39.401 -49.813  1.00  0.00     0.120 A 
HETATM   17  N   UNL     1     -37.072  39.652 -49.554  1.00  0.00    -0.303 N 
HETATM   18  C   UNL     1     -37.485  38.898 -48.456  1.00  0.00     0.324 A 
HETATM   19  H   UNL     1     -37.653  40.282 -50.087  1.00  0.00     0.171 HD
HETATM   20  O   UNL     1     -38.586  38.860 -47.941  1.00  0.00    -0.247 OA
HETATM   21  N   UNL     1     -36.340  38.187 -48.070  1.00  0.00    -0.316 N 
HETATM   22  C   UNL     1     -35.301  38.509 -48.911  1.00  0.00     0.128 A 
HETATM   23  H   UNL     1     -36.326  37.544 -47.293  1.00  0.00     0.170 HD
ENDBRANCH  13  16
ENDBRANCH  11  12
BRANCH   1  24
HETATM   24  C   UNL     1     -36.881  40.987 -57.553  1.00  0.00     0.064 A 
HETATM   25  C   UNL     1     -37.472  39.856 -58.169  1.00  0.00    -0.033 A 
HETATM   26  C   UNL     1     -37.718  38.541 -57.476  1.00  0.00     0.050 C 
HETATM   27  C   UNL     1     -37.884  39.950 -59.515  1.00  0.00     0.009 A 
HETATM   28  C   UNL     1     -37.734  41.130 -60.239  1.00  0.00     0.001 A 
HETATM   29  C   UNL     1     -37.154  42.237 -59.636  1.00  0.00     0.002 A 
HETATM   30  C   UNL     1     -36.725  42.164 -58.308  1.00  0.00     0.032 A 
ENDBRANCH   1  24
TORSDOF 3
ENDMDL
MODEL 10
REMARK VINA RESULT:      -7.5      4.209      8.285
REMARK  3 active torsions:
REMARK  status: ('A' for Active; 'I' for Inactive)
REMARK    1  A    between atoms: C_3  and  N_4 
REMARK    2  A    between atoms: C_14  and  N_15 
REMARK       I    between atoms: N_15  and  C_16 
REMARK    3  A    between atoms: C_16  and  C_17 
ROOT
HETATM    1  N   UNL     1     -42.342  59.787 -51.962  1.00  0.00    -0.237 N 
HETATM    2  N   UNL     1     -41.055  59.509 -51.614  1.00  0.00    -0.179 NA
HETATM    3  C   UNL     1     -40.729  58.404 -52.276  1.00  0.00     0.150 A 
HETATM    4  C   UNL     1     -41.782  57.921 -53.058  1.00  0.00     0.008 A 
HETATM    5  C   UNL     1     -42.803  58.832 -52.866  1.00  0.00     0.047 A 
HETATM    6  C   UNL     1     -44.101  58.812 -53.612  1.00  0.00     0.069 C 
HETATM    7  C   UNL     1     -44.003  57.920 -54.891  1.00  0.00    -0.040 C 
HETATM    8  C   UNL     1     -43.283  58.676 -56.024  1.00  0.00     0.015 C 
HETATM    9  C   UNL     1     -45.430  57.592 -55.371  1.00  0.00     0.015 C 
HETATM   10  C   UNL     1     -43.267  56.586 -54.563  1.00  0.00     0.039 C 
HETATM   11  C   UNL     1     -41.834  56.777 -54.011  1.00  0.00     0.122 C 
ENDROOT
BRANCH  11  12
HETATM   12  N   UNL     1     -41.393  55.585 -53.314  1.00  0.00    -0.347 N 
HETATM   13  C   UNL     1     -40.596  54.659 -53.936  1.00  0.00     0.270 C 
HETATM   14  O   UNL     1     -40.147  54.797 -55.071  1.00  0.00    -0.266 OA
HETATM   15  H   UNL     1     -41.828  55.375 -52.428  1.00  0.00     0.163 HD
BRANCH  13  16
HETATM   16  C   UNL     1     -40.299  53.429 -53.157  1.00  0.00     0.120 A 
HETATM   17  N   UNL     1     -40.044  52.237 -53.798  1.00  0.00    -0.303 N 
HETATM   18  C   UNL     1     -39.793  51.242 -52.853  1.00  0.00     0.324 A 
HETATM   19  H   UNL     1     -40.035  52.112 -54.800  1.00  0.00     0.171 HD
HETATM   20  O   UNL     1     -39.530  50.070 -53.047  1.00  0.00    -0.247 OA
HETATM   21  N   UNL     1     -39.912  51.895 -51.619  1.00  0.00    -0.316 N 
HETATM   22  C   UNL     1     -40.216  53.219 -51.832  1.00  0.00     0.128 A 
HETATM   23  H   UNL     1     -39.780  51.429 -50.734  1.00  0.00     0.170 HD
ENDBRANCH  13  16
ENDBRANCH  11  12
BRANCH   1  24
HETATM   24  C   UNL     1     -43.022  60.909 -51.382  1.00  0.00     0.064 A 
HETATM   25  C   UNL     1     -43.321  62.074 -52.133  1.00  0.00    -0.033 A 
HETATM   26  C   UNL     1     -43.016  62.243 -53.599  1.00  0.00     0.050 C 
HETATM   27  C   UNL     1     -43.965  63.152 -51.490  1.00  0.00     0.009 A 
HETATM   28  C   UNL     1     -44.321  63.087 -50.146  1.00  0.00     0.001 A 
HETATM   29  C   UNL     1     -44.027  61.948 -49.411  1.00  0.00     0.002 A 
HETATM   30  C   UNL     1     -43.377  60.871 -50.022  1.00  0.00     0.032 A 
ENDBRANCH   1  24
TORSDOF 3
ENDMDL
