MODEL 1
REMARK VINA RESULT:      -8.1      0.000      0.000
REMARK  6 active torsions:
REMARK  status: ('A' for Active; 'I' for Inactive)
REMARK    1  A    between atoms: O_2  and  C_3 
REMARK    2  A    between atoms: C_7  and  C_8 
REMARK    3  A    between atoms: C_8  and  N_9 
REMARK    4  A    between atoms: N_9  and  C_10 
REMARK       I    between atoms: N_9  and  C_13 
REMARK       I    between atoms: C_13  and  N_15 
REMARK    5  A    between atoms: N_15  and  C_16 
REMARK    6  A    between atoms: C_19  and  C_22 
ROOT
HETATM    1  N   UNL     1     -41.483  54.106 -52.590  1.00  0.00    -0.325 N 
HETATM    2  C   UNL     1     -41.332  54.670 -53.870  1.00  0.00     0.323 C 
HETATM    3  O   UNL     1     -40.230  54.752 -54.410  1.00  0.00    -0.247 OA
HETATM    4  N   UNL     1     -42.509  55.125 -54.430  1.00  0.00    -0.309 N 
HETATM    5  H   UNL     1     -43.347  54.919 -53.915  1.00  0.00     0.170 HD
ENDROOT
BRANCH   1   6
HETATM    6  C   UNL     1     -40.256  53.789 -51.853  1.00  0.00     0.166 C 
BRANCH   6   7
HETATM    7  C   UNL     1     -40.104  52.306 -51.593  1.00  0.00    -0.037 A 
HETATM    8  C   UNL     1     -40.295  51.784 -50.308  1.00  0.00     0.009 A 
HETATM    9  C   UNL     1     -40.163  50.415 -50.075  1.00  0.00     0.003 A 
HETATM   10  C   UNL     1     -39.832  49.552 -51.122  1.00  0.00     0.037 A 
HETATM   11  C   UNL     1     -39.633  50.055 -52.407  1.00  0.00     0.068 A 
HETATM   12  C   UNL     1     -39.777  51.427 -52.636  1.00  0.00     0.045 A 
BRANCH  11  13
HETATM   13  O   UNL     1     -39.304  49.323 -53.515  1.00  0.00    -0.356 OA
HETATM   14  C   UNL     1     -39.783  49.805 -54.765  1.00  0.00     0.210 C 
ENDBRANCH  11  13
ENDBRANCH   6   7
ENDBRANCH   1   6
BRANCH   1  15
HETATM   15  C   UNL     1     -42.721  54.097 -51.841  1.00  0.00     0.089 A 
HETATM   16  C   UNL     1     -42.758  54.479 -50.381  1.00  0.00     0.027 A 
HETATM   17  C   UNL     1     -43.408  55.365 -51.395  1.00  0.00     0.027 A 
ENDBRANCH   1  15
BRANCH   4  18
HETATM   18  C   UNL     1     -42.684  55.818 -55.645  1.00  0.00     0.036 A 
HETATM   19  C   UNL     1     -42.900  55.200 -56.876  1.00  0.00     0.030 A 
HETATM   20  C   UNL     1     -43.043  55.964 -58.044  1.00  0.00     0.014 A 
HETATM   21  C   UNL     1     -42.969  57.360 -58.003  1.00  0.00    -0.023 A 
HETATM   22  C   UNL     1     -42.759  57.979 -56.766  1.00  0.00     0.014 A 
HETATM   23  C   UNL     1     -42.617  57.215 -55.600  1.00  0.00     0.030 A 
BRANCH  21  24
HETATM   24  C   UNL     1     -43.112  58.136 -59.223  1.00  0.00     0.010 A 
HETATM   25  C   UNL     1     -42.178  58.937 -59.924  1.00  0.00     0.152 A 
HETATM   26  N   UNL     1     -42.703  59.517 -61.007  1.00  0.00    -0.187 NA
HETATM   27  N   UNL     1     -43.978  59.098 -60.999  1.00  0.00    -0.289 N 
HETATM   28  H   UNL     1     -44.594  59.422 -61.737  1.00  0.00     0.188 HD
HETATM   29  C   UNL     1     -44.273  58.270 -59.955  1.00  0.00     0.123 A 
ENDBRANCH  21  24
ENDBRANCH   4  18
TORSDOF 6
ENDMDL
MODEL 2
REMARK VINA RESULT:      -7.9      2.702      8.928
REMARK  6 active torsions:
REMARK  status: ('A' for Active; 'I' for Inactive)
REMARK    1  A    between atoms: O_2  and  C_3 
REMARK    2  A    between atoms: C_7  and  C_8 
REMARK    3  A    between atoms: C_8  and  N_9 
REMARK    4  A    between atoms: N_9  and  C_10 
REMARK       I    between atoms: N_9  and  C_13 
REMARK       I    between atoms: C_13  and  N_15 
REMARK    5  A    between atoms: N_15  and  C_16 
REMARK    6  A    between atoms: C_19  and  C_22 
ROOT
HETATM    1  N   UNL     1     -43.075  57.734 -55.500  1.00  0.00    -0.325 N 
HETATM    2  C   UNL     1     -42.650  56.394 -55.450  1.00  0.00     0.323 C 
HETATM    3  O   UNL     1     -43.025  55.570 -56.282  1.00  0.00    -0.247 OA
HETATM    4  N   UNL     1     -41.811  56.107 -54.392  1.00  0.00    -0.309 N 
HETATM    5  H   UNL     1     -41.519  56.894 -53.838  1.00  0.00     0.170 HD
ENDROOT
BRANCH   1   6
HETATM    6  C   UNL     1     -44.123  58.066 -56.471  1.00  0.00     0.166 C 
BRANCH   6   7
HETATM    7  C   UNL     1     -43.602  58.114 -57.891  1.00  0.00    -0.037 A 
HETATM    8  C   UNL     1     -42.682  59.094 -58.281  1.00  0.00     0.009 A 
HETATM    9  C   UNL     1     -42.198  59.129 -59.588  1.00  0.00     0.003 A 
HETATM   10  C   UNL     1     -42.632  58.187 -60.525  1.00  0.00     0.037 A 
HETATM   11  C   UNL     1     -43.552  57.206 -60.155  1.00  0.00     0.068 A 
HETATM   12  C   UNL     1     -44.026  57.171 -58.840  1.00  0.00     0.045 A 
BRANCH  11  13
HETATM   13  O   UNL     1     -44.059  56.232 -60.971  1.00  0.00    -0.356 OA
HETATM   14  C   UNL     1     -44.803  55.196 -60.342  1.00  0.00     0.210 C 
ENDBRANCH  11  13
ENDBRANCH   6   7
ENDBRANCH   1   6
BRANCH   1  15
HETATM   15  C   UNL     1     -42.783  58.724 -54.486  1.00  0.00     0.089 A 
HETATM   16  C   UNL     1     -41.730  59.784 -54.703  1.00  0.00     0.027 A 
HETATM   17  C   UNL     1     -43.172  60.176 -54.634  1.00  0.00     0.027 A 
ENDBRANCH   1  15
BRANCH   4  18
HETATM   18  C   UNL     1     -41.291  54.854 -54.009  1.00  0.00     0.036 A 
HETATM   19  C   UNL     1     -40.647  53.973 -54.877  1.00  0.00     0.030 A 
HETATM   20  C   UNL     1     -40.177  52.734 -54.419  1.00  0.00     0.014 A 
HETATM   21  C   UNL     1     -40.347  52.349 -53.084  1.00  0.00    -0.023 A 
HETATM   22  C   UNL     1     -40.987  53.237 -52.213  1.00  0.00     0.014 A 
HETATM   23  C   UNL     1     -41.455  54.475 -52.672  1.00  0.00     0.030 A 
BRANCH  21  24
HETATM   24  C   UNL     1     -39.861  51.059 -52.628  1.00  0.00     0.010 A 
HETATM   25  C   UNL     1     -39.665  49.844 -53.328  1.00  0.00     0.152 A 
HETATM   26  N   UNL     1     -39.219  48.859 -52.543  1.00  0.00    -0.187 NA
HETATM   27  N   UNL     1     -39.136  49.436 -51.334  1.00  0.00    -0.289 N 
HETATM   28  H   UNL     1     -38.822  48.871 -50.553  1.00  0.00     0.188 HD
HETATM   29  C   UNL     1     -39.508  50.750 -51.331  1.00  0.00     0.123 A 
ENDBRANCH  21  24
ENDBRANCH   4  18
TORSDOF 6
ENDMDL
MODEL 3
REMARK VINA RESULT:      -7.8      2.917      9.175
REMARK  6 active torsions:
REMARK  status: ('A' for Active; 'I' for Inactive)
REMARK    1  A    between atoms: O_2  and  C_3 
REMARK    2  A    between atoms: C_7  and  C_8 
REMARK    3  A    between atoms: C_8  and  N_9 
REMARK    4  A    between atoms: N_9  and  C_10 
REMARK       I    between atoms: N_9  and  C_13 
REMARK       I    between atoms: C_13  and  N_15 
REMARK    5  A    between atoms: N_15  and  C_16 
REMARK    6  A    between atoms: C_19  and  C_22 
ROOT
HETATM    1  N   UNL     1     -43.043  58.301 -54.830  1.00  0.00    -0.325 N 
HETATM    2  C   UNL     1     -42.573  56.989 -55.020  1.00  0.00     0.323 C 
HETATM    3  O   UNL     1     -42.811  56.364 -56.052  1.00  0.00    -0.247 OA
HETATM    4  N   UNL     1     -41.857  56.486 -53.953  1.00  0.00    -0.309 N 
HETATM    5  H   UNL     1     -41.666  57.134 -53.209  1.00  0.00     0.170 HD
ENDROOT
BRANCH   1   6
HETATM    6  C   UNL     1     -43.979  58.825 -55.830  1.00  0.00     0.166 C 
BRANCH   6   7
HETATM    7  C   UNL     1     -43.280  59.308 -57.082  1.00  0.00    -0.037 A 
HETATM    8  C   UNL     1     -43.709  58.887 -58.347  1.00  0.00     0.009 A 
HETATM    9  C   UNL     1     -43.067  59.341 -59.498  1.00  0.00     0.003 A 
HETATM   10  C   UNL     1     -41.984  60.218 -59.400  1.00  0.00     0.037 A 
HETATM   11  C   UNL     1     -41.540  60.645 -58.149  1.00  0.00     0.068 A 
HETATM   12  C   UNL     1     -42.194  60.193 -56.998  1.00  0.00     0.045 A 
BRANCH  11  13
HETATM   13  O   UNL     1     -40.494  61.495 -57.914  1.00  0.00    -0.356 OA
HETATM   14  C   UNL     1     -40.184  62.425 -58.943  1.00  0.00     0.210 C 
ENDBRANCH  11  13
ENDBRANCH   6   7
ENDBRANCH   1   6
BRANCH   1  15
HETATM   15  C   UNL     1     -42.916  59.046 -53.597  1.00  0.00     0.089 A 
HETATM   16  C   UNL     1     -41.745  59.967 -53.352  1.00  0.00     0.027 A 
HETATM   17  C   UNL     1     -43.114  60.541 -53.528  1.00  0.00     0.027 A 
ENDBRANCH   1  15
BRANCH   4  18
HETATM   18  C   UNL     1     -41.336  55.186 -53.789  1.00  0.00     0.036 A 
HETATM   19  C   UNL     1     -40.723  54.453 -54.804  1.00  0.00     0.030 A 
HETATM   20  C   UNL     1     -40.250  53.155 -54.563  1.00  0.00     0.014 A 
HETATM   21  C   UNL     1     -40.386  52.563 -53.303  1.00  0.00    -0.023 A 
HETATM   22  C   UNL     1     -40.996  53.302 -52.283  1.00  0.00     0.014 A 
HETATM   23  C   UNL     1     -41.466  54.599 -52.525  1.00  0.00     0.030 A 
BRANCH  21  24
HETATM   24  C   UNL     1     -39.898  51.215 -53.071  1.00  0.00     0.010 A 
HETATM   25  C   UNL     1     -39.644  50.155 -53.976  1.00  0.00     0.152 A 
HETATM   26  N   UNL     1     -39.218  49.045 -53.367  1.00  0.00    -0.187 NA
HETATM   27  N   UNL     1     -39.205  49.385 -52.069  1.00  0.00    -0.289 N 
HETATM   28  H   UNL     1     -38.919  48.686 -51.392  1.00  0.00     0.188 HD
HETATM   29  C   UNL     1     -39.602  50.671 -51.839  1.00  0.00     0.123 A 
ENDBRANCH  21  24
ENDBRANCH   4  18
TORSDOF 6
ENDMDL
MODEL 4
REMARK VINA RESULT:      -7.7      2.898      9.393
REMARK  6 active torsions:
REMARK  status: ('A' for Active; 'I' for Inactive)
REMARK    1  A    between atoms: O_2  and  C_3 
REMARK    2  A    between atoms: C_7  and  C_8 
REMARK    3  A    between atoms: C_8  and  N_9 
REMARK    4  A    between atoms: N_9  and  C_10 
REMARK       I    between atoms: N_9  and  C_13 
REMARK       I    between atoms: C_13  and  N_15 
REMARK    5  A    between atoms: N_15  and  C_16 
REMARK    6  A    between atoms: C_19  and  C_22 
ROOT
HETATM    1  N   UNL     1     -43.310  57.976 -58.008  1.00  0.00    -0.325 N 
HETATM    2  C   UNL     1     -43.317  57.158 -56.864  1.00  0.00     0.323 C 
HETATM    3  O   UNL     1     -44.341  56.985 -56.205  1.00  0.00    -0.247 OA
HETATM    4  N   UNL     1     -42.090  56.606 -56.557  1.00  0.00    -0.309 N 
HETATM    5  H   UNL     1     -41.358  56.763 -57.228  1.00  0.00     0.170 HD
ENDROOT
BRANCH   1   6
HETATM    6  C   UNL     1     -44.522  58.756 -58.279  1.00  0.00     0.166 C 
BRANCH   6   7
HETATM    7  C   UNL     1     -45.464  58.051 -59.229  1.00  0.00    -0.037 A 
HETATM    8  C   UNL     1     -46.590  58.710 -59.738  1.00  0.00     0.009 A 
HETATM    9  C   UNL     1     -47.450  58.060 -60.622  1.00  0.00     0.003 A 
HETATM   10  C   UNL     1     -47.200  56.740 -61.004  1.00  0.00     0.037 A 
HETATM   11  C   UNL     1     -46.086  56.065 -60.504  1.00  0.00     0.068 A 
HETATM   12  C   UNL     1     -45.222  56.727 -59.626  1.00  0.00     0.045 A 
BRANCH  11  13
HETATM   13  O   UNL     1     -45.729  54.777 -60.794  1.00  0.00    -0.356 OA
HETATM   14  C   UNL     1     -44.834  54.143 -59.889  1.00  0.00     0.210 C 
ENDBRANCH  11  13
ENDBRANCH   6   7
ENDBRANCH   1   6
BRANCH   1  15
HETATM   15  C   UNL     1     -42.121  58.331 -58.753  1.00  0.00     0.089 A 
HETATM   16  C   UNL     1     -41.760  57.626 -60.039  1.00  0.00     0.027 A 
HETATM   17  C   UNL     1     -42.180  59.061 -60.074  1.00  0.00     0.027 A 
ENDBRANCH   1  15
BRANCH   4  18
HETATM   18  C   UNL     1     -41.742  55.826 -55.435  1.00  0.00     0.036 A 
HETATM   19  C   UNL     1     -41.314  56.350 -54.216  1.00  0.00     0.030 A 
HETATM   20  C   UNL     1     -40.966  55.502 -53.155  1.00  0.00     0.014 A 
HETATM   21  C   UNL     1     -41.035  54.112 -53.294  1.00  0.00    -0.023 A 
HETATM   22  C   UNL     1     -41.471  53.586 -54.515  1.00  0.00     0.014 A 
HETATM   23  C   UNL     1     -41.820  54.435 -55.574  1.00  0.00     0.030 A 
BRANCH  21  24
HETATM   24  C   UNL     1     -40.664  53.247 -52.188  1.00  0.00     0.010 A 
HETATM   25  C   UNL     1     -40.911  53.365 -50.799  1.00  0.00     0.152 A 
HETATM   26  N   UNL     1     -40.380  52.364 -50.091  1.00  0.00    -0.187 NA
HETATM   27  N   UNL     1     -39.783  51.605 -51.022  1.00  0.00    -0.289 N 
HETATM   28  H   UNL     1     -39.292  50.771 -50.719  1.00  0.00     0.188 HD
HETATM   29  C   UNL     1     -39.924  52.088 -52.292  1.00  0.00     0.123 A 
ENDBRANCH  21  24
ENDBRANCH   4  18
TORSDOF 6
ENDMDL
MODEL 5
REMARK VINA RESULT:      -7.6      4.034      8.916
REMARK  6 active torsions:
REMARK  status: ('A' for Active; 'I' for Inactive)
REMARK    1  A    between atoms: O_2  and  C_3 
REMARK    2  A    between atoms: C_7  and  C_8 
REMARK    3  A    between atoms: C_8  and  N_9 
REMARK    4  A    between atoms: N_9  and  C_10 
REMARK       I    between atoms: N_9  and  C_13 
REMARK       I    between atoms: C_13  and  N_15 
REMARK    5  A    between atoms: N_15  and  C_16 
REMARK    6  A    between atoms: C_19  and  C_22 
ROOT
HETATM    1  N   UNL     1     -41.954  58.998 -53.724  1.00  0.00    -0.325 N 
HETATM    2  C   UNL     1     -41.612  57.765 -53.139  1.00  0.00     0.323 C 
HETATM    3  O   UNL     1     -41.314  57.679 -51.949  1.00  0.00    -0.247 OA
HETATM    4  N   UNL     1     -41.626  56.701 -54.017  1.00  0.00    -0.309 N 
HETATM    5  H   UNL     1     -41.969  56.899 -54.941  1.00  0.00     0.170 HD
ENDROOT
BRANCH   1   6
HETATM    6  C   UNL     1     -41.765  60.200 -52.905  1.00  0.00     0.166 C 
BRANCH   6   7
HETATM    7  C   UNL     1     -42.874  60.394 -51.895  1.00  0.00    -0.037 A 
HETATM    8  C   UNL     1     -42.580  60.707 -50.563  1.00  0.00     0.009 A 
HETATM    9  C   UNL     1     -43.606  60.895 -49.638  1.00  0.00     0.003 A 
HETATM   10  C   UNL     1     -44.940  60.766 -50.031  1.00  0.00     0.037 A 
HETATM   11  C   UNL     1     -45.253  60.450 -51.353  1.00  0.00     0.068 A 
HETATM   12  C   UNL     1     -44.219  60.273 -52.278  1.00  0.00     0.045 A 
BRANCH  11  13
HETATM   13  O   UNL     1     -46.511  60.292 -51.866  1.00  0.00    -0.356 OA
HETATM   14  C   UNL     1     -47.036  61.381 -52.617  1.00  0.00     0.210 C 
ENDBRANCH  11  13
ENDBRANCH   6   7
ENDBRANCH   1   6
BRANCH   1  15
HETATM   15  C   UNL     1     -42.186  59.197 -55.138  1.00  0.00     0.089 A 
HETATM   16  C   UNL     1     -43.584  59.224 -55.709  1.00  0.00     0.027 A 
HETATM   17  C   UNL     1     -42.767  60.476 -55.692  1.00  0.00     0.027 A 
ENDBRANCH   1  15
BRANCH   4  18
HETATM   18  C   UNL     1     -41.245  55.366 -53.773  1.00  0.00     0.036 A 
HETATM   19  C   UNL     1     -41.455  54.698 -52.567  1.00  0.00     0.030 A 
HETATM   20  C   UNL     1     -41.026  53.373 -52.399  1.00  0.00     0.014 A 
HETATM   21  C   UNL     1     -40.372  52.693 -53.432  1.00  0.00    -0.023 A 
HETATM   22  C   UNL     1     -40.168  53.362 -54.644  1.00  0.00     0.014 A 
HETATM   23  C   UNL     1     -40.599  54.684 -54.811  1.00  0.00     0.030 A 
BRANCH  21  24
HETATM   24  C   UNL     1     -39.927  51.324 -53.239  1.00  0.00     0.010 A 
HETATM   25  C   UNL     1     -39.721  50.278 -54.171  1.00  0.00     0.152 A 
HETATM   26  N   UNL     1     -39.324  49.140 -53.595  1.00  0.00    -0.187 NA
HETATM   27  N   UNL     1     -39.282  49.449 -52.289  1.00  0.00    -0.289 N 
HETATM   28  H   UNL     1     -39.009  48.726 -51.633  1.00  0.00     0.188 HD
HETATM   29  C   UNL     1     -39.631  50.742 -52.024  1.00  0.00     0.123 A 
ENDBRANCH  21  24
ENDBRANCH   4  18
TORSDOF 6
ENDMDL
MODEL 6
REMARK VINA RESULT:      -7.6      3.052      9.679
REMARK  6 active torsions:
REMARK  status: ('A' for Active; 'I' for Inactive)
REMARK    1  A    between atoms: O_2  and  C_3 
REMARK    2  A    between atoms: C_7  and  C_8 
REMARK    3  A    between atoms: C_8  and  N_9 
REMARK    4  A    between atoms: N_9  and  C_10 
REMARK       I    between atoms: N_9  and  C_13 
REMARK       I    between atoms: C_13  and  N_15 
REMARK    5  A    between atoms: N_15  and  C_16 
REMARK    6  A    between atoms: C_19  and  C_22 
ROOT
HETATM    1  N   UNL     1     -44.139  56.863 -58.361  1.00  0.00    -0.325 N 
HETATM    2  C   UNL     1     -43.817  56.732 -56.997  1.00  0.00     0.323 C 
HETATM    3  O   UNL     1     -44.135  57.591 -56.177  1.00  0.00    -0.247 OA
HETATM    4  N   UNL     1     -43.113  55.585 -56.691  1.00  0.00    -0.309 N 
HETATM    5  H   UNL     1     -42.994  54.930 -57.445  1.00  0.00     0.170 HD
ENDROOT
BRANCH   1   6
HETATM    6  C   UNL     1     -44.705  58.145 -58.792  1.00  0.00     0.166 C 
BRANCH   6   7
HETATM    7  C   UNL     1     -43.662  59.072 -59.378  1.00  0.00    -0.037 A 
HETATM    8  C   UNL     1     -43.618  59.315 -60.756  1.00  0.00     0.009 A 
HETATM    9  C   UNL     1     -42.661  60.176 -61.290  1.00  0.00     0.003 A 
HETATM   10  C   UNL     1     -41.732  60.802 -60.455  1.00  0.00     0.037 A 
HETATM   11  C   UNL     1     -41.759  60.569 -59.080  1.00  0.00     0.068 A 
HETATM   12  C   UNL     1     -42.728  59.711 -58.549  1.00  0.00     0.045 A 
BRANCH  11  13
HETATM   13  O   UNL     1     -40.910  61.112 -58.156  1.00  0.00    -0.356 OA
HETATM   14  C   UNL     1     -40.233  62.305 -58.533  1.00  0.00     0.210 C 
ENDBRANCH  11  13
ENDBRANCH   6   7
ENDBRANCH   1   6
BRANCH   1  15
HETATM   15  C   UNL     1     -43.685  55.964 -59.399  1.00  0.00     0.089 A 
HETATM   16  C   UNL     1     -44.404  54.665 -59.683  1.00  0.00     0.027 A 
HETATM   17  C   UNL     1     -44.443  55.769 -60.691  1.00  0.00     0.027 A 
ENDBRANCH   1  15
BRANCH   4  18
HETATM   18  C   UNL     1     -42.564  55.206 -55.450  1.00  0.00     0.036 A 
HETATM   19  C   UNL     1     -41.205  55.260 -55.142  1.00  0.00     0.030 A 
HETATM   20  C   UNL     1     -40.739  54.842 -53.887  1.00  0.00     0.014 A 
HETATM   21  C   UNL     1     -41.622  54.357 -52.917  1.00  0.00    -0.023 A 
HETATM   22  C   UNL     1     -42.986  54.310 -53.224  1.00  0.00     0.014 A 
HETATM   23  C   UNL     1     -43.451  54.729 -54.477  1.00  0.00     0.030 A 
BRANCH  21  24
HETATM   24  C   UNL     1     -41.122  53.922 -51.625  1.00  0.00     0.010 A 
HETATM   25  C   UNL     1     -41.179  54.543 -50.354  1.00  0.00     0.152 A 
HETATM   26  N   UNL     1     -40.576  53.829 -49.400  1.00  0.00    -0.187 NA
HETATM   27  N   UNL     1     -40.122  52.750 -50.056  1.00  0.00    -0.289 N 
HETATM   28  H   UNL     1     -39.610  52.049 -49.532  1.00  0.00     0.188 HD
HETATM   29  C   UNL     1     -40.423  52.757 -51.388  1.00  0.00     0.123 A 
ENDBRANCH  21  24
ENDBRANCH   4  18
TORSDOF 6
ENDMDL
MODEL 7
REMARK VINA RESULT:      -7.5      3.261      9.865
REMARK  6 active torsions:
REMARK  status: ('A' for Active; 'I' for Inactive)
REMARK    1  A    between atoms: O_2  and  C_3 
REMARK    2  A    between atoms: C_7  and  C_8 
REMARK    3  A    between atoms: C_8  and  N_9 
REMARK    4  A    between atoms: N_9  and  C_10 
REMARK       I    between atoms: N_9  and  C_13 
REMARK       I    between atoms: C_13  and  N_15 
REMARK    5  A    between atoms: N_15  and  C_16 
REMARK    6  A    between atoms: C_19  and  C_22 
ROOT
HETATM    1  N   UNL     1     -43.263  57.833 -58.158  1.00  0.00    -0.325 N 
HETATM    2  C   UNL     1     -43.273  57.137 -56.935  1.00  0.00     0.323 C 
HETATM    3  O   UNL     1     -44.274  57.108 -56.221  1.00  0.00    -0.247 OA
HETATM    4  N   UNL     1     -42.075  56.528 -56.622  1.00  0.00    -0.309 N 
HETATM    5  H   UNL     1     -41.367  56.561 -57.335  1.00  0.00     0.170 HD
ENDROOT
BRANCH   1   6
HETATM    6  C   UNL     1     -44.429  58.670 -58.459  1.00  0.00     0.166 C 
BRANCH   6   7
HETATM    7  C   UNL     1     -45.430  57.970 -59.351  1.00  0.00    -0.037 A 
HETATM    8  C   UNL     1     -45.378  56.583 -59.531  1.00  0.00     0.009 A 
HETATM    9  C   UNL     1     -46.309  55.941 -60.347  1.00  0.00     0.003 A 
HETATM   10  C   UNL     1     -47.300  56.679 -60.999  1.00  0.00     0.037 A 
HETATM   11  C   UNL     1     -47.365  58.062 -60.836  1.00  0.00     0.068 A 
HETATM   12  C   UNL     1     -46.434  58.699 -60.008  1.00  0.00     0.045 A 
BRANCH  11  13
HETATM   13  O   UNL     1     -48.278  58.899 -61.416  1.00  0.00    -0.356 OA
HETATM   14  C   UNL     1     -48.557  58.683 -62.794  1.00  0.00     0.210 C 
ENDBRANCH  11  13
ENDBRANCH   6   7
ENDBRANCH   1   6
BRANCH   1  15
HETATM   15  C   UNL     1     -42.089  58.021 -58.983  1.00  0.00     0.089 A 
HETATM   16  C   UNL     1     -41.837  57.161 -60.199  1.00  0.00     0.027 A 
HETATM   17  C   UNL     1     -42.160  58.611 -60.371  1.00  0.00     0.027 A 
ENDBRANCH   1  15
BRANCH   4  18
HETATM   18  C   UNL     1     -41.731  55.840 -55.441  1.00  0.00     0.036 A 
HETATM   19  C   UNL     1     -41.609  54.455 -55.345  1.00  0.00     0.030 A 
HETATM   20  C   UNL     1     -41.283  53.848 -54.124  1.00  0.00     0.014 A 
HETATM   21  C   UNL     1     -41.078  54.615 -52.972  1.00  0.00    -0.023 A 
HETATM   22  C   UNL     1     -41.194  56.006 -53.070  1.00  0.00     0.014 A 
HETATM   23  C   UNL     1     -41.518  56.611 -54.292  1.00  0.00     0.030 A 
BRANCH  21  24
HETATM   24  C   UNL     1     -40.749  53.970 -51.713  1.00  0.00     0.010 A 
HETATM   25  C   UNL     1     -40.694  54.487 -50.396  1.00  0.00     0.152 A 
HETATM   26  N   UNL     1     -40.323  53.573 -49.495  1.00  0.00    -0.187 NA
HETATM   27  N   UNL     1     -40.130  52.468 -50.232  1.00  0.00    -0.289 N 
HETATM   28  H   UNL     1     -39.828  51.623 -49.760  1.00  0.00     0.188 HD
HETATM   29  C   UNL     1     -40.372  52.652 -51.563  1.00  0.00     0.123 A 
ENDBRANCH  21  24
ENDBRANCH   4  18
TORSDOF 6
ENDMDL
MODEL 8
REMARK VINA RESULT:      -7.5      4.058      9.110
REMARK  6 active torsions:
REMARK  status: ('A' for Active; 'I' for Inactive)
REMARK    1  A    between atoms: O_2  and  C_3 
REMARK    2  A    between atoms: C_7  and  C_8 
REMARK    3  A    between atoms: C_8  and  N_9 
REMARK    4  A    between atoms: N_9  and  C_10 
REMARK       I    between atoms: N_9  and  C_13 
REMARK       I    between atoms: C_13  and  N_15 
REMARK    5  A    between atoms: N_15  and  C_16 
REMARK    6  A    between atoms: C_19  and  C_22 
ROOT
HETATM    1  N   UNL     1     -43.466  58.141 -54.465  1.00  0.00    -0.325 N 
HETATM    2  C   UNL     1     -43.261  56.754 -54.356  1.00  0.00     0.323 C 
HETATM    3  O   UNL     1     -44.204  55.964 -54.343  1.00  0.00    -0.247 OA
HETATM    4  N   UNL     1     -41.935  56.385 -54.249  1.00  0.00    -0.309 N 
HETATM    5  H   UNL     1     -41.264  57.126 -54.359  1.00  0.00     0.170 HD
ENDROOT
BRANCH   1   6
HETATM    6  C   UNL     1     -44.849  58.620 -54.378  1.00  0.00     0.166 C 
BRANCH   6   7
HETATM    7  C   UNL     1     -45.196  59.141 -53.001  1.00  0.00    -0.037 A 
HETATM    8  C   UNL     1     -44.968  58.358 -51.863  1.00  0.00     0.009 A 
HETATM    9  C   UNL     1     -45.281  58.846 -50.595  1.00  0.00     0.003 A 
HETATM   10  C   UNL     1     -45.832  60.121 -50.448  1.00  0.00     0.037 A 
HETATM   11  C   UNL     1     -46.070  60.914 -51.570  1.00  0.00     0.068 A 
HETATM   12  C   UNL     1     -45.745  60.423 -52.839  1.00  0.00     0.045 A 
BRANCH  11  13
HETATM   13  O   UNL     1     -46.605  62.173 -51.566  1.00  0.00    -0.356 OA
HETATM   14  C   UNL     1     -46.677  62.832 -50.308  1.00  0.00     0.210 C 
ENDBRANCH  11  13
ENDBRANCH   6   7
ENDBRANCH   1   6
BRANCH   1  15
HETATM   15  C   UNL     1     -42.419  59.134 -54.355  1.00  0.00     0.089 A 
HETATM   16  C   UNL     1     -41.758  59.719 -55.581  1.00  0.00     0.027 A 
HETATM   17  C   UNL     1     -42.632  60.582 -54.727  1.00  0.00     0.027 A 
ENDBRANCH   1  15
BRANCH   4  18
HETATM   18  C   UNL     1     -41.404  55.097 -54.034  1.00  0.00     0.036 A 
HETATM   19  C   UNL     1     -40.984  54.241 -55.051  1.00  0.00     0.030 A 
HETATM   20  C   UNL     1     -40.488  52.964 -54.751  1.00  0.00     0.014 A 
HETATM   21  C   UNL     1     -40.406  52.517 -53.428  1.00  0.00    -0.023 A 
HETATM   22  C   UNL     1     -40.822  53.379 -52.408  1.00  0.00     0.014 A 
HETATM   23  C   UNL     1     -41.316  54.655 -52.708  1.00  0.00     0.030 A 
BRANCH  21  24
HETATM   24  C   UNL     1     -39.896  51.189 -53.135  1.00  0.00     0.010 A 
HETATM   25  C   UNL     1     -39.623  50.094 -53.990  1.00  0.00     0.152 A 
HETATM   26  N   UNL     1     -39.180  49.019 -53.332  1.00  0.00    -0.187 NA
HETATM   27  N   UNL     1     -39.175  49.418 -52.050  1.00  0.00    -0.289 N 
HETATM   28  H   UNL     1     -38.878  48.756 -51.342  1.00  0.00     0.188 HD
HETATM   29  C   UNL     1     -39.593  50.707 -51.879  1.00  0.00     0.123 A 
ENDBRANCH  21  24
ENDBRANCH   4  18
TORSDOF 6
ENDMDL
MODEL 9
REMARK VINA RESULT:      -7.4      2.782      4.348
REMARK  6 active torsions:
REMARK  status: ('A' for Active; 'I' for Inactive)
REMARK    1  A    between atoms: O_2  and  C_3 
REMARK    2  A    between atoms: C_7  and  C_8 
REMARK    3  A    between atoms: C_8  and  N_9 
REMARK    4  A    between atoms: N_9  and  C_10 
REMARK       I    between atoms: N_9  and  C_13 
REMARK       I    between atoms: C_13  and  N_15 
REMARK    5  A    between atoms: N_15  and  C_16 
REMARK    6  A    between atoms: C_19  and  C_22 
ROOT
HETATM    1  N   UNL     1     -42.490  55.206 -54.868  1.00  0.00    -0.325 N 
HETATM    2  C   UNL     1     -42.919  56.268 -55.686  1.00  0.00     0.323 C 
HETATM    3  O   UNL     1     -43.783  57.059 -55.311  1.00  0.00    -0.247 OA
HETATM    4  N   UNL     1     -42.303  56.315 -56.920  1.00  0.00    -0.309 N 
HETATM    5  H   UNL     1     -41.556  55.657 -57.062  1.00  0.00     0.170 HD
ENDROOT
BRANCH   1   6
HETATM    6  C   UNL     1     -43.241  54.973 -53.630  1.00  0.00     0.166 C 
BRANCH   6   7
HETATM    7  C   UNL     1     -42.507  55.472 -52.405  1.00  0.00    -0.037 A 
HETATM    8  C   UNL     1     -41.882  56.724 -52.408  1.00  0.00     0.009 A 
HETATM    9  C   UNL     1     -41.215  57.184 -51.274  1.00  0.00     0.003 A 
HETATM   10  C   UNL     1     -41.160  56.396 -50.122  1.00  0.00     0.037 A 
HETATM   11  C   UNL     1     -41.773  55.143 -50.101  1.00  0.00     0.068 A 
HETATM   12  C   UNL     1     -42.449  54.692 -51.240  1.00  0.00     0.045 A 
BRANCH  11  13
HETATM   13  O   UNL     1     -41.792  54.274 -49.045  1.00  0.00    -0.356 OA
HETATM   14  C   UNL     1     -40.562  54.079 -48.357  1.00  0.00     0.210 C 
ENDBRANCH  11  13
ENDBRANCH   6   7
ENDBRANCH   1   6
BRANCH   1  15
HETATM   15  C   UNL     1     -41.579  54.164 -55.291  1.00  0.00     0.089 A 
HETATM   16  C   UNL     1     -40.104  54.234 -54.974  1.00  0.00     0.027 A 
HETATM   17  C   UNL     1     -40.954  53.192 -54.319  1.00  0.00     0.027 A 
ENDBRANCH   1  15
BRANCH   4  18
HETATM   18  C   UNL     1     -42.571  57.187 -57.994  1.00  0.00     0.036 A 
HETATM   19  C   UNL     1     -43.361  56.856 -59.095  1.00  0.00     0.030 A 
HETATM   20  C   UNL     1     -43.561  57.777 -60.134  1.00  0.00     0.014 A 
HETATM   21  C   UNL     1     -42.970  59.045 -60.095  1.00  0.00    -0.023 A 
HETATM   22  C   UNL     1     -42.184  59.378 -58.987  1.00  0.00     0.014 A 
HETATM   23  C   UNL     1     -41.986  58.458 -57.949  1.00  0.00     0.030 A 
BRANCH  21  24
HETATM   24  C   UNL     1     -43.181  59.984 -61.182  1.00  0.00     0.010 A 
HETATM   25  C   UNL     1     -42.255  60.710 -61.970  1.00  0.00     0.152 A 
HETATM   26  N   UNL     1     -42.847  61.501 -62.869  1.00  0.00    -0.187 NA
HETATM   27  N   UNL     1     -44.155  61.291 -62.657  1.00  0.00    -0.289 N 
HETATM   28  H   UNL     1     -44.822  61.800 -63.227  1.00  0.00     0.188 HD
HETATM   29  C   UNL     1     -44.408  60.393 -61.660  1.00  0.00     0.123 A 
ENDBRANCH  21  24
ENDBRANCH   4  18
TORSDOF 6
ENDMDL
MODEL 10
REMARK VINA RESULT:      -7.3      3.260      8.686
REMARK  6 active torsions:
REMARK  status: ('A' for Active; 'I' for Inactive)
REMARK    1  A    between atoms: O_2  and  C_3 
REMARK    2  A    between atoms: C_7  and  C_8 
REMARK    3  A    between atoms: C_8  and  N_9 
REMARK    4  A    between atoms: N_9  and  C_10 
REMARK       I    between atoms: N_9  and  C_13 
REMARK       I    between atoms: C_13  and  N_15 
REMARK    5  A    between atoms: N_15  and  C_16 
REMARK    6  A    between atoms: C_19  and  C_22 
ROOT
HETATM    1  N   UNL     1     -43.217  58.038 -55.432  1.00  0.00    -0.325 N 
HETATM    2  C   UNL     1     -43.068  56.706 -55.003  1.00  0.00     0.323 C 
HETATM    3  O   UNL     1     -44.043  55.999 -54.754  1.00  0.00    -0.247 OA
HETATM    4  N   UNL     1     -41.756  56.296 -54.877  1.00  0.00    -0.309 N 
HETATM    5  H   UNL     1     -41.061  56.949 -55.194  1.00  0.00     0.170 HD
ENDROOT
BRANCH   1   6
HETATM    6  C   UNL     1     -44.569  58.604 -55.393  1.00  0.00     0.166 C 
BRANCH   6   7
HETATM    7  C   UNL     1     -44.940  59.126 -54.023  1.00  0.00    -0.037 A 
HETATM    8  C   UNL     1     -45.334  60.458 -53.849  1.00  0.00     0.009 A 
HETATM    9  C   UNL     1     -45.684  60.932 -52.585  1.00  0.00     0.003 A 
HETATM   10  C   UNL     1     -45.640  60.083 -51.478  1.00  0.00     0.037 A 
HETATM   11  C   UNL     1     -45.246  58.753 -51.631  1.00  0.00     0.068 A 
HETATM   12  C   UNL     1     -44.906  58.281 -52.902  1.00  0.00     0.045 A 
BRANCH  11  13
HETATM   13  O   UNL     1     -45.157  57.821 -50.633  1.00  0.00    -0.356 OA
HETATM   14  C   UNL     1     -44.240  56.754 -50.837  1.00  0.00     0.210 C 
ENDBRANCH  11  13
ENDBRANCH   6   7
ENDBRANCH   1   6
BRANCH   1  15
HETATM   15  C   UNL     1     -42.122  58.966 -55.615  1.00  0.00     0.089 A 
HETATM   16  C   UNL     1     -41.764  59.499 -56.982  1.00  0.00     0.027 A 
HETATM   17  C   UNL     1     -42.340  60.420 -55.955  1.00  0.00     0.027 A 
ENDBRANCH   1  15
BRANCH   4  18
HETATM   18  C   UNL     1     -41.272  55.067 -54.386  1.00  0.00     0.036 A 
HETATM   19  C   UNL     1     -40.717  54.067 -55.183  1.00  0.00     0.030 A 
HETATM   20  C   UNL     1     -40.277  52.862 -54.616  1.00  0.00     0.014 A 
HETATM   21  C   UNL     1     -40.389  52.632 -53.240  1.00  0.00    -0.023 A 
HETATM   22  C   UNL     1     -40.940  53.639 -52.440  1.00  0.00     0.014 A 
HETATM   23  C   UNL     1     -41.377  54.843 -53.008  1.00  0.00     0.030 A 
BRANCH  21  24
HETATM   24  C   UNL     1     -39.937  51.376 -52.670  1.00  0.00     0.010 A 
HETATM   25  C   UNL     1     -39.576  51.039 -51.342  1.00  0.00     0.152 A 
HETATM   26  N   UNL     1     -39.185  49.768 -51.217  1.00  0.00    -0.187 NA
HETATM   27  N   UNL     1     -39.284  49.286 -52.466  1.00  0.00    -0.289 N 
HETATM   28  H   UNL     1     -39.026  48.319 -52.629  1.00  0.00     0.188 HD
HETATM   29  C   UNL     1     -39.730  50.206 -53.371  1.00  0.00     0.123 A 
ENDBRANCH  21  24
ENDBRANCH   4  18
TORSDOF 6
ENDMDL
