MODEL 1
REMARK VINA RESULT:      -8.6      0.000      0.000
REMARK  5 active torsions:
REMARK  status: ('A' for Active; 'I' for Inactive)
REMARK    1  A    between atoms: C_2  and  C_3 
REMARK    2  A    between atoms: C_2  and  C_19 
REMARK       I    between atoms: C_3  and  N_4 
REMARK    3  A    between atoms: N_4  and  C_5 
REMARK    4  A    between atoms: C_8  and  O_9 
REMARK    5  A    between atoms: O_9  and  C_10 
ROOT
HETATM    1  C   UNL     1     -41.776  55.505 -52.814  1.00  0.00     0.234 C 
HETATM    2  N   UNL     1     -42.863  55.255 -53.641  1.00  0.00    -0.325 N 
HETATM    3  O   UNL     1     -40.992  56.440 -52.954  1.00  0.00    -0.272 OA
HETATM    4  H   UNL     1     -43.492  54.516 -53.352  1.00  0.00     0.169 HD
ENDROOT
BRANCH   2   5
HETATM    5  C   UNL     1     -43.229  55.970 -54.798  1.00  0.00     0.052 A 
HETATM    6  C   UNL     1     -44.187  56.979 -54.853  1.00  0.00     0.149 A 
HETATM    7  N   UNL     1     -44.506  57.666 -55.981  1.00  0.00    -0.235 NA
HETATM    8  C   UNL     1     -43.841  57.339 -57.106  1.00  0.00     0.169 A 
HETATM    9  C   UNL     1     -42.881  56.341 -57.162  1.00  0.00     0.060 A 
HETATM   10  C   UNL     1     -42.569  55.654 -55.989  1.00  0.00     0.035 A 
BRANCH   8  11
HETATM   11  O   UNL     1     -44.140  57.973 -58.306  1.00  0.00    -0.291 OA
BRANCH  11  12
HETATM   12  C   UNL     1     -44.760  57.230 -59.277  1.00  0.00     0.095 A 
HETATM   13  C   UNL     1     -44.077  56.490 -60.234  1.00  0.00     0.153 A 
HETATM   14  N   UNL     1     -44.684  55.688 -61.143  1.00  0.00    -0.270 NA
HETATM   15  C   UNL     1     -46.033  55.635 -61.093  1.00  0.00     0.116 A 
HETATM   16  C   UNL     1     -46.800  56.327 -60.167  1.00  0.00     0.022 A 
HETATM   17  C   UNL     1     -46.146  57.130 -59.236  1.00  0.00     0.040 A 
ENDBRANCH  11  12
ENDBRANCH   8  11
ENDBRANCH   2   5
BRANCH   1  18
HETATM   18  C   UNL     1     -41.600  54.452 -51.682  1.00  0.00     0.061 C 
HETATM   19  C   UNL     1     -40.885  55.172 -50.516  1.00  0.00     0.030 C 
HETATM   20  C   UNL     1     -42.986  54.012 -51.161  1.00  0.00     0.030 C 
BRANCH  18  21
HETATM   21  C   UNL     1     -40.857  53.208 -52.207  1.00  0.00    -0.038 A 
HETATM   22  C   UNL     1     -40.216  52.290 -51.359  1.00  0.00     0.050 A 
HETATM   23  C   UNL     1     -39.551  51.185 -51.887  1.00  0.00     0.117 A 
HETATM   24  F   UNL     1     -38.940  50.330 -51.055  1.00  0.00    -0.206 F 
HETATM   25  C   UNL     1     -39.505  50.956 -53.255  1.00  0.00     0.042 A 
HETATM   26  C   UNL     1     -40.138  51.848 -54.113  1.00  0.00     0.004 A 
HETATM   27  C   UNL     1     -40.806  52.962 -53.595  1.00  0.00     0.008 A 
ENDBRANCH  18  21
ENDBRANCH   1  18
TORSDOF 5
ENDMDL
MODEL 2
REMARK VINA RESULT:      -8.5      1.253      1.573
REMARK  5 active torsions:
REMARK  status: ('A' for Active; 'I' for Inactive)
REMARK    1  A    between atoms: C_2  and  C_3 
REMARK    2  A    between atoms: C_2  and  C_19 
REMARK       I    between atoms: C_3  and  N_4 
REMARK    3  A    between atoms: N_4  and  C_5 
REMARK    4  A    between atoms: C_8  and  O_9 
REMARK    5  A    between atoms: O_9  and  C_10 
ROOT
HETATM    1  C   UNL     1     -41.777  55.454 -53.674  1.00  0.00     0.234 C 
HETATM    2  N   UNL     1     -42.981  55.482 -54.364  1.00  0.00    -0.325 N 
HETATM    3  O   UNL     1     -40.740  55.990 -54.057  1.00  0.00    -0.272 OA
HETATM    4  H   UNL     1     -43.786  55.094 -53.888  1.00  0.00     0.169 HD
ENDROOT
BRANCH   2   5
HETATM    5  C   UNL     1     -43.221  56.061 -55.626  1.00  0.00     0.052 A 
HETATM    6  C   UNL     1     -43.840  57.289 -55.845  1.00  0.00     0.149 A 
HETATM    7  N   UNL     1     -44.041  57.833 -57.073  1.00  0.00    -0.235 NA
HETATM    8  C   UNL     1     -43.604  57.125 -58.135  1.00  0.00     0.169 A 
HETATM    9  C   UNL     1     -42.990  55.888 -58.027  1.00  0.00     0.060 A 
HETATM   10  C   UNL     1     -42.792  55.355 -56.753  1.00  0.00     0.035 A 
BRANCH   8  11
HETATM   11  O   UNL     1     -43.809  57.601 -59.424  1.00  0.00    -0.291 OA
BRANCH  11  12
HETATM   12  C   UNL     1     -44.973  57.244 -60.053  1.00  0.00     0.095 A 
HETATM   13  C   UNL     1     -45.187  55.996 -60.626  1.00  0.00     0.153 A 
HETATM   14  N   UNL     1     -46.365  55.609 -61.176  1.00  0.00    -0.270 NA
HETATM   15  C   UNL     1     -47.365  56.517 -61.155  1.00  0.00     0.116 A 
HETATM   16  C   UNL     1     -47.250  57.781 -60.595  1.00  0.00     0.022 A 
HETATM   17  C   UNL     1     -46.033  58.143 -60.024  1.00  0.00     0.040 A 
ENDBRANCH  11  12
ENDBRANCH   8  11
ENDBRANCH   2   5
BRANCH   1  18
HETATM   18  C   UNL     1     -41.835  54.633 -52.353  1.00  0.00     0.061 C 
HETATM   19  C   UNL     1     -41.362  55.577 -51.225  1.00  0.00     0.030 C 
HETATM   20  C   UNL     1     -43.300  54.254 -52.041  1.00  0.00     0.030 C 
BRANCH  18  21
HETATM   21  C   UNL     1     -41.011  53.338 -52.481  1.00  0.00    -0.038 A 
HETATM   22  C   UNL     1     -40.837  52.664 -53.701  1.00  0.00     0.050 A 
HETATM   23  C   UNL     1     -40.088  51.491 -53.761  1.00  0.00     0.117 A 
HETATM   24  F   UNL     1     -39.946  50.864 -54.936  1.00  0.00    -0.206 F 
HETATM   25  C   UNL     1     -39.489  50.958 -52.627  1.00  0.00     0.042 A 
HETATM   26  C   UNL     1     -39.642  51.611 -51.410  1.00  0.00     0.004 A 
HETATM   27  C   UNL     1     -40.395  52.788 -51.337  1.00  0.00     0.008 A 
ENDBRANCH  18  21
ENDBRANCH   1  18
TORSDOF 5
ENDMDL
MODEL 3
REMARK VINA RESULT:      -8.2      3.237      8.822
REMARK  5 active torsions:
REMARK  status: ('A' for Active; 'I' for Inactive)
REMARK    1  A    between atoms: C_2  and  C_3 
REMARK    2  A    between atoms: C_2  and  C_19 
REMARK       I    between atoms: C_3  and  N_4 
REMARK    3  A    between atoms: N_4  and  C_5 
REMARK    4  A    between atoms: C_8  and  O_9 
REMARK    5  A    between atoms: O_9  and  C_10 
ROOT
HETATM    1  C   UNL     1     -43.073  57.483 -56.955  1.00  0.00     0.234 C 
HETATM    2  N   UNL     1     -42.245  56.369 -56.933  1.00  0.00    -0.325 N 
HETATM    3  O   UNL     1     -43.618  57.967 -55.966  1.00  0.00    -0.272 OA
HETATM    4  H   UNL     1     -41.773  56.138 -57.799  1.00  0.00     0.169 HD
ENDROOT
BRANCH   2   5
HETATM    5  C   UNL     1     -41.929  55.569 -55.817  1.00  0.00     0.052 A 
HETATM    6  C   UNL     1     -40.883  55.803 -54.928  1.00  0.00     0.149 A 
HETATM    7  N   UNL     1     -40.613  55.026 -53.847  1.00  0.00    -0.235 NA
HETATM    8  C   UNL     1     -41.422  53.967 -53.637  1.00  0.00     0.169 A 
HETATM    9  C   UNL     1     -42.480  53.639 -54.469  1.00  0.00     0.060 A 
HETATM   10  C   UNL     1     -42.737  54.457 -55.569  1.00  0.00     0.035 A 
BRANCH   8  11
HETATM   11  O   UNL     1     -41.185  53.106 -52.573  1.00  0.00    -0.291 OA
BRANCH  11  12
HETATM   12  C   UNL     1     -41.098  53.655 -51.321  1.00  0.00     0.095 A 
HETATM   13  C   UNL     1     -42.183  54.197 -50.641  1.00  0.00     0.153 A 
HETATM   14  N   UNL     1     -42.120  54.665 -49.369  1.00  0.00    -0.270 NA
HETATM   15  C   UNL     1     -40.916  54.592 -48.760  1.00  0.00     0.116 A 
HETATM   16  C   UNL     1     -39.781  54.057 -49.352  1.00  0.00     0.022 A 
HETATM   17  C   UNL     1     -39.882  53.569 -50.653  1.00  0.00     0.040 A 
ENDBRANCH  11  12
ENDBRANCH   8  11
ENDBRANCH   2   5
BRANCH   1  18
HETATM   18  C   UNL     1     -43.294  58.067 -58.380  1.00  0.00     0.061 C 
HETATM   19  C   UNL     1     -43.588  59.574 -58.199  1.00  0.00     0.030 C 
HETATM   20  C   UNL     1     -41.987  57.955 -59.196  1.00  0.00     0.030 C 
BRANCH  18  21
HETATM   21  C   UNL     1     -44.401  57.291 -59.119  1.00  0.00    -0.038 A 
HETATM   22  C   UNL     1     -44.126  56.299 -60.075  1.00  0.00     0.050 A 
HETATM   23  C   UNL     1     -45.166  55.632 -60.721  1.00  0.00     0.117 A 
HETATM   24  F   UNL     1     -44.874  54.697 -61.635  1.00  0.00    -0.206 F 
HETATM   25  C   UNL     1     -46.494  55.921 -60.439  1.00  0.00     0.042 A 
HETATM   26  C   UNL     1     -46.789  56.895 -59.492  1.00  0.00     0.004 A 
HETATM   27  C   UNL     1     -45.755  57.572 -58.840  1.00  0.00     0.008 A 
ENDBRANCH  18  21
ENDBRANCH   1  18
TORSDOF 5
ENDMDL
MODEL 4
REMARK VINA RESULT:      -8.0      3.216      8.618
REMARK  5 active torsions:
REMARK  status: ('A' for Active; 'I' for Inactive)
REMARK    1  A    between atoms: C_2  and  C_3 
REMARK    2  A    between atoms: C_2  and  C_19 
REMARK       I    between atoms: C_3  and  N_4 
REMARK    3  A    between atoms: N_4  and  C_5 
REMARK    4  A    between atoms: C_8  and  O_9 
REMARK    5  A    between atoms: O_9  and  C_10 
ROOT
HETATM    1  C   UNL     1     -43.259  57.390 -57.004  1.00  0.00     0.234 C 
HETATM    2  N   UNL     1     -42.346  56.345 -56.947  1.00  0.00    -0.325 N 
HETATM    3  O   UNL     1     -43.903  57.807 -56.044  1.00  0.00    -0.272 OA
HETATM    4  H   UNL     1     -41.803  56.172 -57.785  1.00  0.00     0.169 HD
ENDROOT
BRANCH   2   5
HETATM    5  C   UNL     1     -42.037  55.549 -55.827  1.00  0.00     0.052 A 
HETATM    6  C   UNL     1     -42.813  54.497 -55.347  1.00  0.00     0.149 A 
HETATM    7  N   UNL     1     -42.480  53.732 -54.275  1.00  0.00    -0.235 NA
HETATM    8  C   UNL     1     -41.321  54.024 -53.651  1.00  0.00     0.169 A 
HETATM    9  C   UNL     1     -40.485  55.058 -54.039  1.00  0.00     0.060 A 
HETATM   10  C   UNL     1     -40.848  55.825 -55.146  1.00  0.00     0.035 A 
BRANCH   8  11
HETATM   11  O   UNL     1     -40.934  53.309 -52.524  1.00  0.00    -0.291 OA
BRANCH  11  12
HETATM   12  C   UNL     1     -40.366  52.077 -52.720  1.00  0.00     0.095 A 
HETATM   13  C   UNL     1     -39.878  51.282 -51.690  1.00  0.00     0.153 A 
HETATM   14  N   UNL     1     -39.392  50.028 -51.869  1.00  0.00    -0.270 NA
HETATM   15  C   UNL     1     -39.391  49.559 -53.136  1.00  0.00     0.116 A 
HETATM   16  C   UNL     1     -39.867  50.274 -54.226  1.00  0.00     0.022 A 
HETATM   17  C   UNL     1     -40.375  51.552 -54.007  1.00  0.00     0.040 A 
ENDBRANCH  11  12
ENDBRANCH   8  11
ENDBRANCH   2   5
BRANCH   1  18
HETATM   18  C   UNL     1     -43.436  57.985 -58.431  1.00  0.00     0.061 C 
HETATM   19  C   UNL     1     -43.750  59.488 -58.246  1.00  0.00     0.030 C 
HETATM   20  C   UNL     1     -42.101  57.893 -59.202  1.00  0.00     0.030 C 
BRANCH  18  21
HETATM   21  C   UNL     1     -44.510  57.207 -59.215  1.00  0.00    -0.038 A 
HETATM   22  C   UNL     1     -44.194  56.201 -60.143  1.00  0.00     0.050 A 
HETATM   23  C   UNL     1     -45.205  55.533 -60.832  1.00  0.00     0.117 A 
HETATM   24  F   UNL     1     -44.875  54.584 -61.719  1.00  0.00    -0.206 F 
HETATM   25  C   UNL     1     -46.543  55.833 -60.620  1.00  0.00     0.042 A 
HETATM   26  C   UNL     1     -46.880  56.820 -59.701  1.00  0.00     0.004 A 
HETATM   27  C   UNL     1     -45.874  57.500 -59.006  1.00  0.00     0.008 A 
ENDBRANCH  18  21
ENDBRANCH   1  18
TORSDOF 5
ENDMDL
MODEL 5
REMARK VINA RESULT:      -8.0      2.207      2.653
REMARK  5 active torsions:
REMARK  status: ('A' for Active; 'I' for Inactive)
REMARK    1  A    between atoms: C_2  and  C_3 
REMARK    2  A    between atoms: C_2  and  C_19 
REMARK       I    between atoms: C_3  and  N_4 
REMARK    3  A    between atoms: N_4  and  C_5 
REMARK    4  A    between atoms: C_8  and  O_9 
REMARK    5  A    between atoms: O_9  and  C_10 
ROOT
HETATM    1  C   UNL     1     -42.923  54.908 -53.745  1.00  0.00     0.234 C 
HETATM    2  N   UNL     1     -42.326  55.801 -54.626  1.00  0.00    -0.325 N 
HETATM    3  O   UNL     1     -43.990  54.334 -53.949  1.00  0.00    -0.272 OA
HETATM    4  H   UNL     1     -41.396  56.121 -54.386  1.00  0.00     0.169 HD
ENDROOT
BRANCH   2   5
HETATM    5  C   UNL     1     -42.843  56.250 -55.857  1.00  0.00     0.052 A 
HETATM    6  C   UNL     1     -43.450  57.485 -56.074  1.00  0.00     0.149 A 
HETATM    7  N   UNL     1     -43.922  57.900 -57.278  1.00  0.00    -0.235 NA
HETATM    8  C   UNL     1     -43.783  57.052 -58.316  1.00  0.00     0.169 A 
HETATM    9  C   UNL     1     -43.208  55.797 -58.203  1.00  0.00     0.060 A 
HETATM   10  C   UNL     1     -42.727  55.396 -56.957  1.00  0.00     0.035 A 
BRANCH   8  11
HETATM   11  O   UNL     1     -44.276  57.393 -59.569  1.00  0.00    -0.291 OA
BRANCH  11  12
HETATM   12  C   UNL     1     -43.700  58.461 -60.207  1.00  0.00     0.095 A 
HETATM   13  C   UNL     1     -42.333  58.577 -60.433  1.00  0.00     0.153 A 
HETATM   14  N   UNL     1     -41.768  59.589 -61.137  1.00  0.00    -0.270 NA
HETATM   15  C   UNL     1     -42.610  60.526 -61.626  1.00  0.00     0.116 A 
HETATM   16  C   UNL     1     -43.987  60.488 -61.463  1.00  0.00     0.022 A 
HETATM   17  C   UNL     1     -44.539  59.427 -60.750  1.00  0.00     0.040 A 
ENDBRANCH  11  12
ENDBRANCH   8  11
ENDBRANCH   2   5
BRANCH   1  18
HETATM   18  C   UNL     1     -42.128  54.715 -52.421  1.00  0.00     0.061 C 
HETATM   19  C   UNL     1     -41.394  56.047 -52.148  1.00  0.00     0.030 C 
HETATM   20  C   UNL     1     -43.114  54.493 -51.252  1.00  0.00     0.030 C 
BRANCH  18  21
HETATM   21  C   UNL     1     -41.200  53.490 -52.518  1.00  0.00    -0.038 A 
HETATM   22  C   UNL     1     -40.974  52.799 -53.720  1.00  0.00     0.050 A 
HETATM   23  C   UNL     1     -40.130  51.690 -53.752  1.00  0.00     0.117 A 
HETATM   24  F   UNL     1     -39.941  51.045 -54.910  1.00  0.00    -0.206 F 
HETATM   25  C   UNL     1     -39.486  51.241 -52.607  1.00  0.00     0.042 A 
HETATM   26  C   UNL     1     -39.689  51.913 -51.407  1.00  0.00     0.004 A 
HETATM   27  C   UNL     1     -40.537  53.024 -51.363  1.00  0.00     0.008 A 
ENDBRANCH  18  21
ENDBRANCH   1  18
TORSDOF 5
ENDMDL
MODEL 6
REMARK VINA RESULT:      -7.9      4.151      6.709
REMARK  5 active torsions:
REMARK  status: ('A' for Active; 'I' for Inactive)
REMARK    1  A    between atoms: C_2  and  C_3 
REMARK    2  A    between atoms: C_2  and  C_19 
REMARK       I    between atoms: C_3  and  N_4 
REMARK    3  A    between atoms: N_4  and  C_5 
REMARK    4  A    between atoms: C_8  and  O_9 
REMARK    5  A    between atoms: O_9  and  C_10 
ROOT
HETATM    1  C   UNL     1     -41.898  55.172 -53.231  1.00  0.00     0.234 C 
HETATM    2  N   UNL     1     -41.178  56.359 -53.241  1.00  0.00    -0.325 N 
HETATM    3  O   UNL     1     -42.889  54.961 -52.535  1.00  0.00    -0.272 OA
HETATM    4  H   UNL     1     -40.449  56.441 -53.939  1.00  0.00     0.169 HD
ENDROOT
BRANCH   2   5
HETATM    5  C   UNL     1     -41.403  57.493 -52.435  1.00  0.00     0.052 A 
HETATM    6  C   UNL     1     -41.157  57.571 -51.068  1.00  0.00     0.149 A 
HETATM    7  N   UNL     1     -41.364  58.686 -50.319  1.00  0.00    -0.235 NA
HETATM    8  C   UNL     1     -41.835  59.774 -50.959  1.00  0.00     0.169 A 
HETATM    9  C   UNL     1     -42.126  59.796 -52.313  1.00  0.00     0.060 A 
HETATM   10  C   UNL     1     -41.900  58.640 -53.059  1.00  0.00     0.035 A 
BRANCH   8  11
HETATM   11  O   UNL     1     -42.107  60.939 -50.251  1.00  0.00    -0.291 OA
BRANCH  11  12
HETATM   12  C   UNL     1     -43.409  61.365 -50.210  1.00  0.00     0.095 A 
HETATM   13  C   UNL     1     -44.468  60.567 -49.797  1.00  0.00     0.153 A 
HETATM   14  N   UNL     1     -45.745  61.009 -49.674  1.00  0.00    -0.270 NA
HETATM   15  C   UNL     1     -45.965  62.305 -49.988  1.00  0.00     0.116 A 
HETATM   16  C   UNL     1     -44.970  63.181 -50.398  1.00  0.00     0.022 A 
HETATM   17  C   UNL     1     -43.667  62.701 -50.498  1.00  0.00     0.040 A 
ENDBRANCH  11  12
ENDBRANCH   8  11
ENDBRANCH   2   5
BRANCH   1  18
HETATM   18  C   UNL     1     -41.312  54.080 -54.173  1.00  0.00     0.061 C 
HETATM   19  C   UNL     1     -42.470  53.617 -55.087  1.00  0.00     0.030 C 
HETATM   20  C   UNL     1     -40.236  54.706 -55.087  1.00  0.00     0.030 C 
BRANCH  18  21
HETATM   21  C   UNL     1     -40.662  52.948 -53.354  1.00  0.00    -0.038 A 
HETATM   22  C   UNL     1     -40.268  51.727 -53.924  1.00  0.00     0.050 A 
HETATM   23  C   UNL     1     -39.691  50.732 -53.136  1.00  0.00     0.117 A 
HETATM   24  F   UNL     1     -39.333  49.573 -53.705  1.00  0.00    -0.206 F 
HETATM   25  C   UNL     1     -39.484  50.918 -51.777  1.00  0.00     0.042 A 
HETATM   26  C   UNL     1     -39.861  52.122 -51.192  1.00  0.00     0.004 A 
HETATM   27  C   UNL     1     -40.443  53.126 -51.972  1.00  0.00     0.008 A 
ENDBRANCH  18  21
ENDBRANCH   1  18
TORSDOF 5
ENDMDL
MODEL 7
REMARK VINA RESULT:      -7.7     14.995     16.455
REMARK  5 active torsions:
REMARK  status: ('A' for Active; 'I' for Inactive)
REMARK    1  A    between atoms: C_2  and  C_3 
REMARK    2  A    between atoms: C_2  and  C_19 
REMARK       I    between atoms: C_3  and  N_4 
REMARK    3  A    between atoms: N_4  and  C_5 
REMARK    4  A    between atoms: C_8  and  O_9 
REMARK    5  A    between atoms: O_9  and  C_10 
ROOT
HETATM    1  C   UNL     1     -34.636  40.595 -52.979  1.00  0.00     0.234 C 
HETATM    2  N   UNL     1     -34.840  41.710 -53.782  1.00  0.00    -0.325 N 
HETATM    3  O   UNL     1     -34.878  39.439 -53.316  1.00  0.00    -0.272 OA
HETATM    4  H   UNL     1     -34.499  42.594 -53.424  1.00  0.00     0.169 HD
ENDROOT
BRANCH   2   5
HETATM    5  C   UNL     1     -35.401  41.732 -55.074  1.00  0.00     0.052 A 
HETATM    6  C   UNL     1     -34.738  41.378 -56.246  1.00  0.00     0.149 A 
HETATM    7  N   UNL     1     -35.310  41.390 -57.478  1.00  0.00    -0.235 NA
HETATM    8  C   UNL     1     -36.602  41.769 -57.550  1.00  0.00     0.169 A 
HETATM    9  C   UNL     1     -37.346  42.154 -56.447  1.00  0.00     0.060 A 
HETATM   10  C   UNL     1     -36.736  42.128 -55.193  1.00  0.00     0.035 A 
BRANCH   8  11
HETATM   11  O   UNL     1     -37.242  41.842 -58.781  1.00  0.00    -0.291 OA
BRANCH  11  12
HETATM   12  C   UNL     1     -37.612  40.663 -59.373  1.00  0.00     0.095 A 
HETATM   13  C   UNL     1     -37.239  40.298 -60.661  1.00  0.00     0.153 A 
HETATM   14  N   UNL     1     -37.532  39.097 -61.220  1.00  0.00    -0.270 NA
HETATM   15  C   UNL     1     -38.234  38.233 -60.456  1.00  0.00     0.116 A 
HETATM   16  C   UNL     1     -38.640  38.503 -59.157  1.00  0.00     0.022 A 
HETATM   17  C   UNL     1     -38.309  39.738 -58.604  1.00  0.00     0.040 A 
ENDBRANCH  11  12
ENDBRANCH   8  11
ENDBRANCH   2   5
BRANCH   1  18
HETATM   18  C   UNL     1     -34.098  40.940 -51.560  1.00  0.00     0.061 C 
HETATM   19  C   UNL     1     -32.564  40.758 -51.614  1.00  0.00     0.030 C 
HETATM   20  C   UNL     1     -34.367  42.429 -51.250  1.00  0.00     0.030 C 
BRANCH  18  21
HETATM   21  C   UNL     1     -34.799  40.082 -50.489  1.00  0.00    -0.038 A 
HETATM   22  C   UNL     1     -34.126  39.106 -49.735  1.00  0.00     0.050 A 
HETATM   23  C   UNL     1     -34.810  38.351 -48.784  1.00  0.00     0.117 A 
HETATM   24  F   UNL     1     -34.145  37.421 -48.086  1.00  0.00    -0.206 F 
HETATM   25  C   UNL     1     -36.165  38.542 -48.550  1.00  0.00     0.042 A 
HETATM   26  C   UNL     1     -36.850  39.506 -49.280  1.00  0.00     0.004 A 
HETATM   27  C   UNL     1     -36.175  40.268 -50.239  1.00  0.00     0.008 A 
ENDBRANCH  18  21
ENDBRANCH   1  18
TORSDOF 5
ENDMDL
MODEL 8
REMARK VINA RESULT:      -7.6      3.714      9.015
REMARK  5 active torsions:
REMARK  status: ('A' for Active; 'I' for Inactive)
REMARK    1  A    between atoms: C_2  and  C_3 
REMARK    2  A    between atoms: C_2  and  C_19 
REMARK       I    between atoms: C_3  and  N_4 
REMARK    3  A    between atoms: N_4  and  C_5 
REMARK    4  A    between atoms: C_8  and  O_9 
REMARK    5  A    between atoms: O_9  and  C_10 
ROOT
HETATM    1  C   UNL     1     -43.322  57.329 -57.981  1.00  0.00     0.234 C 
HETATM    2  N   UNL     1     -42.450  56.476 -57.319  1.00  0.00    -0.325 N 
HETATM    3  O   UNL     1     -44.341  57.807 -57.488  1.00  0.00    -0.272 OA
HETATM    4  H   UNL     1     -41.591  56.241 -57.802  1.00  0.00     0.169 HD
ENDROOT
BRANCH   2   5
HETATM    5  C   UNL     1     -42.593  55.963 -56.014  1.00  0.00     0.052 A 
HETATM    6  C   UNL     1     -42.438  56.694 -54.839  1.00  0.00     0.149 A 
HETATM    7  N   UNL     1     -42.602  56.178 -53.594  1.00  0.00    -0.235 NA
HETATM    8  C   UNL     1     -42.940  54.875 -53.510  1.00  0.00     0.169 A 
HETATM    9  C   UNL     1     -43.104  54.058 -54.616  1.00  0.00     0.060 A 
HETATM   10  C   UNL     1     -42.934  54.614 -55.884  1.00  0.00     0.035 A 
BRANCH   8  11
HETATM   11  O   UNL     1     -43.087  54.269 -52.269  1.00  0.00    -0.291 OA
BRANCH  11  12
HETATM   12  C   UNL     1     -42.040  54.362 -51.390  1.00  0.00     0.095 A 
HETATM   13  C   UNL     1     -42.095  55.078 -50.200  1.00  0.00     0.153 A 
HETATM   14  N   UNL     1     -41.091  55.104 -49.288  1.00  0.00    -0.270 NA
HETATM   15  C   UNL     1     -39.986  54.388 -49.589  1.00  0.00     0.116 A 
HETATM   16  C   UNL     1     -39.844  53.634 -50.745  1.00  0.00     0.022 A 
HETATM   17  C   UNL     1     -40.898  53.614 -51.654  1.00  0.00     0.040 A 
ENDBRANCH  11  12
ENDBRANCH   8  11
ENDBRANCH   2   5
BRANCH   1  18
HETATM   18  C   UNL     1     -42.916  57.612 -59.457  1.00  0.00     0.061 C 
HETATM   19  C   UNL     1     -41.942  56.485 -59.870  1.00  0.00     0.030 C 
HETATM   20  C   UNL     1     -44.157  57.495 -60.369  1.00  0.00     0.030 C 
BRANCH  18  21
HETATM   21  C   UNL     1     -42.336  59.032 -59.598  1.00  0.00    -0.038 A 
HETATM   22  C   UNL     1     -41.882  59.782 -58.500  1.00  0.00     0.050 A 
HETATM   23  C   UNL     1     -41.374  61.067 -58.683  1.00  0.00     0.117 A 
HETATM   24  F   UNL     1     -40.956  61.762 -57.617  1.00  0.00    -0.206 F 
HETATM   25  C   UNL     1     -41.295  61.639 -59.945  1.00  0.00     0.042 A 
HETATM   26  C   UNL     1     -41.732  60.913 -61.047  1.00  0.00     0.004 A 
HETATM   27  C   UNL     1     -42.248  59.625 -60.876  1.00  0.00     0.008 A 
ENDBRANCH  18  21
ENDBRANCH   1  18
TORSDOF 5
ENDMDL
MODEL 9
REMARK VINA RESULT:      -7.3      3.654      9.162
REMARK  5 active torsions:
REMARK  status: ('A' for Active; 'I' for Inactive)
REMARK    1  A    between atoms: C_2  and  C_3 
REMARK    2  A    between atoms: C_2  and  C_19 
REMARK       I    between atoms: C_3  and  N_4 
REMARK    3  A    between atoms: N_4  and  C_5 
REMARK    4  A    between atoms: C_8  and  O_9 
REMARK    5  A    between atoms: O_9  and  C_10 
ROOT
HETATM    1  C   UNL     1     -42.776  56.614 -57.562  1.00  0.00     0.234 C 
HETATM    2  N   UNL     1     -42.616  55.327 -57.067  1.00  0.00    -0.325 N 
HETATM    3  O   UNL     1     -42.500  57.639 -56.944  1.00  0.00    -0.272 OA
HETATM    4  H   UNL     1     -42.779  54.567 -57.718  1.00  0.00     0.169 HD
ENDROOT
BRANCH   2   5
HETATM    5  C   UNL     1     -42.177  54.962 -55.779  1.00  0.00     0.052 A 
HETATM    6  C   UNL     1     -43.003  54.621 -54.712  1.00  0.00     0.149 A 
HETATM    7  N   UNL     1     -42.551  54.253 -53.485  1.00  0.00    -0.235 NA
HETATM    8  C   UNL     1     -41.214  54.221 -53.310  1.00  0.00     0.169 A 
HETATM    9  C   UNL     1     -40.307  54.556 -54.301  1.00  0.00     0.060 A 
HETATM   10  C   UNL     1     -40.798  54.925 -55.553  1.00  0.00     0.035 A 
BRANCH   8  11
HETATM   11  O   UNL     1     -40.679  53.892 -52.071  1.00  0.00    -0.291 OA
BRANCH  11  12
HETATM   12  C   UNL     1     -40.274  52.596 -51.880  1.00  0.00     0.095 A 
HETATM   13  C   UNL     1     -40.297  51.956 -50.647  1.00  0.00     0.153 A 
HETATM   14  N   UNL     1     -39.977  50.650 -50.468  1.00  0.00    -0.270 NA
HETATM   15  C   UNL     1     -39.612  49.963 -51.573  1.00  0.00     0.116 A 
HETATM   16  C   UNL     1     -39.571  50.513 -52.846  1.00  0.00     0.022 A 
HETATM   17  C   UNL     1     -39.921  51.851 -53.000  1.00  0.00     0.040 A 
ENDBRANCH  11  12
ENDBRANCH   8  11
ENDBRANCH   2   5
BRANCH   1  18
HETATM   18  C   UNL     1     -43.387  56.660 -58.993  1.00  0.00     0.061 C 
HETATM   19  C   UNL     1     -42.224  56.974 -59.960  1.00  0.00     0.030 C 
HETATM   20  C   UNL     1     -43.927  55.263 -59.372  1.00  0.00     0.030 C 
BRANCH  18  21
HETATM   21  C   UNL     1     -44.550  57.668 -59.054  1.00  0.00    -0.038 A 
HETATM   22  C   UNL     1     -44.440  58.920 -59.681  1.00  0.00     0.050 A 
HETATM   23  C   UNL     1     -45.521  59.799 -59.701  1.00  0.00     0.117 A 
HETATM   24  F   UNL     1     -45.385  60.991 -60.298  1.00  0.00    -0.206 F 
HETATM   25  C   UNL     1     -46.733  59.466 -59.113  1.00  0.00     0.042 A 
HETATM   26  C   UNL     1     -46.868  58.229 -58.493  1.00  0.00     0.004 A 
HETATM   27  C   UNL     1     -45.789  57.340 -58.463  1.00  0.00     0.008 A 
ENDBRANCH  18  21
ENDBRANCH   1  18
TORSDOF 5
ENDMDL
MODEL 10
REMARK VINA RESULT:      -7.1      5.288      7.554
REMARK  5 active torsions:
REMARK  status: ('A' for Active; 'I' for Inactive)
REMARK    1  A    between atoms: C_2  and  C_3 
REMARK    2  A    between atoms: C_2  and  C_19 
REMARK       I    between atoms: C_3  and  N_4 
REMARK    3  A    between atoms: N_4  and  C_5 
REMARK    4  A    between atoms: C_8  and  O_9 
REMARK    5  A    between atoms: O_9  and  C_10 
ROOT
HETATM    1  C   UNL     1     -43.621  56.277 -51.039  1.00  0.00     0.234 C 
HETATM    2  N   UNL     1     -42.704  57.179 -51.563  1.00  0.00    -0.325 N 
HETATM    3  O   UNL     1     -44.712  56.586 -50.567  1.00  0.00    -0.272 OA
HETATM    4  H   UNL     1     -41.890  56.784 -52.019  1.00  0.00     0.169 HD
ENDROOT
BRANCH   2   5
HETATM    5  C   UNL     1     -42.821  58.583 -51.599  1.00  0.00     0.052 A 
HETATM    6  C   UNL     1     -43.640  59.301 -52.466  1.00  0.00     0.149 A 
HETATM    7  N   UNL     1     -43.749  60.655 -52.465  1.00  0.00    -0.235 NA
HETATM    8  C   UNL     1     -43.011  61.328 -51.559  1.00  0.00     0.169 A 
HETATM    9  C   UNL     1     -42.155  60.709 -50.662  1.00  0.00     0.060 A 
HETATM   10  C   UNL     1     -42.066  59.318 -50.682  1.00  0.00     0.035 A 
BRANCH   8  11
HETATM   11  O   UNL     1     -43.042  62.716 -51.524  1.00  0.00    -0.291 OA
BRANCH  11  12
HETATM   12  C   UNL     1     -43.642  63.309 -50.444  1.00  0.00     0.095 A 
HETATM   13  C   UNL     1     -44.915  62.980 -49.993  1.00  0.00     0.153 A 
HETATM   14  N   UNL     1     -45.479  63.504 -48.876  1.00  0.00    -0.270 NA
HETATM   15  C   UNL     1     -44.736  64.400 -48.191  1.00  0.00     0.116 A 
HETATM   16  C   UNL     1     -43.454  64.782 -48.556  1.00  0.00     0.022 A 
HETATM   17  C   UNL     1     -42.895  64.215 -49.698  1.00  0.00     0.040 A 
ENDBRANCH  11  12
ENDBRANCH   8  11
ENDBRANCH   2   5
BRANCH   1  18
HETATM   18  C   UNL     1     -43.126  54.802 -51.061  1.00  0.00     0.061 C 
HETATM   19  C   UNL     1     -42.050  54.681 -49.958  1.00  0.00     0.030 C 
HETATM   20  C   UNL     1     -44.286  53.859 -50.669  1.00  0.00     0.030 C 
BRANCH  18  21
HETATM   21  C   UNL     1     -42.635  54.415 -52.469  1.00  0.00    -0.038 A 
HETATM   22  C   UNL     1     -41.390  53.805 -52.699  1.00  0.00     0.050 A 
HETATM   23  C   UNL     1     -40.990  53.483 -53.995  1.00  0.00     0.117 A 
HETATM   24  F   UNL     1     -39.794  52.910 -54.187  1.00  0.00    -0.206 F 
HETATM   25  C   UNL     1     -41.803  53.746 -55.088  1.00  0.00     0.042 A 
HETATM   26  C   UNL     1     -43.042  54.343 -54.884  1.00  0.00     0.004 A 
HETATM   27  C   UNL     1     -43.453  54.674 -53.589  1.00  0.00     0.008 A 
ENDBRANCH  18  21
ENDBRANCH   1  18
TORSDOF 5
ENDMDL
