MODEL 1
REMARK VINA RESULT:      -9.3      0.000      0.000
REMARK  6 active torsions:
REMARK  status: ('A' for Active; 'I' for Inactive)
REMARK    1  A    between atoms: C_4  and  O_5 
REMARK    2  A    between atoms: O_5  and  C_6 
REMARK    3  A    between atoms: C_6  and  C_7 
REMARK       I    between atoms: C_7  and  N_8 
REMARK    4  A    between atoms: N_8  and  C_9 
REMARK    5  A    between atoms: C_16  and  C_17 
REMARK       I    between atoms: C_17  and  N_18 
REMARK    6  A    between atoms: C_23  and  C_24 
ROOT
HETATM    1  C   UNL     1     -41.827  55.125 -55.474  1.00  0.00     0.246 C 
HETATM    2  N   UNL     1     -41.779  56.218 -56.324  1.00  0.00    -0.325 N 
HETATM    3  O   UNL     1     -42.733  54.300 -55.396  1.00  0.00    -0.271 OA
HETATM    4  H   UNL     1     -40.891  56.709 -56.350  1.00  0.00     0.169 HD
ENDROOT
BRANCH   2   5
HETATM    5  C   UNL     1     -42.812  56.701 -57.157  1.00  0.00     0.035 A 
HETATM    6  C   UNL     1     -43.319  55.986 -58.252  1.00  0.00     0.046 A 
HETATM    7  C   UNL     1     -44.391  56.516 -59.003  1.00  0.00     0.030 A 
HETATM    8  C   UNL     1     -44.918  57.748 -58.638  1.00  0.00     0.063 A 
HETATM    9  C   UNL     1     -45.161  56.100 -60.131  1.00  0.00     0.156 A 
HETATM   10  N   UNL     1     -45.925  57.988 -59.530  1.00  0.00    -0.277 N 
HETATM   11  C   UNL     1     -44.436  58.492 -57.558  1.00  0.00     0.034 A 
HETATM   12  H   UNL     1     -46.534  58.798 -59.567  1.00  0.00     0.189 HD
HETATM   13  N   UNL     1     -46.102  57.021 -60.446  1.00  0.00    -0.168 NA
HETATM   14  C   UNL     1     -43.375  57.940 -56.826  1.00  0.00     0.032 A 
BRANCH   9  15
HETATM   15  C   UNL     1     -45.022  54.856 -60.900  1.00  0.00     0.270 C 
HETATM   16  N   UNL     1     -44.970  53.725 -60.129  1.00  0.00    -0.365 N 
HETATM   17  H   UNL     1     -45.027  53.820 -59.122  1.00  0.00     0.159 HD
HETATM   18  H   UNL     1     -44.874  52.825 -60.572  1.00  0.00     0.159 HD
HETATM   19  O   UNL     1     -44.951  54.790 -62.122  1.00  0.00    -0.266 OA
ENDBRANCH   9  15
ENDBRANCH   2   5
BRANCH   1  20
HETATM   20  C   UNL     1     -40.654  55.078 -54.497  1.00  0.00     0.278 C 
BRANCH  20  21
HETATM   21  O   UNL     1     -41.068  54.764 -53.166  1.00  0.00    -0.342 OA
BRANCH  21  22
HETATM   22  C   UNL     1     -40.580  53.548 -52.742  1.00  0.00     0.076 A 
HETATM   23  C   UNL     1     -40.339  52.511 -53.657  1.00  0.00     0.044 A 
HETATM   24  C   UNL     1     -39.826  51.280 -53.234  1.00  0.00    -0.059 A 
HETATM   25  C   UNL     1     -39.540  50.183 -54.216  1.00  0.00     0.048 C 
HETATM   26  C   UNL     1     -39.592  51.080 -51.874  1.00  0.00     0.007 A 
HETATM   27  C   UNL     1     -39.866  52.095 -50.954  1.00  0.00     0.011 A 
HETATM   28  C   UNL     1     -40.370  53.344 -51.367  1.00  0.00    -0.021 A 
BRANCH  28  29
HETATM   29  C   UNL     1     -40.619  54.397 -50.297  1.00  0.00     0.013 C 
HETATM   30  C   UNL     1     -42.109  54.586 -50.010  1.00  0.00     0.015 C 
HETATM   31  C   UNL     1     -39.825  54.142 -49.015  1.00  0.00     0.015 C 
ENDBRANCH  28  29
ENDBRANCH  21  22
ENDBRANCH  20  21
ENDBRANCH   1  20
TORSDOF 6
ENDMDL
MODEL 2
REMARK VINA RESULT:      -9.1      1.720      3.095
REMARK  6 active torsions:
REMARK  status: ('A' for Active; 'I' for Inactive)
REMARK    1  A    between atoms: C_4  and  O_5 
REMARK    2  A    between atoms: O_5  and  C_6 
REMARK    3  A    between atoms: C_6  and  C_7 
REMARK       I    between atoms: C_7  and  N_8 
REMARK    4  A    between atoms: N_8  and  C_9 
REMARK    5  A    between atoms: C_16  and  C_17 
REMARK       I    between atoms: C_17  and  N_18 
REMARK    6  A    between atoms: C_23  and  C_24 
ROOT
HETATM    1  C   UNL     1     -43.853  56.170 -53.978  1.00  0.00     0.246 C 
HETATM    2  N   UNL     1     -43.069  55.687 -55.014  1.00  0.00    -0.325 N 
HETATM    3  O   UNL     1     -44.676  57.077 -54.048  1.00  0.00    -0.271 OA
HETATM    4  H   UNL     1     -42.548  54.841 -54.805  1.00  0.00     0.169 HD
ENDROOT
BRANCH   2   5
HETATM    5  C   UNL     1     -42.935  56.228 -56.310  1.00  0.00     0.035 A 
HETATM    6  C   UNL     1     -43.478  55.630 -57.457  1.00  0.00     0.046 A 
HETATM    7  C   UNL     1     -43.345  56.265 -58.711  1.00  0.00     0.030 A 
HETATM    8  C   UNL     1     -42.669  57.476 -58.780  1.00  0.00     0.063 A 
HETATM    9  C   UNL     1     -43.755  55.991 -60.051  1.00  0.00     0.156 A 
HETATM   10  N   UNL     1     -42.708  57.837 -60.098  1.00  0.00    -0.277 N 
HETATM   11  C   UNL     1     -42.110  58.100 -57.662  1.00  0.00     0.034 A 
HETATM   12  H   UNL     1     -42.314  58.671 -60.519  1.00  0.00     0.189 HD
HETATM   13  N   UNL     1     -43.353  56.969 -60.896  1.00  0.00    -0.168 NA
HETATM   14  C   UNL     1     -42.260  57.450 -56.428  1.00  0.00     0.032 A 
BRANCH   9  15
HETATM   15  C   UNL     1     -44.519  54.831 -60.534  1.00  0.00     0.270 C 
HETATM   16  N   UNL     1     -44.644  53.823 -59.616  1.00  0.00    -0.365 N 
HETATM   17  H   UNL     1     -44.218  53.940 -58.704  1.00  0.00     0.159 HD
HETATM   18  H   UNL     1     -45.151  52.987 -59.860  1.00  0.00     0.159 HD
HETATM   19  O   UNL     1     -45.013  54.732 -61.652  1.00  0.00    -0.266 OA
ENDBRANCH   9  15
ENDBRANCH   2   5
BRANCH   1  20
HETATM   20  C   UNL     1     -43.519  55.533 -52.631  1.00  0.00     0.278 C 
BRANCH  20  21
HETATM   21  O   UNL     1     -43.117  54.168 -52.759  1.00  0.00    -0.342 OA
BRANCH  21  22
HETATM   22  C   UNL     1     -41.995  53.883 -52.013  1.00  0.00     0.076 A 
HETATM   23  C   UNL     1     -41.904  54.280 -50.670  1.00  0.00     0.044 A 
HETATM   24  C   UNL     1     -40.776  53.976 -49.902  1.00  0.00    -0.059 A 
HETATM   25  C   UNL     1     -40.693  54.374 -48.458  1.00  0.00     0.048 C 
HETATM   26  C   UNL     1     -39.714  53.302 -50.504  1.00  0.00     0.007 A 
HETATM   27  C   UNL     1     -39.782  52.937 -51.850  1.00  0.00     0.011 A 
HETATM   28  C   UNL     1     -40.919  53.225 -52.632  1.00  0.00    -0.021 A 
BRANCH  28  29
HETATM   29  C   UNL     1     -40.913  52.771 -54.085  1.00  0.00     0.013 C 
HETATM   30  C   UNL     1     -40.158  53.746 -54.990  1.00  0.00     0.015 C 
HETATM   31  C   UNL     1     -40.411  51.337 -54.259  1.00  0.00     0.015 C 
ENDBRANCH  28  29
ENDBRANCH  21  22
ENDBRANCH  20  21
ENDBRANCH   1  20
TORSDOF 6
ENDMDL
MODEL 3
REMARK VINA RESULT:      -9.0      1.700      2.626
REMARK  6 active torsions:
REMARK  status: ('A' for Active; 'I' for Inactive)
REMARK    1  A    between atoms: C_4  and  O_5 
REMARK    2  A    between atoms: O_5  and  C_6 
REMARK    3  A    between atoms: C_6  and  C_7 
REMARK       I    between atoms: C_7  and  N_8 
REMARK    4  A    between atoms: N_8  and  C_9 
REMARK    5  A    between atoms: C_16  and  C_17 
REMARK       I    between atoms: C_17  and  N_18 
REMARK    6  A    between atoms: C_23  and  C_24 
ROOT
HETATM    1  C   UNL     1     -42.270  54.912 -55.973  1.00  0.00     0.246 C 
HETATM    2  N   UNL     1     -42.089  55.851 -56.976  1.00  0.00    -0.325 N 
HETATM    3  O   UNL     1     -43.256  54.199 -55.810  1.00  0.00    -0.271 OA
HETATM    4  H   UNL     1     -41.156  56.246 -57.037  1.00  0.00     0.169 HD
ENDROOT
BRANCH   2   5
HETATM    5  C   UNL     1     -43.045  56.296 -57.915  1.00  0.00     0.035 A 
HETATM    6  C   UNL     1     -44.049  57.227 -57.612  1.00  0.00     0.046 A 
HETATM    7  C   UNL     1     -44.934  57.661 -58.624  1.00  0.00     0.030 A 
HETATM    8  C   UNL     1     -44.788  57.146 -59.906  1.00  0.00     0.063 A 
HETATM    9  C   UNL     1     -46.031  58.570 -58.710  1.00  0.00     0.156 A 
HETATM   10  N   UNL     1     -45.766  57.747 -60.649  1.00  0.00    -0.277 N 
HETATM   11  C   UNL     1     -43.804  56.214 -60.244  1.00  0.00     0.034 A 
HETATM   12  H   UNL     1     -45.958  57.612 -61.635  1.00  0.00     0.189 HD
HETATM   13  N   UNL     1     -46.536  58.610 -59.965  1.00  0.00    -0.168 NA
HETATM   14  C   UNL     1     -42.936  55.804 -59.222  1.00  0.00     0.032 A 
BRANCH   9  15
HETATM   15  C   UNL     1     -46.598  59.394 -57.632  1.00  0.00     0.270 C 
HETATM   16  N   UNL     1     -47.957  59.287 -57.503  1.00  0.00    -0.365 N 
HETATM   17  H   UNL     1     -48.459  58.674 -58.134  1.00  0.00     0.159 HD
HETATM   18  H   UNL     1     -48.432  59.818 -56.790  1.00  0.00     0.159 HD
HETATM   19  O   UNL     1     -45.949  60.128 -56.895  1.00  0.00    -0.266 OA
ENDBRANCH   9  15
ENDBRANCH   2   5
BRANCH   1  20
HETATM   20  C   UNL     1     -41.135  54.905 -54.951  1.00  0.00     0.278 C 
BRANCH  20  21
HETATM   21  O   UNL     1     -41.571  54.484 -53.658  1.00  0.00    -0.342 OA
BRANCH  21  22
HETATM   22  C   UNL     1     -40.896  53.369 -53.217  1.00  0.00     0.076 A 
HETATM   23  C   UNL     1     -40.652  52.289 -54.080  1.00  0.00     0.044 A 
HETATM   24  C   UNL     1     -39.950  51.160 -53.643  1.00  0.00    -0.059 A 
HETATM   25  C   UNL     1     -39.663  50.020 -54.575  1.00  0.00     0.048 C 
HETATM   26  C   UNL     1     -39.526  51.103 -52.316  1.00  0.00     0.007 A 
HETATM   27  C   UNL     1     -39.800  52.157 -51.442  1.00  0.00     0.011 A 
HETATM   28  C   UNL     1     -40.494  53.306 -51.872  1.00  0.00    -0.021 A 
BRANCH  28  29
HETATM   29  C   UNL     1     -40.728  54.414 -50.856  1.00  0.00     0.013 C 
HETATM   30  C   UNL     1     -42.163  54.415 -50.324  1.00  0.00     0.015 C 
HETATM   31  C   UNL     1     -39.706  54.405 -49.718  1.00  0.00     0.015 C 
ENDBRANCH  28  29
ENDBRANCH  21  22
ENDBRANCH  20  21
ENDBRANCH   1  20
TORSDOF 6
ENDMDL
MODEL 4
REMARK VINA RESULT:      -8.9      2.335      3.399
REMARK  6 active torsions:
REMARK  status: ('A' for Active; 'I' for Inactive)
REMARK    1  A    between atoms: C_4  and  O_5 
REMARK    2  A    between atoms: O_5  and  C_6 
REMARK    3  A    between atoms: C_6  and  C_7 
REMARK       I    between atoms: C_7  and  N_8 
REMARK    4  A    between atoms: N_8  and  C_9 
REMARK    5  A    between atoms: C_16  and  C_17 
REMARK       I    between atoms: C_17  and  N_18 
REMARK    6  A    between atoms: C_23  and  C_24 
ROOT
HETATM    1  C   UNL     1     -43.351  55.304 -54.825  1.00  0.00     0.246 C 
HETATM    2  N   UNL     1     -42.749  55.112 -56.058  1.00  0.00    -0.325 N 
HETATM    3  O   UNL     1     -44.164  56.176 -54.537  1.00  0.00    -0.271 OA
HETATM    4  H   UNL     1     -42.211  54.256 -56.150  1.00  0.00     0.169 HD
ENDROOT
BRANCH   2   5
HETATM    5  C   UNL     1     -42.819  55.959 -57.185  1.00  0.00     0.035 A 
HETATM    6  C   UNL     1     -42.419  57.303 -57.167  1.00  0.00     0.046 A 
HETATM    7  C   UNL     1     -42.470  58.068 -58.353  1.00  0.00     0.030 A 
HETATM    8  C   UNL     1     -42.925  57.466 -59.519  1.00  0.00     0.063 A 
HETATM    9  C   UNL     1     -42.148  59.408 -58.727  1.00  0.00     0.156 A 
HETATM   10  N   UNL     1     -42.856  58.437 -60.478  1.00  0.00    -0.277 N 
HETATM   11  C   UNL     1     -43.337  56.132 -59.575  1.00  0.00     0.034 A 
HETATM   12  H   UNL     1     -43.108  58.353 -61.456  1.00  0.00     0.189 HD
HETATM   13  N   UNL     1     -42.394  59.621 -60.041  1.00  0.00    -0.168 NA
HETATM   14  C   UNL     1     -43.272  55.394 -58.384  1.00  0.00     0.032 A 
BRANCH   9  15
HETATM   15  C   UNL     1     -41.612  60.473 -57.867  1.00  0.00     0.270 C 
HETATM   16  N   UNL     1     -41.287  61.622 -58.539  1.00  0.00    -0.365 N 
HETATM   17  H   UNL     1     -41.430  61.656 -59.541  1.00  0.00     0.159 HD
HETATM   18  H   UNL     1     -40.911  62.406 -58.030  1.00  0.00     0.159 HD
HETATM   19  O   UNL     1     -41.452  60.383 -56.656  1.00  0.00    -0.266 OA
ENDBRANCH   9  15
ENDBRANCH   2   5
BRANCH   1  20
HETATM   20  C   UNL     1     -42.812  54.366 -53.746  1.00  0.00     0.278 C 
BRANCH  20  21
HETATM   21  O   UNL     1     -41.412  54.540 -53.524  1.00  0.00    -0.342 OA
BRANCH  21  22
HETATM   22  C   UNL     1     -40.802  53.380 -53.103  1.00  0.00     0.076 A 
HETATM   23  C   UNL     1     -40.588  52.316 -53.992  1.00  0.00     0.044 A 
HETATM   24  C   UNL     1     -39.952  51.142 -53.574  1.00  0.00    -0.059 A 
HETATM   25  C   UNL     1     -39.697  50.017 -54.533  1.00  0.00     0.048 C 
HETATM   26  C   UNL     1     -39.564  51.025 -52.240  1.00  0.00     0.007 A 
HETATM   27  C   UNL     1     -39.808  52.066 -51.341  1.00  0.00     0.011 A 
HETATM   28  C   UNL     1     -40.436  53.259 -51.751  1.00  0.00    -0.021 A 
BRANCH  28  29
HETATM   29  C   UNL     1     -40.642  54.347 -50.707  1.00  0.00     0.013 C 
HETATM   30  C   UNL     1     -42.060  54.335 -50.134  1.00  0.00     0.015 C 
HETATM   31  C   UNL     1     -39.587  54.318 -49.601  1.00  0.00     0.015 C 
ENDBRANCH  28  29
ENDBRANCH  21  22
ENDBRANCH  20  21
ENDBRANCH   1  20
TORSDOF 6
ENDMDL
MODEL 5
REMARK VINA RESULT:      -8.8      2.607      4.342
REMARK  6 active torsions:
REMARK  status: ('A' for Active; 'I' for Inactive)
REMARK    1  A    between atoms: C_4  and  O_5 
REMARK    2  A    between atoms: O_5  and  C_6 
REMARK    3  A    between atoms: C_6  and  C_7 
REMARK       I    between atoms: C_7  and  N_8 
REMARK    4  A    between atoms: N_8  and  C_9 
REMARK    5  A    between atoms: C_16  and  C_17 
REMARK       I    between atoms: C_17  and  N_18 
REMARK    6  A    between atoms: C_23  and  C_24 
ROOT
HETATM    1  C   UNL     1     -43.756  56.168 -54.276  1.00  0.00     0.246 C 
HETATM    2  N   UNL     1     -42.856  55.825 -55.273  1.00  0.00    -0.325 N 
HETATM    3  O   UNL     1     -44.746  56.882 -54.401  1.00  0.00    -0.271 OA
HETATM    4  H   UNL     1     -42.179  55.113 -55.020  1.00  0.00     0.169 HD
ENDROOT
BRANCH   2   5
HETATM    5  C   UNL     1     -42.796  56.341 -56.586  1.00  0.00     0.035 A 
HETATM    6  C   UNL     1     -42.404  57.655 -56.881  1.00  0.00     0.046 A 
HETATM    7  C   UNL     1     -42.317  58.078 -58.226  1.00  0.00     0.030 A 
HETATM    8  C   UNL     1     -42.630  57.174 -59.233  1.00  0.00     0.063 A 
HETATM    9  C   UNL     1     -41.958  59.281 -58.905  1.00  0.00     0.156 A 
HETATM   10  N   UNL     1     -42.452  57.859 -60.402  1.00  0.00    -0.277 N 
HETATM   11  C   UNL     1     -43.029  55.859 -58.978  1.00  0.00     0.034 A 
HETATM   12  H   UNL     1     -42.587  57.512 -61.345  1.00  0.00     0.189 HD
HETATM   13  N   UNL     1     -42.048  59.132 -60.247  1.00  0.00    -0.168 NA
HETATM   14  C   UNL     1     -43.102  55.464 -57.634  1.00  0.00     0.032 A 
BRANCH   9  15
HETATM   15  C   UNL     1     -41.530  60.554 -58.305  1.00  0.00     0.270 C 
HETATM   16  N   UNL     1     -41.411  61.581 -59.202  1.00  0.00    -0.365 N 
HETATM   17  H   UNL     1     -41.615  61.401 -60.178  1.00  0.00     0.159 HD
HETATM   18  H   UNL     1     -41.121  62.492 -58.881  1.00  0.00     0.159 HD
HETATM   19  O   UNL     1     -41.288  60.723 -57.116  1.00  0.00    -0.266 OA
ENDBRANCH   9  15
ENDBRANCH   2   5
BRANCH   1  20
HETATM   20  C   UNL     1     -43.340  55.658 -52.898  1.00  0.00     0.278 C 
BRANCH  20  21
HETATM   21  O   UNL     1     -43.065  54.256 -52.897  1.00  0.00    -0.342 OA
BRANCH  21  22
HETATM   22  C   UNL     1     -41.990  53.937 -52.099  1.00  0.00     0.076 A 
HETATM   23  C   UNL     1     -41.937  54.358 -50.761  1.00  0.00     0.044 A 
HETATM   24  C   UNL     1     -40.856  54.020 -49.940  1.00  0.00    -0.059 A 
HETATM   25  C   UNL     1     -40.816  54.445 -48.502  1.00  0.00     0.048 C 
HETATM   26  C   UNL     1     -39.802  53.286 -50.482  1.00  0.00     0.007 A 
HETATM   27  C   UNL     1     -39.831  52.896 -51.823  1.00  0.00     0.011 A 
HETATM   28  C   UNL     1     -40.920  53.217 -52.658  1.00  0.00    -0.021 A 
BRANCH  28  29
HETATM   29  C   UNL     1     -40.875  52.733 -54.100  1.00  0.00     0.013 C 
HETATM   30  C   UNL     1     -40.177  53.733 -55.023  1.00  0.00     0.015 C 
HETATM   31  C   UNL     1     -40.282  51.330 -54.238  1.00  0.00     0.015 C 
ENDBRANCH  28  29
ENDBRANCH  21  22
ENDBRANCH  20  21
ENDBRANCH   1  20
TORSDOF 6
ENDMDL
MODEL 6
REMARK VINA RESULT:      -8.7      4.629      6.594
REMARK  6 active torsions:
REMARK  status: ('A' for Active; 'I' for Inactive)
REMARK    1  A    between atoms: C_4  and  O_5 
REMARK    2  A    between atoms: O_5  and  C_6 
REMARK    3  A    between atoms: C_6  and  C_7 
REMARK       I    between atoms: C_7  and  N_8 
REMARK    4  A    between atoms: N_8  and  C_9 
REMARK    5  A    between atoms: C_16  and  C_17 
REMARK       I    between atoms: C_17  and  N_18 
REMARK    6  A    between atoms: C_23  and  C_24 
ROOT
HETATM    1  C   UNL     1     -43.055  54.909 -50.837  1.00  0.00     0.246 C 
HETATM    2  N   UNL     1     -42.737  55.964 -51.677  1.00  0.00    -0.325 N 
HETATM    3  O   UNL     1     -44.171  54.622 -50.416  1.00  0.00    -0.271 OA
HETATM    4  H   UNL     1     -41.786  55.964 -52.033  1.00  0.00     0.169 HD
ENDROOT
BRANCH   2   5
HETATM    5  C   UNL     1     -43.586  57.011 -52.094  1.00  0.00     0.035 A 
HETATM    6  C   UNL     1     -44.004  58.050 -51.249  1.00  0.00     0.046 A 
HETATM    7  C   UNL     1     -44.811  59.091 -51.759  1.00  0.00     0.030 A 
HETATM    8  C   UNL     1     -45.179  59.057 -53.098  1.00  0.00     0.063 A 
HETATM    9  C   UNL     1     -45.403  60.282 -51.240  1.00  0.00     0.156 A 
HETATM   10  N   UNL     1     -45.939  60.176 -53.292  1.00  0.00    -0.277 N 
HETATM   11  C   UNL     1     -44.787  58.037 -53.969  1.00  0.00     0.034 A 
HETATM   12  H   UNL     1     -46.377  60.480 -54.155  1.00  0.00     0.189 HD
HETATM   13  N   UNL     1     -46.098  60.940 -52.198  1.00  0.00    -0.168 NA
HETATM   14  C   UNL     1     -43.982  57.019 -53.438  1.00  0.00     0.032 A 
BRANCH   9  15
HETATM   15  C   UNL     1     -45.316  60.800 -49.867  1.00  0.00     0.270 C 
HETATM   16  N   UNL     1     -44.039  60.872 -49.378  1.00  0.00    -0.365 N 
HETATM   17  H   UNL     1     -43.273  60.574 -49.971  1.00  0.00     0.159 HD
HETATM   18  H   UNL     1     -43.882  61.216 -48.443  1.00  0.00     0.159 HD
HETATM   19  O   UNL     1     -46.274  61.145 -49.185  1.00  0.00    -0.266 OA
ENDBRANCH   9  15
ENDBRANCH   2   5
BRANCH   1  20
HETATM   20  C   UNL     1     -41.825  54.146 -50.347  1.00  0.00     0.278 C 
BRANCH  20  21
HETATM   21  O   UNL     1     -40.718  54.268 -51.240  1.00  0.00    -0.342 OA
BRANCH  21  22
HETATM   22  C   UNL     1     -40.406  53.075 -51.851  1.00  0.00     0.076 A 
HETATM   23  C   UNL     1     -39.933  51.986 -51.103  1.00  0.00     0.044 A 
HETATM   24  C   UNL     1     -39.633  50.765 -51.717  1.00  0.00    -0.059 A 
HETATM   25  C   UNL     1     -39.157  49.592 -50.912  1.00  0.00     0.048 C 
HETATM   26  C   UNL     1     -39.773  50.654 -53.100  1.00  0.00     0.007 A 
HETATM   27  C   UNL     1     -40.207  51.746 -53.854  1.00  0.00     0.011 A 
HETATM   28  C   UNL     1     -40.526  52.977 -53.248  1.00  0.00    -0.021 A 
BRANCH  28  29
HETATM   29  C   UNL     1     -41.011  54.105 -54.147  1.00  0.00     0.013 C 
HETATM   30  C   UNL     1     -39.992  54.456 -55.232  1.00  0.00     0.015 C 
HETATM   31  C   UNL     1     -42.396  53.841 -54.740  1.00  0.00     0.015 C 
ENDBRANCH  28  29
ENDBRANCH  21  22
ENDBRANCH  20  21
ENDBRANCH   1  20
TORSDOF 6
ENDMDL
MODEL 7
REMARK VINA RESULT:      -8.5      2.449      3.747
REMARK  6 active torsions:
REMARK  status: ('A' for Active; 'I' for Inactive)
REMARK    1  A    between atoms: C_4  and  O_5 
REMARK    2  A    between atoms: O_5  and  C_6 
REMARK    3  A    between atoms: C_6  and  C_7 
REMARK       I    between atoms: C_7  and  N_8 
REMARK    4  A    between atoms: N_8  and  C_9 
REMARK    5  A    between atoms: C_16  and  C_17 
REMARK       I    between atoms: C_17  and  N_18 
REMARK    6  A    between atoms: C_23  and  C_24 
ROOT
HETATM    1  C   UNL     1     -42.206  56.886 -53.693  1.00  0.00     0.246 C 
HETATM    2  N   UNL     1     -43.042  57.680 -54.461  1.00  0.00    -0.325 N 
HETATM    3  O   UNL     1     -40.986  56.802 -53.790  1.00  0.00    -0.271 OA
HETATM    4  H   UNL     1     -44.006  57.727 -54.147  1.00  0.00     0.169 HD
ENDROOT
BRANCH   2   5
HETATM    5  C   UNL     1     -42.695  58.431 -55.605  1.00  0.00     0.035 A 
HETATM    6  C   UNL     1     -42.603  57.880 -56.892  1.00  0.00     0.046 A 
HETATM    7  C   UNL     1     -42.303  58.712 -57.993  1.00  0.00     0.030 A 
HETATM    8  C   UNL     1     -42.100  60.068 -57.772  1.00  0.00     0.063 A 
HETATM    9  C   UNL     1     -42.143  58.536 -59.401  1.00  0.00     0.156 A 
HETATM   10  N   UNL     1     -41.838  60.599 -59.004  1.00  0.00    -0.277 N 
HETATM   11  C   UNL     1     -42.178  60.652 -56.505  1.00  0.00     0.034 A 
HETATM   12  H   UNL     1     -41.643  61.569 -59.226  1.00  0.00     0.189 HD
HETATM   13  N   UNL     1     -41.854  59.709 -60.011  1.00  0.00    -0.168 NA
HETATM   14  C   UNL     1     -42.482  59.805 -55.430  1.00  0.00     0.032 A 
BRANCH   9  15
HETATM   15  C   UNL     1     -42.264  57.287 -60.167  1.00  0.00     0.270 C 
HETATM   16  N   UNL     1     -41.092  56.588 -60.283  1.00  0.00    -0.365 N 
HETATM   17  H   UNL     1     -40.256  56.965 -59.853  1.00  0.00     0.159 HD
HETATM   18  H   UNL     1     -41.080  55.718 -60.794  1.00  0.00     0.159 HD
HETATM   19  O   UNL     1     -43.299  56.873 -60.675  1.00  0.00    -0.266 OA
ENDBRANCH   9  15
ENDBRANCH   2   5
BRANCH   1  20
HETATM   20  C   UNL     1     -42.968  55.975 -52.732  1.00  0.00     0.278 C 
BRANCH  20  21
HETATM   21  O   UNL     1     -42.743  54.591 -53.001  1.00  0.00    -0.342 OA
BRANCH  21  22
HETATM   22  C   UNL     1     -41.802  54.042 -52.159  1.00  0.00     0.076 A 
HETATM   23  C   UNL     1     -41.733  54.425 -50.810  1.00  0.00     0.044 A 
HETATM   24  C   UNL     1     -40.792  53.857 -49.945  1.00  0.00    -0.059 A 
HETATM   25  C   UNL     1     -40.740  54.244 -48.497  1.00  0.00     0.048 C 
HETATM   26  C   UNL     1     -39.887  52.925 -50.454  1.00  0.00     0.007 A 
HETATM   27  C   UNL     1     -39.925  52.569 -51.803  1.00  0.00     0.011 A 
HETATM   28  C   UNL     1     -40.877  53.123 -52.683  1.00  0.00    -0.021 A 
BRANCH  28  29
HETATM   29  C   UNL     1     -40.857  52.659 -54.132  1.00  0.00     0.013 C 
HETATM   30  C   UNL     1     -40.190  53.681 -55.055  1.00  0.00     0.015 C 
HETATM   31  C   UNL     1     -40.251  51.265 -54.303  1.00  0.00     0.015 C 
ENDBRANCH  28  29
ENDBRANCH  21  22
ENDBRANCH  20  21
ENDBRANCH   1  20
TORSDOF 6
ENDMDL
MODEL 8
REMARK VINA RESULT:      -8.5      4.112      5.920
REMARK  6 active torsions:
REMARK  status: ('A' for Active; 'I' for Inactive)
REMARK    1  A    between atoms: C_4  and  O_5 
REMARK    2  A    between atoms: O_5  and  C_6 
REMARK    3  A    between atoms: C_6  and  C_7 
REMARK       I    between atoms: C_7  and  N_8 
REMARK    4  A    between atoms: N_8  and  C_9 
REMARK    5  A    between atoms: C_16  and  C_17 
REMARK       I    between atoms: C_17  and  N_18 
REMARK    6  A    between atoms: C_23  and  C_24 
ROOT
HETATM    1  C   UNL     1     -42.387  56.087 -54.706  1.00  0.00     0.246 C 
HETATM    2  N   UNL     1     -41.919  56.978 -53.754  1.00  0.00    -0.325 N 
HETATM    3  O   UNL     1     -43.261  56.302 -55.540  1.00  0.00    -0.271 OA
HETATM    4  H   UNL     1     -41.097  56.673 -53.242  1.00  0.00     0.169 HD
ENDROOT
BRANCH   2   5
HETATM    5  C   UNL     1     -42.445  58.250 -53.439  1.00  0.00     0.035 A 
HETATM    6  C   UNL     1     -43.398  58.463 -52.433  1.00  0.00     0.046 A 
HETATM    7  C   UNL     1     -43.834  59.775 -52.144  1.00  0.00     0.030 A 
HETATM    8  C   UNL     1     -43.305  60.832 -52.874  1.00  0.00     0.063 A 
HETATM    9  C   UNL     1     -44.742  60.378 -51.221  1.00  0.00     0.156 A 
HETATM   10  N   UNL     1     -43.904  61.953 -52.372  1.00  0.00    -0.277 N 
HETATM   11  C   UNL     1     -42.359  60.658 -53.887  1.00  0.00     0.034 A 
HETATM   12  H   UNL     1     -43.757  62.912 -52.666  1.00  0.00     0.189 HD
HETATM   13  N   UNL     1     -44.776  61.722 -51.376  1.00  0.00    -0.168 NA
HETATM   14  C   UNL     1     -41.940  59.346 -54.151  1.00  0.00     0.032 A 
BRANCH   9  15
HETATM   15  C   UNL     1     -45.563  59.704 -50.204  1.00  0.00     0.270 C 
HETATM   16  N   UNL     1     -45.327  60.131 -48.925  1.00  0.00    -0.365 N 
HETATM   17  H   UNL     1     -44.630  60.850 -48.772  1.00  0.00     0.159 HD
HETATM   18  H   UNL     1     -45.844  59.723 -48.161  1.00  0.00     0.159 HD
HETATM   19  O   UNL     1     -46.392  58.833 -50.437  1.00  0.00    -0.266 OA
ENDBRANCH   9  15
ENDBRANCH   2   5
BRANCH   1  20
HETATM   20  C   UNL     1     -41.785  54.690 -54.562  1.00  0.00     0.278 C 
BRANCH  20  21
HETATM   21  O   UNL     1     -40.583  54.693 -53.791  1.00  0.00    -0.342 OA
BRANCH  21  22
HETATM   22  C   UNL     1     -40.302  53.455 -53.260  1.00  0.00     0.076 A 
HETATM   23  C   UNL     1     -40.087  52.346 -54.094  1.00  0.00     0.044 A 
HETATM   24  C   UNL     1     -39.781  51.090 -53.560  1.00  0.00    -0.059 A 
HETATM   25  C   UNL     1     -39.522  49.913 -54.454  1.00  0.00     0.048 C 
HETATM   26  C   UNL     1     -39.732  50.941 -52.175  1.00  0.00     0.007 A 
HETATM   27  C   UNL     1     -39.983  52.031 -51.339  1.00  0.00     0.011 A 
HETATM   28  C   UNL     1     -40.278  53.306 -51.862  1.00  0.00    -0.021 A 
BRANCH  28  29
HETATM   29  C   UNL     1     -40.516  54.439 -50.876  1.00  0.00     0.013 C 
HETATM   30  C   UNL     1     -42.000  54.620 -50.553  1.00  0.00     0.015 C 
HETATM   31  C   UNL     1     -39.675  54.309 -49.605  1.00  0.00     0.015 C 
ENDBRANCH  28  29
ENDBRANCH  21  22
ENDBRANCH  20  21
ENDBRANCH   1  20
TORSDOF 6
ENDMDL
MODEL 9
REMARK VINA RESULT:      -8.3      3.199      4.852
REMARK  6 active torsions:
REMARK  status: ('A' for Active; 'I' for Inactive)
REMARK    1  A    between atoms: C_4  and  O_5 
REMARK    2  A    between atoms: O_5  and  C_6 
REMARK    3  A    between atoms: C_6  and  C_7 
REMARK       I    between atoms: C_7  and  N_8 
REMARK    4  A    between atoms: N_8  and  C_9 
REMARK    5  A    between atoms: C_16  and  C_17 
REMARK       I    between atoms: C_17  and  N_18 
REMARK    6  A    between atoms: C_23  and  C_24 
ROOT
HETATM    1  C   UNL     1     -42.977  55.246 -50.955  1.00  0.00     0.246 C 
HETATM    2  N   UNL     1     -42.458  56.238 -51.771  1.00  0.00    -0.325 N 
HETATM    3  O   UNL     1     -44.140  55.148 -50.576  1.00  0.00    -0.271 OA
HETATM    4  H   UNL     1     -41.508  56.081 -52.094  1.00  0.00     0.169 HD
ENDROOT
BRANCH   2   5
HETATM    5  C   UNL     1     -43.105  57.416 -52.205  1.00  0.00     0.035 A 
HETATM    6  C   UNL     1     -43.704  57.547 -53.467  1.00  0.00     0.046 A 
HETATM    7  C   UNL     1     -44.378  58.740 -53.805  1.00  0.00     0.030 A 
HETATM    8  C   UNL     1     -44.429  59.768 -52.871  1.00  0.00     0.063 A 
HETATM    9  C   UNL     1     -45.097  59.230 -54.937  1.00  0.00     0.156 A 
HETATM   10  N   UNL     1     -45.138  60.768 -53.474  1.00  0.00    -0.277 N 
HETATM   11  C   UNL     1     -43.840  59.676 -51.607  1.00  0.00     0.034 A 
HETATM   12  H   UNL     1     -45.375  61.674 -53.084  1.00  0.00     0.189 HD
HETATM   13  N   UNL     1     -45.557  60.484 -54.719  1.00  0.00    -0.168 NA
HETATM   14  C   UNL     1     -43.181  58.478 -51.296  1.00  0.00     0.032 A 
BRANCH   9  15
HETATM   15  C   UNL     1     -45.353  58.532 -56.206  1.00  0.00     0.270 C 
HETATM   16  N   UNL     1     -46.435  57.694 -56.172  1.00  0.00    -0.365 N 
HETATM   17  H   UNL     1     -46.962  57.614 -55.311  1.00  0.00     0.159 HD
HETATM   18  H   UNL     1     -46.686  57.172 -56.998  1.00  0.00     0.159 HD
HETATM   19  O   UNL     1     -44.682  58.657 -57.223  1.00  0.00    -0.266 OA
ENDBRANCH   9  15
ENDBRANCH   2   5
BRANCH   1  20
HETATM   20  C   UNL     1     -41.911  54.286 -50.431  1.00  0.00     0.278 C 
BRANCH  20  21
HETATM   21  O   UNL     1     -40.701  54.352 -51.187  1.00  0.00    -0.342 OA
BRANCH  21  22
HETATM   22  C   UNL     1     -40.402  53.155 -51.798  1.00  0.00     0.076 A 
HETATM   23  C   UNL     1     -39.953  52.057 -51.047  1.00  0.00     0.044 A 
HETATM   24  C   UNL     1     -39.666  50.833 -51.659  1.00  0.00    -0.059 A 
HETATM   25  C   UNL     1     -39.216  49.652 -50.852  1.00  0.00     0.048 C 
HETATM   26  C   UNL     1     -39.793  50.727 -53.044  1.00  0.00     0.007 A 
HETATM   27  C   UNL     1     -40.202  51.826 -53.801  1.00  0.00     0.011 A 
HETATM   28  C   UNL     1     -40.509  53.062 -53.196  1.00  0.00    -0.021 A 
BRANCH  28  29
HETATM   29  C   UNL     1     -40.967  54.198 -54.098  1.00  0.00     0.013 C 
HETATM   30  C   UNL     1     -39.993  54.447 -55.251  1.00  0.00     0.015 C 
HETATM   31  C   UNL     1     -42.401  54.020 -54.600  1.00  0.00     0.015 C 
ENDBRANCH  28  29
ENDBRANCH  21  22
ENDBRANCH  20  21
ENDBRANCH   1  20
TORSDOF 6
ENDMDL
MODEL 10
REMARK VINA RESULT:      -8.1      3.021      9.045
REMARK  6 active torsions:
REMARK  status: ('A' for Active; 'I' for Inactive)
REMARK    1  A    between atoms: C_4  and  O_5 
REMARK    2  A    between atoms: O_5  and  C_6 
REMARK    3  A    between atoms: C_6  and  C_7 
REMARK       I    between atoms: C_7  and  N_8 
REMARK    4  A    between atoms: N_8  and  C_9 
REMARK    5  A    between atoms: C_16  and  C_17 
REMARK       I    between atoms: C_17  and  N_18 
REMARK    6  A    between atoms: C_23  and  C_24 
ROOT
HETATM    1  C   UNL     1     -42.915  56.414 -54.800  1.00  0.00     0.246 C 
HETATM    2  N   UNL     1     -41.615  55.936 -54.817  1.00  0.00    -0.325 N 
HETATM    3  O   UNL     1     -43.825  56.029 -54.072  1.00  0.00    -0.271 OA
HETATM    4  H   UNL     1     -40.964  56.468 -55.386  1.00  0.00     0.169 HD
ENDROOT
BRANCH   2   5
HETATM    5  C   UNL     1     -41.105  54.816 -54.124  1.00  0.00     0.035 A 
HETATM    6  C   UNL     1     -41.017  54.748 -52.726  1.00  0.00     0.046 A 
HETATM    7  C   UNL     1     -40.545  53.570 -52.107  1.00  0.00     0.030 A 
HETATM    8  C   UNL     1     -40.171  52.498 -52.908  1.00  0.00     0.063 A 
HETATM    9  C   UNL     1     -40.331  53.126 -50.767  1.00  0.00     0.156 A 
HETATM   10  N   UNL     1     -39.771  51.521 -52.039  1.00  0.00    -0.277 N 
HETATM   11  C   UNL     1     -40.240  52.530 -54.303  1.00  0.00     0.034 A 
HETATM   12  H   UNL     1     -39.432  50.594 -52.271  1.00  0.00     0.189 HD
HETATM   13  N   UNL     1     -39.851  51.861 -50.741  1.00  0.00    -0.168 NA
HETATM   14  C   UNL     1     -40.717  53.710 -54.891  1.00  0.00     0.032 A 
BRANCH   9  15
HETATM   15  C   UNL     1     -40.578  53.875 -49.526  1.00  0.00     0.270 C 
HETATM   16  N   UNL     1     -41.810  54.470 -49.469  1.00  0.00    -0.365 N 
HETATM   17  H   UNL     1     -42.440  54.360 -50.255  1.00  0.00     0.159 HD
HETATM   18  H   UNL     1     -42.066  55.007 -48.655  1.00  0.00     0.159 HD
HETATM   19  O   UNL     1     -39.780  53.985 -48.602  1.00  0.00    -0.266 OA
ENDBRANCH   9  15
ENDBRANCH   2   5
BRANCH   1  20
HETATM   20  C   UNL     1     -43.188  57.438 -55.900  1.00  0.00     0.278 C 
BRANCH  20  21
HETATM   21  O   UNL     1     -42.272  57.323 -56.990  1.00  0.00    -0.342 OA
BRANCH  21  22
HETATM   22  C   UNL     1     -42.901  56.982 -58.166  1.00  0.00     0.076 A 
HETATM   23  C   UNL     1     -43.451  55.703 -58.344  1.00  0.00     0.044 A 
HETATM   24  C   UNL     1     -44.108  55.358 -59.529  1.00  0.00    -0.059 A 
HETATM   25  C   UNL     1     -44.721  54.001 -59.706  1.00  0.00     0.048 C 
HETATM   26  C   UNL     1     -44.176  56.296 -60.559  1.00  0.00     0.007 A 
HETATM   27  C   UNL     1     -43.597  57.558 -60.403  1.00  0.00     0.011 A 
HETATM   28  C   UNL     1     -42.944  57.924 -59.208  1.00  0.00    -0.021 A 
BRANCH  28  29
HETATM   29  C   UNL     1     -42.362  59.327 -59.120  1.00  0.00     0.013 C 
HETATM   30  C   UNL     1     -41.940  59.863 -60.490  1.00  0.00     0.015 C 
HETATM   31  C   UNL     1     -43.280  60.308 -58.390  1.00  0.00     0.015 C 
ENDBRANCH  28  29
ENDBRANCH  21  22
ENDBRANCH  20  21
ENDBRANCH   1  20
TORSDOF 6
ENDMDL
