MODEL 1
REMARK VINA RESULT:      -8.2      0.000      0.000
REMARK  3 active torsions:
REMARK  status: ('A' for Active; 'I' for Inactive)
REMARK    1  A    between atoms: C_11  and  N_12 
REMARK       I    between atoms: N_12  and  C_13 
REMARK    2  A    between atoms: C_13  and  C_14 
REMARK    3  A    between atoms: C_18  and  C_19 
ROOT
HETATM    1  N   UNL     1     -41.448  57.100 -53.671  1.00  0.00    -0.351 N 
HETATM    2  C   UNL     1     -41.662  56.209 -54.712  1.00  0.00     0.272 C 
HETATM    3  O   UNL     1     -42.291  56.490 -55.725  1.00  0.00    -0.266 OA
HETATM    4  H   UNL     1     -41.113  56.604 -52.843  1.00  0.00     0.163 HD
ENDROOT
BRANCH   1   5
HETATM    5  C   UNL     1     -42.155  58.357 -53.546  1.00  0.00     0.089 C 
HETATM    6  C   UNL     1     -41.497  59.377 -52.605  1.00  0.00     0.063 C 
HETATM    7  C   UNL     1     -41.585  59.036 -51.114  1.00  0.00     0.121 C 
HETATM    8  N   UNL     1     -43.018  58.691 -50.758  1.00  0.00    -0.059 N 
HETATM    9  C   UNL     1     -40.641  57.916 -50.664  1.00  0.00     0.046 C 
HETATM   10  C   UNL     1     -41.234  60.291 -50.288  1.00  0.00     0.046 C 
HETATM   11  C   UNL     1     -43.834  57.783 -51.653  1.00  0.00     0.121 C 
HETATM   12  H   UNL     1     -43.528  59.583 -50.684  1.00  0.00     0.279 HD
HETATM   13  H   UNL     1     -43.034  58.314 -49.799  1.00  0.00     0.279 HD
HETATM   14  C   UNL     1     -43.537  56.315 -51.327  1.00  0.00     0.046 C 
HETATM   15  C   UNL     1     -45.312  58.043 -51.287  1.00  0.00     0.046 C 
HETATM   16  C   UNL     1     -43.614  58.149 -53.131  1.00  0.00     0.063 C 
ENDBRANCH   1   5
BRANCH   2  17
HETATM   17  C   UNL     1     -41.047  54.899 -54.468  1.00  0.00     0.146 A 
HETATM   18  N   UNL     1     -40.288  54.297 -55.409  1.00  0.00    -0.169 NA
HETATM   19  N   UNL     1     -39.923  53.138 -54.824  1.00  0.00    -0.277 N 
HETATM   20  H   UNL     1     -39.358  52.486 -55.358  1.00  0.00     0.189 HD
HETATM   21  C   UNL     1     -40.391  52.972 -53.545  1.00  0.00     0.063 A 
HETATM   22  C   UNL     1     -41.137  54.107 -53.299  1.00  0.00     0.071 A 
BRANCH  21  23
HETATM   23  C   UNL     1     -40.116  51.793 -52.722  1.00  0.00    -0.008 A 
HETATM   24  C   UNL     1     -39.825  50.549 -53.300  1.00  0.00     0.014 A 
HETATM   25  C   UNL     1     -39.565  49.432 -52.499  1.00  0.00     0.001 A 
HETATM   26  C   UNL     1     -39.590  49.546 -51.112  1.00  0.00     0.000 A 
HETATM   27  C   UNL     1     -39.872  50.775 -50.523  1.00  0.00     0.001 A 
HETATM   28  C   UNL     1     -40.132  51.891 -51.323  1.00  0.00     0.014 A 
ENDBRANCH  21  23
ENDBRANCH   2  17
TORSDOF 3
ENDMDL
MODEL 2
REMARK VINA RESULT:      -8.2      4.421      6.204
REMARK  3 active torsions:
REMARK  status: ('A' for Active; 'I' for Inactive)
REMARK    1  A    between atoms: C_11  and  N_12 
REMARK       I    between atoms: N_12  and  C_13 
REMARK    2  A    between atoms: C_13  and  C_14 
REMARK    3  A    between atoms: C_18  and  C_19 
ROOT
HETATM    1  N   UNL     1     -44.168  56.837 -57.224  1.00  0.00    -0.351 N 
HETATM    2  C   UNL     1     -43.866  56.782 -55.872  1.00  0.00     0.272 C 
HETATM    3  O   UNL     1     -44.437  57.455 -55.023  1.00  0.00    -0.266 OA
HETATM    4  H   UNL     1     -43.433  56.384 -57.771  1.00  0.00     0.163 HD
ENDROOT
BRANCH   1   5
HETATM    5  C   UNL     1     -44.995  57.870 -57.810  1.00  0.00     0.089 C 
HETATM    6  C   UNL     1     -46.177  57.355 -58.645  1.00  0.00     0.063 C 
HETATM    7  C   UNL     1     -45.797  56.725 -59.988  1.00  0.00     0.121 C 
HETATM    8  N   UNL     1     -44.861  57.653 -60.737  1.00  0.00    -0.059 N 
HETATM    9  C   UNL     1     -45.182  55.325 -59.878  1.00  0.00     0.046 C 
HETATM   10  C   UNL     1     -47.062  56.603 -60.863  1.00  0.00     0.046 C 
HETATM   11  C   UNL     1     -43.711  58.327 -60.018  1.00  0.00     0.121 C 
HETATM   12  H   UNL     1     -45.445  58.399 -61.141  1.00  0.00     0.279 HD
HETATM   13  H   UNL     1     -44.492  57.152 -61.558  1.00  0.00     0.279 HD
HETATM   14  C   UNL     1     -42.507  57.381 -59.948  1.00  0.00     0.046 C 
HETATM   15  C   UNL     1     -43.302  59.524 -60.902  1.00  0.00     0.046 C 
HETATM   16  C   UNL     1     -44.170  58.851 -58.647  1.00  0.00     0.063 C 
ENDBRANCH   1   5
BRANCH   2  17
HETATM   17  C   UNL     1     -42.794  55.825 -55.572  1.00  0.00     0.146 A 
HETATM   18  N   UNL     1     -41.798  55.591 -56.451  1.00  0.00    -0.169 NA
HETATM   19  N   UNL     1     -41.038  54.667 -55.829  1.00  0.00    -0.277 N 
HETATM   20  H   UNL     1     -40.224  54.304 -56.316  1.00  0.00     0.189 HD
HETATM   21  C   UNL     1     -41.483  54.309 -54.582  1.00  0.00     0.063 A 
HETATM   22  C   UNL     1     -42.636  55.046 -54.401  1.00  0.00     0.071 A 
BRANCH  21  23
HETATM   23  C   UNL     1     -40.813  53.327 -53.727  1.00  0.00    -0.008 A 
HETATM   24  C   UNL     1     -40.329  52.117 -54.244  1.00  0.00     0.014 A 
HETATM   25  C   UNL     1     -39.692  51.189 -53.413  1.00  0.00     0.001 A 
HETATM   26  C   UNL     1     -39.529  51.461 -52.058  1.00  0.00     0.000 A 
HETATM   27  C   UNL     1     -40.000  52.660 -51.531  1.00  0.00     0.001 A 
HETATM   28  C   UNL     1     -40.637  53.587 -52.360  1.00  0.00     0.014 A 
ENDBRANCH  21  23
ENDBRANCH   2  17
TORSDOF 3
ENDMDL
MODEL 3
REMARK VINA RESULT:      -7.7      2.962      4.749
REMARK  3 active torsions:
REMARK  status: ('A' for Active; 'I' for Inactive)
REMARK    1  A    between atoms: C_11  and  N_12 
REMARK       I    between atoms: N_12  and  C_13 
REMARK    2  A    between atoms: C_13  and  C_14 
REMARK    3  A    between atoms: C_18  and  C_19 
ROOT
HETATM    1  N   UNL     1     -42.519  58.734 -54.680  1.00  0.00    -0.351 N 
HETATM    2  C   UNL     1     -41.404  58.544 -53.878  1.00  0.00     0.272 C 
HETATM    3  O   UNL     1     -40.578  59.419 -53.648  1.00  0.00    -0.266 OA
HETATM    4  H   UNL     1     -42.937  57.834 -54.924  1.00  0.00     0.163 HD
ENDROOT
BRANCH   1   5
HETATM    5  C   UNL     1     -42.691  59.887 -55.538  1.00  0.00     0.089 C 
HETATM    6  C   UNL     1     -44.146  60.339 -55.727  1.00  0.00     0.063 C 
HETATM    7  C   UNL     1     -45.007  59.412 -56.592  1.00  0.00     0.121 C 
HETATM    8  N   UNL     1     -44.276  59.102 -57.883  1.00  0.00    -0.059 N 
HETATM    9  C   UNL     1     -45.434  58.115 -55.896  1.00  0.00     0.046 C 
HETATM   10  C   UNL     1     -46.294  60.158 -57.002  1.00  0.00     0.046 C 
HETATM   11  C   UNL     1     -42.804  58.747 -57.866  1.00  0.00     0.121 C 
HETATM   12  H   UNL     1     -44.383  59.928 -58.489  1.00  0.00     0.279 HD
HETATM   13  H   UNL     1     -44.792  58.360 -58.378  1.00  0.00     0.279 HD
HETATM   14  C   UNL     1     -42.625  57.257 -57.558  1.00  0.00     0.046 C 
HETATM   15  C   UNL     1     -42.295  58.982 -59.305  1.00  0.00     0.046 C 
HETATM   16  C   UNL     1     -42.041  59.677 -56.908  1.00  0.00     0.063 C 
ENDBRANCH   1   5
BRANCH   2  17
HETATM   17  C   UNL     1     -41.329  57.184 -53.328  1.00  0.00     0.146 A 
HETATM   18  N   UNL     1     -41.852  56.888 -52.120  1.00  0.00    -0.169 NA
HETATM   19  N   UNL     1     -41.579  55.576 -51.972  1.00  0.00    -0.277 N 
HETATM   20  H   UNL     1     -41.856  55.120 -51.108  1.00  0.00     0.189 HD
HETATM   21  C   UNL     1     -40.924  55.006 -53.034  1.00  0.00     0.063 A 
HETATM   22  C   UNL     1     -40.741  56.044 -53.926  1.00  0.00     0.071 A 
BRANCH  21  23
HETATM   23  C   UNL     1     -40.531  53.597 -53.091  1.00  0.00    -0.008 A 
HETATM   24  C   UNL     1     -40.056  52.924 -51.955  1.00  0.00     0.014 A 
HETATM   25  C   UNL     1     -39.684  51.578 -52.026  1.00  0.00     0.001 A 
HETATM   26  C   UNL     1     -39.785  50.887 -53.230  1.00  0.00     0.000 A 
HETATM   27  C   UNL     1     -40.259  51.540 -54.365  1.00  0.00     0.001 A 
HETATM   28  C   UNL     1     -40.631  52.885 -54.295  1.00  0.00     0.014 A 
ENDBRANCH  21  23
ENDBRANCH   2  17
TORSDOF 3
ENDMDL
MODEL 4
REMARK VINA RESULT:      -7.6      2.417      3.693
REMARK  3 active torsions:
REMARK  status: ('A' for Active; 'I' for Inactive)
REMARK    1  A    between atoms: C_11  and  N_12 
REMARK       I    between atoms: N_12  and  C_13 
REMARK    2  A    between atoms: C_13  and  C_14 
REMARK    3  A    between atoms: C_18  and  C_19 
ROOT
HETATM    1  N   UNL     1     -43.900  57.919 -52.315  1.00  0.00    -0.351 N 
HETATM    2  C   UNL     1     -44.085  56.947 -51.344  1.00  0.00     0.272 C 
HETATM    3  O   UNL     1     -45.047  56.920 -50.586  1.00  0.00    -0.266 OA
HETATM    4  H   UNL     1     -42.941  57.890 -52.668  1.00  0.00     0.163 HD
ENDROOT
BRANCH   1   5
HETATM    5  C   UNL     1     -44.672  59.143 -52.368  1.00  0.00     0.089 C 
HETATM    6  C   UNL     1     -44.522  59.945 -53.669  1.00  0.00     0.063 C 
HETATM    7  C   UNL     1     -43.170  60.643 -53.849  1.00  0.00     0.121 C 
HETATM    8  N   UNL     1     -42.831  61.421 -52.592  1.00  0.00    -0.059 N 
HETATM    9  C   UNL     1     -42.018  59.704 -54.220  1.00  0.00     0.046 C 
HETATM   10  C   UNL     1     -43.291  61.690 -54.976  1.00  0.00     0.046 C 
HETATM   11  C   UNL     1     -43.033  60.800 -51.227  1.00  0.00     0.121 C 
HETATM   12  H   UNL     1     -43.392  62.285 -52.619  1.00  0.00     0.279 HD
HETATM   13  H   UNL     1     -41.858  61.752 -52.667  1.00  0.00     0.279 HD
HETATM   14  C   UNL     1     -41.825  59.932 -50.859  1.00  0.00     0.046 C 
HETATM   15  C   UNL     1     -43.073  61.976 -50.228  1.00  0.00     0.046 C 
HETATM   16  C   UNL     1     -44.376  60.052 -51.172  1.00  0.00     0.063 C 
ENDBRANCH   1   5
BRANCH   2  17
HETATM   17  C   UNL     1     -43.007  55.950 -51.331  1.00  0.00     0.146 A 
HETATM   18  N   UNL     1     -42.117  55.896 -50.318  1.00  0.00    -0.169 NA
HETATM   19  N   UNL     1     -41.301  54.881 -50.669  1.00  0.00    -0.277 N 
HETATM   20  H   UNL     1     -40.517  54.660 -50.063  1.00  0.00     0.189 HD
HETATM   21  C   UNL     1     -41.634  54.264 -51.848  1.00  0.00     0.063 A 
HETATM   22  C   UNL     1     -42.740  54.956 -52.301  1.00  0.00     0.071 A 
BRANCH  21  23
HETATM   23  C   UNL     1     -40.891  53.139 -52.419  1.00  0.00    -0.008 A 
HETATM   24  C   UNL     1     -40.040  52.349 -51.632  1.00  0.00     0.014 A 
HETATM   25  C   UNL     1     -39.337  51.279 -52.192  1.00  0.00     0.001 A 
HETATM   26  C   UNL     1     -39.477  50.982 -53.545  1.00  0.00     0.000 A 
HETATM   27  C   UNL     1     -40.322  51.753 -54.338  1.00  0.00     0.001 A 
HETATM   28  C   UNL     1     -41.025  52.823 -53.779  1.00  0.00     0.014 A 
ENDBRANCH  21  23
ENDBRANCH   2  17
TORSDOF 3
ENDMDL
MODEL 5
REMARK VINA RESULT:      -7.5      2.115      3.091
REMARK  3 active torsions:
REMARK  status: ('A' for Active; 'I' for Inactive)
REMARK    1  A    between atoms: C_11  and  N_12 
REMARK       I    between atoms: N_12  and  C_13 
REMARK    2  A    between atoms: C_13  and  C_14 
REMARK    3  A    between atoms: C_18  and  C_19 
ROOT
HETATM    1  N   UNL     1     -42.458  58.375 -52.423  1.00  0.00    -0.351 N 
HETATM    2  C   UNL     1     -41.294  57.767 -52.870  1.00  0.00     0.272 C 
HETATM    3  O   UNL     1     -40.399  58.366 -53.454  1.00  0.00    -0.266 OA
HETATM    4  H   UNL     1     -43.156  57.669 -52.181  1.00  0.00     0.163 HD
ENDROOT
BRANCH   1   5
HETATM    5  C   UNL     1     -42.860  59.707 -52.822  1.00  0.00     0.089 C 
HETATM    6  C   UNL     1     -43.872  60.383 -51.885  1.00  0.00     0.063 C 
HETATM    7  C   UNL     1     -45.290  59.806 -51.936  1.00  0.00     0.121 C 
HETATM    8  N   UNL     1     -45.744  59.705 -53.379  1.00  0.00    -0.059 N 
HETATM    9  C   UNL     1     -45.447  58.453 -51.233  1.00  0.00     0.046 C 
HETATM   10  C   UNL     1     -46.260  60.793 -51.254  1.00  0.00     0.046 C 
HETATM   11  C   UNL     1     -44.813  59.161 -54.441  1.00  0.00     0.121 C 
HETATM   12  H   UNL     1     -46.015  60.655 -53.671  1.00  0.00     0.279 HD
HETATM   13  H   UNL     1     -46.627  59.174 -53.406  1.00  0.00     0.279 HD
HETATM   14  C   UNL     1     -44.866  57.629 -54.454  1.00  0.00     0.046 C 
HETATM   15  C   UNL     1     -45.378  59.650 -55.792  1.00  0.00     0.046 C 
HETATM   16  C   UNL     1     -43.397  59.733 -54.255  1.00  0.00     0.063 C 
ENDBRANCH   1   5
BRANCH   2  17
HETATM   17  C   UNL     1     -41.251  56.333 -52.560  1.00  0.00     0.146 A 
HETATM   18  N   UNL     1     -41.850  55.838 -51.456  1.00  0.00    -0.169 NA
HETATM   19  N   UNL     1     -41.584  54.517 -51.519  1.00  0.00    -0.277 N 
HETATM   20  H   UNL     1     -41.914  53.922 -50.766  1.00  0.00     0.189 HD
HETATM   21  C   UNL     1     -40.861  54.133 -52.620  1.00  0.00     0.063 A 
HETATM   22  C   UNL     1     -40.625  55.308 -53.307  1.00  0.00     0.071 A 
BRANCH  21  23
HETATM   23  C   UNL     1     -40.463  52.751 -52.894  1.00  0.00    -0.008 A 
HETATM   24  C   UNL     1     -40.666  52.167 -54.153  1.00  0.00     0.014 A 
HETATM   25  C   UNL     1     -40.280  50.845 -54.397  1.00  0.00     0.001 A 
HETATM   26  C   UNL     1     -39.686  50.093 -53.389  1.00  0.00     0.000 A 
HETATM   27  C   UNL     1     -39.473  50.660 -52.135  1.00  0.00     0.001 A 
HETATM   28  C   UNL     1     -39.858  51.980 -51.890  1.00  0.00     0.014 A 
ENDBRANCH  21  23
ENDBRANCH   2  17
TORSDOF 3
ENDMDL
MODEL 6
REMARK VINA RESULT:      -7.3     14.775     16.975
REMARK  3 active torsions:
REMARK  status: ('A' for Active; 'I' for Inactive)
REMARK    1  A    between atoms: C_11  and  N_12 
REMARK       I    between atoms: N_12  and  C_13 
REMARK    2  A    between atoms: C_13  and  C_14 
REMARK    3  A    between atoms: C_18  and  C_19 
ROOT
HETATM    1  N   UNL     1     -34.901  41.748 -52.753  1.00  0.00    -0.351 N 
HETATM    2  C   UNL     1     -36.044  42.113 -53.449  1.00  0.00     0.272 C 
HETATM    3  O   UNL     1     -37.072  42.499 -52.907  1.00  0.00    -0.266 OA
HETATM    4  H   UNL     1     -34.258  41.246 -53.368  1.00  0.00     0.163 HD
ENDROOT
BRANCH   1   5
HETATM    5  C   UNL     1     -34.880  41.530 -51.322  1.00  0.00     0.089 C 
HETATM    6  C   UNL     1     -33.483  41.317 -50.722  1.00  0.00     0.063 C 
HETATM    7  C   UNL     1     -32.828  39.974 -51.062  1.00  0.00     0.121 C 
HETATM    8  N   UNL     1     -33.806  38.849 -50.783  1.00  0.00    -0.059 N 
HETATM    9  C   UNL     1     -32.297  39.875 -52.496  1.00  0.00     0.046 C 
HETATM   10  C   UNL     1     -31.634  39.742 -50.113  1.00  0.00     0.046 C 
HETATM   11  C   UNL     1     -35.252  38.963 -51.218  1.00  0.00     0.121 C 
HETATM   12  H   UNL     1     -33.805  38.703 -49.764  1.00  0.00     0.279 HD
HETATM   13  H   UNL     1     -33.413  37.975 -51.162  1.00  0.00     0.279 HD
HETATM   14  C   UNL     1     -35.395  38.549 -52.687  1.00  0.00     0.046 C 
HETATM   15  C   UNL     1     -36.031  37.932 -50.373  1.00  0.00     0.046 C 
HETATM   16  C   UNL     1     -35.793  40.370 -50.912  1.00  0.00     0.063 C 
ENDBRANCH   1   5
BRANCH   2  17
HETATM   17  C   UNL     1     -35.881  41.996 -54.903  1.00  0.00     0.146 A 
HETATM   18  N   UNL     1     -34.905  42.663 -55.554  1.00  0.00    -0.169 NA
HETATM   19  N   UNL     1     -35.088  42.311 -56.843  1.00  0.00    -0.277 N 
HETATM   20  H   UNL     1     -34.478  42.716 -57.545  1.00  0.00     0.189 HD
HETATM   21  C   UNL     1     -36.121  41.432 -57.053  1.00  0.00     0.063 A 
HETATM   22  C   UNL     1     -36.659  41.224 -55.798  1.00  0.00     0.071 A 
BRANCH  21  23
HETATM   23  C   UNL     1     -36.497  40.914 -58.369  1.00  0.00    -0.008 A 
HETATM   24  C   UNL     1     -36.172  39.607 -58.761  1.00  0.00     0.014 A 
HETATM   25  C   UNL     1     -36.537  39.128 -60.023  1.00  0.00     0.001 A 
HETATM   26  C   UNL     1     -37.235  39.946 -60.906  1.00  0.00     0.000 A 
HETATM   27  C   UNL     1     -37.570  41.244 -60.530  1.00  0.00     0.001 A 
HETATM   28  C   UNL     1     -37.204  41.724 -59.270  1.00  0.00     0.014 A 
ENDBRANCH  21  23
ENDBRANCH   2  17
TORSDOF 3
ENDMDL
MODEL 7
REMARK VINA RESULT:      -7.3     15.288     17.099
REMARK  3 active torsions:
REMARK  status: ('A' for Active; 'I' for Inactive)
REMARK    1  A    between atoms: C_11  and  N_12 
REMARK       I    between atoms: N_12  and  C_13 
REMARK    2  A    between atoms: C_13  and  C_14 
REMARK    3  A    between atoms: C_18  and  C_19 
ROOT
HETATM    1  N   UNL     1     -37.268  39.939 -55.898  1.00  0.00    -0.351 N 
HETATM    2  C   UNL     1     -37.636  40.850 -54.920  1.00  0.00     0.272 C 
HETATM    3  O   UNL     1     -38.744  41.369 -54.861  1.00  0.00    -0.266 OA
HETATM    4  H   UNL     1     -36.253  39.814 -55.903  1.00  0.00     0.163 HD
ENDROOT
BRANCH   1   5
HETATM    5  C   UNL     1     -38.048  39.701 -57.094  1.00  0.00     0.089 C 
HETATM    6  C   UNL     1     -37.558  38.534 -57.963  1.00  0.00     0.063 C 
HETATM    7  C   UNL     1     -36.250  38.792 -58.718  1.00  0.00     0.121 C 
HETATM    8  N   UNL     1     -36.339  40.120 -59.446  1.00  0.00    -0.059 N 
HETATM    9  C   UNL     1     -34.994  38.750 -57.841  1.00  0.00     0.046 C 
HETATM   10  C   UNL     1     -36.081  37.719 -59.814  1.00  0.00     0.046 C 
HETATM   11  C   UNL     1     -36.907  41.339 -58.752  1.00  0.00     0.121 C 
HETATM   12  H   UNL     1     -36.908  39.957 -60.289  1.00  0.00     0.279 HD
HETATM   13  H   UNL     1     -35.405  40.351 -59.815  1.00  0.00     0.279 HD
HETATM   14  C   UNL     1     -35.822  42.021 -57.911  1.00  0.00     0.046 C 
HETATM   15  C   UNL     1     -37.300  42.322 -59.876  1.00  0.00     0.046 C 
HETATM   16  C   UNL     1     -38.167  40.962 -57.954  1.00  0.00     0.063 C 
ENDBRANCH   1   5
BRANCH   2  17
HETATM   17  C   UNL     1     -36.556  41.117 -53.962  1.00  0.00     0.146 A 
HETATM   18  N   UNL     1     -36.178  42.379 -53.668  1.00  0.00    -0.169 NA
HETATM   19  N   UNL     1     -35.178  42.209 -52.779  1.00  0.00    -0.277 N 
HETATM   20  H   UNL     1     -34.704  43.033 -52.423  1.00  0.00     0.189 HD
HETATM   21  C   UNL     1     -34.907  40.900 -52.469  1.00  0.00     0.063 A 
HETATM   22  C   UNL     1     -35.789  40.171 -53.241  1.00  0.00     0.071 A 
BRANCH  21  23
HETATM   23  C   UNL     1     -33.866  40.483 -51.528  1.00  0.00    -0.008 A 
HETATM   24  C   UNL     1     -32.506  40.542 -51.866  1.00  0.00     0.014 A 
HETATM   25  C   UNL     1     -31.525  40.139 -50.956  1.00  0.00     0.001 A 
HETATM   26  C   UNL     1     -31.889  39.675 -49.695  1.00  0.00     0.000 A 
HETATM   27  C   UNL     1     -33.235  39.615 -49.342  1.00  0.00     0.001 A 
HETATM   28  C   UNL     1     -34.216  40.018 -50.252  1.00  0.00     0.014 A 
ENDBRANCH  21  23
ENDBRANCH   2  17
TORSDOF 3
ENDMDL
MODEL 8
REMARK VINA RESULT:      -7.3      1.578      2.231
REMARK  3 active torsions:
REMARK  status: ('A' for Active; 'I' for Inactive)
REMARK    1  A    between atoms: C_11  and  N_12 
REMARK       I    between atoms: N_12  and  C_13 
REMARK    2  A    between atoms: C_13  and  C_14 
REMARK    3  A    between atoms: C_18  and  C_19 
ROOT
HETATM    1  N   UNL     1     -43.282  56.928 -54.034  1.00  0.00    -0.351 N 
HETATM    2  C   UNL     1     -42.948  56.148 -55.131  1.00  0.00     0.272 C 
HETATM    3  O   UNL     1     -43.462  56.277 -56.235  1.00  0.00    -0.266 OA
HETATM    4  H   UNL     1     -42.916  56.509 -53.177  1.00  0.00     0.163 HD
ENDROOT
BRANCH   1   5
HETATM    5  C   UNL     1     -44.443  57.792 -53.999  1.00  0.00     0.089 C 
HETATM    6  C   UNL     1     -44.302  59.097 -54.795  1.00  0.00     0.063 C 
HETATM    7  C   UNL     1     -43.358  60.134 -54.178  1.00  0.00     0.121 C 
HETATM    8  N   UNL     1     -43.706  60.329 -52.716  1.00  0.00    -0.059 N 
HETATM    9  C   UNL     1     -41.869  59.805 -54.331  1.00  0.00     0.046 C 
HETATM   10  C   UNL     1     -43.598  61.499 -54.857  1.00  0.00     0.046 C 
HETATM   11  C   UNL     1     -43.984  59.135 -51.827  1.00  0.00     0.121 C 
HETATM   12  H   UNL     1     -44.543  60.930 -52.689  1.00  0.00     0.279 HD
HETATM   13  H   UNL     1     -42.971  60.905 -52.280  1.00  0.00     0.279 HD
HETATM   14  C   UNL     1     -42.668  58.552 -51.301  1.00  0.00     0.046 C 
HETATM   15  C   UNL     1     -44.760  59.684 -50.610  1.00  0.00     0.046 C 
HETATM   16  C   UNL     1     -44.868  58.114 -52.564  1.00  0.00     0.063 C 
ENDBRANCH   1   5
BRANCH   2  17
HETATM   17  C   UNL     1     -41.908  55.159 -54.824  1.00  0.00     0.146 A 
HETATM   18  N   UNL     1     -40.622  55.362 -55.180  1.00  0.00    -0.169 NA
HETATM   19  N   UNL     1     -39.994  54.253 -54.742  1.00  0.00    -0.277 N 
HETATM   20  H   UNL     1     -39.000  54.158 -54.922  1.00  0.00     0.189 HD
HETATM   21  C   UNL     1     -40.808  53.352 -54.103  1.00  0.00     0.063 A 
HETATM   22  C   UNL     1     -42.065  53.921 -54.157  1.00  0.00     0.071 A 
BRANCH  21  23
HETATM   23  C   UNL     1     -40.340  52.082 -53.545  1.00  0.00    -0.008 A 
HETATM   24  C   UNL     1     -40.255  50.924 -54.332  1.00  0.00     0.014 A 
HETATM   25  C   UNL     1     -39.807  49.719 -53.783  1.00  0.00     0.001 A 
HETATM   26  C   UNL     1     -39.435  49.656 -52.443  1.00  0.00     0.000 A 
HETATM   27  C   UNL     1     -39.509  50.798 -51.650  1.00  0.00     0.001 A 
HETATM   28  C   UNL     1     -39.957  52.002 -52.198  1.00  0.00     0.014 A 
ENDBRANCH  21  23
ENDBRANCH   2  17
TORSDOF 3
ENDMDL
MODEL 9
REMARK VINA RESULT:      -7.3      2.930      4.763
REMARK  3 active torsions:
REMARK  status: ('A' for Active; 'I' for Inactive)
REMARK    1  A    between atoms: C_11  and  N_12 
REMARK       I    between atoms: N_12  and  C_13 
REMARK    2  A    between atoms: C_13  and  C_14 
REMARK    3  A    between atoms: C_18  and  C_19 
ROOT
HETATM    1  N   UNL     1     -44.584  57.280 -54.454  1.00  0.00    -0.351 N 
HETATM    2  C   UNL     1     -44.389  57.265 -53.081  1.00  0.00     0.272 C 
HETATM    3  O   UNL     1     -44.961  58.024 -52.308  1.00  0.00    -0.266 OA
HETATM    4  H   UNL     1     -43.852  56.740 -54.922  1.00  0.00     0.163 HD
ENDROOT
BRANCH   1   5
HETATM    5  C   UNL     1     -45.270  58.351 -55.146  1.00  0.00     0.089 C 
HETATM    6  C   UNL     1     -45.579  58.070 -56.623  1.00  0.00     0.063 C 
HETATM    7  C   UNL     1     -44.363  58.081 -57.555  1.00  0.00     0.121 C 
HETATM    8  N   UNL     1     -43.552  59.339 -57.314  1.00  0.00    -0.059 N 
HETATM    9  C   UNL     1     -43.469  56.842 -57.441  1.00  0.00     0.046 C 
HETATM   10  C   UNL     1     -44.850  58.163 -59.017  1.00  0.00     0.046 C 
HETATM   11  C   UNL     1     -43.260  59.806 -55.904  1.00  0.00     0.121 C 
HETATM   12  H   UNL     1     -44.048  60.106 -57.792  1.00  0.00     0.279 HD
HETATM   13  H   UNL     1     -42.663  59.257 -57.829  1.00  0.00     0.279 HD
HETATM   14  C   UNL     1     -42.037  59.068 -55.348  1.00  0.00     0.046 C 
HETATM   15  C   UNL     1     -42.880  61.298 -56.022  1.00  0.00     0.046 C 
HETATM   16  C   UNL     1     -44.516  59.678 -55.026  1.00  0.00     0.063 C 
ENDBRANCH   1   5
BRANCH   2  17
HETATM   17  C   UNL     1     -43.432  56.236 -52.658  1.00  0.00     0.146 A 
HETATM   18  N   UNL     1     -43.005  56.160 -51.380  1.00  0.00    -0.169 NA
HETATM   19  N   UNL     1     -42.150  55.118 -51.394  1.00  0.00    -0.277 N 
HETATM   20  H   UNL     1     -41.669  54.877 -50.534  1.00  0.00     0.189 HD
HETATM   21  C   UNL     1     -42.020  54.504 -52.614  1.00  0.00     0.063 A 
HETATM   22  C   UNL     1     -42.841  55.228 -53.456  1.00  0.00     0.071 A 
BRANCH  21  23
HETATM   23  C   UNL     1     -41.149  53.353 -52.859  1.00  0.00    -0.008 A 
HETATM   24  C   UNL     1     -40.310  52.843 -51.858  1.00  0.00     0.014 A 
HETATM   25  C   UNL     1     -39.484  51.744 -52.109  1.00  0.00     0.001 A 
HETATM   26  C   UNL     1     -39.488  51.138 -53.361  1.00  0.00     0.000 A 
HETATM   27  C   UNL     1     -40.319  51.629 -54.365  1.00  0.00     0.001 A 
HETATM   28  C   UNL     1     -41.144  52.728 -54.115  1.00  0.00     0.014 A 
ENDBRANCH  21  23
ENDBRANCH   2  17
TORSDOF 3
ENDMDL
MODEL 10
REMARK VINA RESULT:      -6.9      2.299      3.269
REMARK  3 active torsions:
REMARK  status: ('A' for Active; 'I' for Inactive)
REMARK    1  A    between atoms: C_11  and  N_12 
REMARK       I    between atoms: N_12  and  C_13 
REMARK    2  A    between atoms: C_13  and  C_14 
REMARK    3  A    between atoms: C_18  and  C_19 
ROOT
HETATM    1  N   UNL     1     -42.628  59.723 -53.099  1.00  0.00    -0.351 N 
HETATM    2  C   UNL     1     -41.909  58.895 -53.947  1.00  0.00     0.272 C 
HETATM    3  O   UNL     1     -41.544  59.226 -55.069  1.00  0.00    -0.266 OA
HETATM    4  H   UNL     1     -43.024  59.183 -52.327  1.00  0.00     0.163 HD
ENDROOT
BRANCH   1   5
HETATM    5  C   UNL     1     -43.248  60.957 -53.534  1.00  0.00     0.089 C 
HETATM    6  C   UNL     1     -42.835  62.203 -52.738  1.00  0.00     0.063 C 
HETATM    7  C   UNL     1     -43.394  62.278 -51.313  1.00  0.00     0.121 C 
HETATM    8  N   UNL     1     -44.889  62.023 -51.342  1.00  0.00    -0.059 N 
HETATM    9  C   UNL     1     -42.712  61.336 -50.316  1.00  0.00     0.046 C 
HETATM   10  C   UNL     1     -43.221  63.716 -50.780  1.00  0.00     0.046 C 
HETATM   11  C   UNL     1     -45.458  60.894 -52.175  1.00  0.00     0.121 C 
HETATM   12  H   UNL     1     -45.331  62.894 -51.668  1.00  0.00     0.279 HD
HETATM   13  H   UNL     1     -45.220  61.921 -50.372  1.00  0.00     0.279 HD
HETATM   14  C   UNL     1     -45.379  59.574 -51.399  1.00  0.00     0.046 C 
HETATM   15  C   UNL     1     -46.954  61.223 -52.368  1.00  0.00     0.046 C 
HETATM   16  C   UNL     1     -44.776  60.848 -53.553  1.00  0.00     0.063 C 
ENDBRANCH   1   5
BRANCH   2  17
HETATM   17  C   UNL     1     -41.628  57.583 -53.351  1.00  0.00     0.146 A 
HETATM   18  N   UNL     1     -41.824  57.356 -52.035  1.00  0.00    -0.169 NA
HETATM   19  N   UNL     1     -41.451  56.070 -51.877  1.00  0.00    -0.277 N 
HETATM   20  H   UNL     1     -41.484  55.669 -50.946  1.00  0.00     0.189 HD
HETATM   21  C   UNL     1     -41.044  55.450 -53.031  1.00  0.00     0.063 A 
HETATM   22  C   UNL     1     -41.141  56.426 -54.003  1.00  0.00     0.071 A 
BRANCH  21  23
HETATM   23  C   UNL     1     -40.600  54.056 -53.095  1.00  0.00    -0.008 A 
HETATM   24  C   UNL     1     -40.475  53.383 -54.320  1.00  0.00     0.014 A 
HETATM   25  C   UNL     1     -40.050  52.052 -54.363  1.00  0.00     0.001 A 
HETATM   26  C   UNL     1     -39.742  51.378 -53.186  1.00  0.00     0.000 A 
HETATM   27  C   UNL     1     -39.856  52.033 -51.963  1.00  0.00     0.001 A 
HETATM   28  C   UNL     1     -40.281  53.363 -51.918  1.00  0.00     0.014 A 
ENDBRANCH  21  23
ENDBRANCH   2  17
TORSDOF 3
ENDMDL
