MODEL 1
REMARK VINA RESULT:      -8.0      0.000      0.000
REMARK  6 active torsions:
REMARK  status: ('A' for Active; 'I' for Inactive)
REMARK    1  A    between atoms: C_2  and  C_3 
REMARK    2  A    between atoms: C_6  and  C_7 
REMARK    3  A    between atoms: C_11  and  C_12 
REMARK       I    between atoms: C_12  and  N_13 
REMARK    4  A    between atoms: N_13  and  N_14 
REMARK    5  A    between atoms: C_15  and  C_16 
REMARK    6  A    between atoms: C_17  and  O_18 
ROOT
HETATM    1  C   UNL     1     -43.620  57.182 -56.353  1.00  0.00     0.289 C 
HETATM    2  N   UNL     1     -43.979  56.526 -57.521  1.00  0.00    -0.241 N 
HETATM    3  O   UNL     1     -44.025  58.300 -56.046  1.00  0.00    -0.264 OA
HETATM    4  H   UNL     1     -43.598  55.615 -57.727  1.00  0.00     0.192 HD
ENDROOT
BRANCH   1   5
HETATM    5  C   UNL     1     -42.700  56.457 -55.513  1.00  0.00     0.121 A 
HETATM    6  N   UNL     1     -41.743  57.102 -54.782  1.00  0.00    -0.272 N 
HETATM    7  N   UNL     1     -40.958  56.287 -54.063  1.00  0.00    -0.174 NA
HETATM    8  H   UNL     1     -41.579  58.104 -54.746  1.00  0.00     0.189 HD
HETATM    9  C   UNL     1     -41.434  55.056 -54.299  1.00  0.00     0.089 A 
HETATM   10  C   UNL     1     -42.523  55.120 -55.216  1.00  0.00     0.071 A 
BRANCH   9  11
HETATM   11  C   UNL     1     -40.855  53.866 -53.667  1.00  0.00    -0.006 A 
HETATM   12  C   UNL     1     -40.652  53.806 -52.282  1.00  0.00     0.014 A 
HETATM   13  C   UNL     1     -40.102  52.665 -51.686  1.00  0.00     0.008 A 
HETATM   14  C   UNL     1     -39.739  51.561 -52.465  1.00  0.00    -0.059 A 
HETATM   15  C   UNL     1     -39.943  51.614 -53.849  1.00  0.00     0.008 A 
HETATM   16  C   UNL     1     -40.490  52.756 -54.442  1.00  0.00     0.014 A 
BRANCH  14  17
HETATM   17  C   UNL     1     -39.163  50.327 -51.820  1.00  0.00     0.034 C 
HETATM   18  C   UNL     1     -39.903  49.956 -50.545  1.00  0.00     0.010 C 
ENDBRANCH  14  17
ENDBRANCH   9  11
ENDBRANCH   1   5
BRANCH   2  19
HETATM   19  N   UNL     1     -44.894  57.087 -58.359  1.00  0.00    -0.176 NA
HETATM   20  C   UNL     1     -45.180  56.503 -59.488  1.00  0.00     0.064 C 
HETATM   21  C   UNL     1     -44.490  55.247 -59.982  1.00  0.00     0.073 C 
BRANCH  20  22
HETATM   22  C   UNL     1     -46.249  57.127 -60.341  1.00  0.00     0.023 A 
HETATM   23  C   UNL     1     -46.346  58.524 -60.459  1.00  0.00     0.077 A 
HETATM   24  C   UNL     1     -47.328  59.106 -61.260  1.00  0.00     0.037 A 
HETATM   25  C   UNL     1     -48.239  58.303 -61.942  1.00  0.00     0.003 A 
HETATM   26  C   UNL     1     -48.170  56.917 -61.818  1.00  0.00     0.001 A 
HETATM   27  C   UNL     1     -47.185  56.330 -61.017  1.00  0.00     0.016 A 
BRANCH  23  28
HETATM   28  O   UNL     1     -45.509  59.400 -59.820  1.00  0.00    -0.360 OA
HETATM   29  H   UNL     1     -44.589  59.228 -60.122  1.00  0.00     0.217 HD
ENDBRANCH  23  28
ENDBRANCH  20  22
ENDBRANCH   2  19
TORSDOF 6
ENDMDL
MODEL 2
REMARK VINA RESULT:      -8.0      5.981      8.455
REMARK  6 active torsions:
REMARK  status: ('A' for Active; 'I' for Inactive)
REMARK    1  A    between atoms: C_2  and  C_3 
REMARK    2  A    between atoms: C_6  and  C_7 
REMARK    3  A    between atoms: C_11  and  C_12 
REMARK       I    between atoms: C_12  and  N_13 
REMARK    4  A    between atoms: N_13  and  N_14 
REMARK    5  A    between atoms: C_15  and  C_16 
REMARK    6  A    between atoms: C_17  and  O_18 
ROOT
HETATM    1  C   UNL     1     -42.116  59.494 -52.109  1.00  0.00     0.289 C 
HETATM    2  N   UNL     1     -42.683  59.501 -50.843  1.00  0.00    -0.241 N 
HETATM    3  O   UNL     1     -41.823  60.512 -52.731  1.00  0.00    -0.264 OA
HETATM    4  H   UNL     1     -42.919  58.632 -50.389  1.00  0.00     0.192 HD
ENDROOT
BRANCH   1   5
HETATM    5  C   UNL     1     -41.906  58.182 -52.668  1.00  0.00     0.121 A 
HETATM    6  N   UNL     1     -42.306  57.877 -53.938  1.00  0.00    -0.272 N 
HETATM    7  N   UNL     1     -42.053  56.613 -54.306  1.00  0.00    -0.174 NA
HETATM    8  H   UNL     1     -42.768  58.499 -54.596  1.00  0.00     0.189 HD
HETATM    9  C   UNL     1     -41.428  56.068 -53.251  1.00  0.00     0.089 A 
HETATM   10  C   UNL     1     -41.328  57.020 -52.196  1.00  0.00     0.071 A 
BRANCH   9  11
HETATM   11  C   UNL     1     -40.954  54.680 -53.262  1.00  0.00    -0.006 A 
HETATM   12  C   UNL     1     -40.724  54.002 -54.467  1.00  0.00     0.014 A 
HETATM   13  C   UNL     1     -40.269  52.679 -54.469  1.00  0.00     0.008 A 
HETATM   14  C   UNL     1     -40.038  52.004 -53.266  1.00  0.00    -0.059 A 
HETATM   15  C   UNL     1     -40.263  52.678 -52.060  1.00  0.00     0.008 A 
HETATM   16  C   UNL     1     -40.721  53.999 -52.059  1.00  0.00     0.014 A 
BRANCH  14  17
HETATM   17  C   UNL     1     -39.531  50.585 -53.270  1.00  0.00     0.034 C 
HETATM   18  C   UNL     1     -39.823  49.883 -54.587  1.00  0.00     0.010 C 
ENDBRANCH  14  17
ENDBRANCH   9  11
ENDBRANCH   1   5
BRANCH   2  19
HETATM   19  N   UNL     1     -42.866  60.681 -50.189  1.00  0.00    -0.176 NA
HETATM   20  C   UNL     1     -44.069  61.060 -49.862  1.00  0.00     0.064 C 
HETATM   21  C   UNL     1     -45.321  60.292 -50.235  1.00  0.00     0.073 C 
BRANCH  20  22
HETATM   22  C   UNL     1     -44.206  62.335 -49.078  1.00  0.00     0.023 A 
HETATM   23  C   UNL     1     -43.593  63.519 -49.524  1.00  0.00     0.077 A 
HETATM   24  C   UNL     1     -43.729  64.706 -48.806  1.00  0.00     0.037 A 
HETATM   25  C   UNL     1     -44.465  64.728 -47.624  1.00  0.00     0.003 A 
HETATM   26  C   UNL     1     -45.061  63.558 -47.157  1.00  0.00     0.001 A 
HETATM   27  C   UNL     1     -44.928  62.365 -47.875  1.00  0.00     0.016 A 
BRANCH  23  28
HETATM   28  O   UNL     1     -42.838  63.601 -50.663  1.00  0.00    -0.360 OA
HETATM   29  H   UNL     1     -42.158  64.301 -50.535  1.00  0.00     0.217 HD
ENDBRANCH  23  28
ENDBRANCH  20  22
ENDBRANCH   2  19
TORSDOF 6
ENDMDL
MODEL 3
REMARK VINA RESULT:      -7.9      6.098      7.802
REMARK  6 active torsions:
REMARK  status: ('A' for Active; 'I' for Inactive)
REMARK    1  A    between atoms: C_2  and  C_3 
REMARK    2  A    between atoms: C_6  and  C_7 
REMARK    3  A    between atoms: C_11  and  C_12 
REMARK       I    between atoms: C_12  and  N_13 
REMARK    4  A    between atoms: N_13  and  N_14 
REMARK    5  A    between atoms: C_15  and  C_16 
REMARK    6  A    between atoms: C_17  and  O_18 
ROOT
HETATM    1  C   UNL     1     -44.541  58.360 -51.492  1.00  0.00     0.289 C 
HETATM    2  N   UNL     1     -44.899  58.831 -50.237  1.00  0.00    -0.241 N 
HETATM    3  O   UNL     1     -45.062  58.740 -52.537  1.00  0.00    -0.264 OA
HETATM    4  H   UNL     1     -44.446  58.468 -49.412  1.00  0.00     0.192 HD
ENDROOT
BRANCH   1   5
HETATM    5  C   UNL     1     -43.506  57.358 -51.486  1.00  0.00     0.121 A 
HETATM    6  N   UNL     1     -42.470  57.408 -50.597  1.00  0.00    -0.272 N 
HETATM    7  N   UNL     1     -41.582  56.412 -50.729  1.00  0.00    -0.174 NA
HETATM    8  H   UNL     1     -42.319  58.112 -49.880  1.00  0.00     0.189 HD
HETATM    9  C   UNL     1     -42.066  55.652 -51.722  1.00  0.00     0.089 A 
HETATM   10  C   UNL     1     -43.269  56.220 -52.233  1.00  0.00     0.071 A 
BRANCH   9  11
HETATM   11  C   UNL     1     -41.389  54.428 -52.163  1.00  0.00    -0.006 A 
HETATM   12  C   UNL     1     -40.494  53.751 -51.323  1.00  0.00     0.014 A 
HETATM   13  C   UNL     1     -39.854  52.582 -51.750  1.00  0.00     0.008 A 
HETATM   14  C   UNL     1     -40.092  52.068 -53.029  1.00  0.00    -0.059 A 
HETATM   15  C   UNL     1     -40.986  52.738 -53.871  1.00  0.00     0.008 A 
HETATM   16  C   UNL     1     -41.623  53.908 -53.444  1.00  0.00     0.014 A 
BRANCH  14  17
HETATM   17  C   UNL     1     -39.414  50.800 -53.481  1.00  0.00     0.034 C 
HETATM   18  C   UNL     1     -40.254  50.040 -54.496  1.00  0.00     0.010 C 
ENDBRANCH  14  17
ENDBRANCH   9  11
ENDBRANCH   1   5
BRANCH   2  19
HETATM   19  N   UNL     1     -45.819  59.829 -50.125  1.00  0.00    -0.176 NA
HETATM   20  C   UNL     1     -45.441  61.019 -49.752  1.00  0.00     0.064 C 
HETATM   21  C   UNL     1     -44.019  61.360 -49.352  1.00  0.00     0.073 C 
BRANCH  20  22
HETATM   22  C   UNL     1     -46.484  62.099 -49.715  1.00  0.00     0.023 A 
HETATM   23  C   UNL     1     -47.015  62.622 -50.906  1.00  0.00     0.077 A 
HETATM   24  C   UNL     1     -47.994  63.616 -50.875  1.00  0.00     0.037 A 
HETATM   25  C   UNL     1     -48.446  64.113 -49.656  1.00  0.00     0.003 A 
HETATM   26  C   UNL     1     -47.915  63.620 -48.466  1.00  0.00     0.001 A 
HETATM   27  C   UNL     1     -46.934  62.623 -48.493  1.00  0.00     0.016 A 
BRANCH  23  28
HETATM   28  O   UNL     1     -46.629  62.213 -52.155  1.00  0.00    -0.360 OA
HETATM   29  H   UNL     1     -47.276  62.560 -52.810  1.00  0.00     0.217 HD
ENDBRANCH  23  28
ENDBRANCH  20  22
ENDBRANCH   2  19
TORSDOF 6
ENDMDL
MODEL 4
REMARK VINA RESULT:      -7.6      6.461      7.412
REMARK  6 active torsions:
REMARK  status: ('A' for Active; 'I' for Inactive)
REMARK    1  A    between atoms: C_2  and  C_3 
REMARK    2  A    between atoms: C_6  and  C_7 
REMARK    3  A    between atoms: C_11  and  C_12 
REMARK       I    between atoms: C_12  and  N_13 
REMARK    4  A    between atoms: N_13  and  N_14 
REMARK    5  A    between atoms: C_15  and  C_16 
REMARK    6  A    between atoms: C_17  and  O_18 
ROOT
HETATM    1  C   UNL     1     -42.140  58.803 -51.351  1.00  0.00     0.289 C 
HETATM    2  N   UNL     1     -43.291  59.097 -50.636  1.00  0.00    -0.241 N 
HETATM    3  O   UNL     1     -41.546  59.618 -52.053  1.00  0.00    -0.264 OA
HETATM    4  H   UNL     1     -43.744  58.380 -50.090  1.00  0.00     0.192 HD
ENDROOT
BRANCH   1   5
HETATM    5  C   UNL     1     -41.686  57.440 -51.231  1.00  0.00     0.121 A 
HETATM    6  N   UNL     1     -41.457  56.872 -50.010  1.00  0.00    -0.272 N 
HETATM    7  N   UNL     1     -41.026  55.603 -50.065  1.00  0.00    -0.174 NA
HETATM    8  H   UNL     1     -41.574  57.313 -49.102  1.00  0.00     0.189 HD
HETATM    9  C   UNL     1     -41.000  55.308 -51.374  1.00  0.00     0.089 A 
HETATM   10  C   UNL     1     -41.397  56.442 -52.140  1.00  0.00     0.071 A 
BRANCH   9  11
HETATM   11  C   UNL     1     -40.601  53.984 -51.862  1.00  0.00    -0.006 A 
HETATM   12  C   UNL     1     -40.122  53.001 -50.985  1.00  0.00     0.014 A 
HETATM   13  C   UNL     1     -39.746  51.739 -51.459  1.00  0.00     0.008 A 
HETATM   14  C   UNL     1     -39.838  51.434 -52.821  1.00  0.00    -0.059 A 
HETATM   15  C   UNL     1     -40.319  52.411 -53.701  1.00  0.00     0.008 A 
HETATM   16  C   UNL     1     -40.691  53.672 -53.227  1.00  0.00     0.014 A 
BRANCH  14  17
HETATM   17  C   UNL     1     -39.449  50.069 -53.327  1.00  0.00     0.034 C 
HETATM   18  C   UNL     1     -39.931  49.834 -54.750  1.00  0.00     0.010 C 
ENDBRANCH  14  17
ENDBRANCH   9  11
ENDBRANCH   1   5
BRANCH   2  19
HETATM   19  N   UNL     1     -43.773  60.370 -50.621  1.00  0.00    -0.176 NA
HETATM   20  C   UNL     1     -45.049  60.580 -50.784  1.00  0.00     0.064 C 
HETATM   21  C   UNL     1     -46.051  59.479 -51.070  1.00  0.00     0.073 C 
BRANCH  20  22
HETATM   22  C   UNL     1     -45.536  61.998 -50.687  1.00  0.00     0.023 A 
HETATM   23  C   UNL     1     -45.056  62.982 -51.567  1.00  0.00     0.077 A 
HETATM   24  C   UNL     1     -45.516  64.296 -51.488  1.00  0.00     0.037 A 
HETATM   25  C   UNL     1     -46.451  64.652 -50.520  1.00  0.00     0.003 A 
HETATM   26  C   UNL     1     -46.922  63.693 -49.625  1.00  0.00     0.001 A 
HETATM   27  C   UNL     1     -46.463  62.374 -49.703  1.00  0.00     0.016 A 
BRANCH  23  28
HETATM   28  O   UNL     1     -44.127  62.739 -52.544  1.00  0.00    -0.360 OA
HETATM   29  H   UNL     1     -43.378  63.367 -52.423  1.00  0.00     0.217 HD
ENDBRANCH  23  28
ENDBRANCH  20  22
ENDBRANCH   2  19
TORSDOF 6
ENDMDL
MODEL 5
REMARK VINA RESULT:      -7.6      1.502      2.050
REMARK  6 active torsions:
REMARK  status: ('A' for Active; 'I' for Inactive)
REMARK    1  A    between atoms: C_2  and  C_3 
REMARK    2  A    between atoms: C_6  and  C_7 
REMARK    3  A    between atoms: C_11  and  C_12 
REMARK       I    between atoms: C_12  and  N_13 
REMARK    4  A    between atoms: N_13  and  N_14 
REMARK    5  A    between atoms: C_15  and  C_16 
REMARK    6  A    between atoms: C_17  and  O_18 
ROOT
HETATM    1  C   UNL     1     -43.549  57.185 -58.104  1.00  0.00     0.289 C 
HETATM    2  N   UNL     1     -44.764  56.575 -58.378  1.00  0.00    -0.241 N 
HETATM    3  O   UNL     1     -43.071  58.090 -58.783  1.00  0.00    -0.264 OA
HETATM    4  H   UNL     1     -45.097  55.824 -57.793  1.00  0.00     0.192 HD
ENDROOT
BRANCH   1   5
HETATM    5  C   UNL     1     -42.858  56.660 -56.953  1.00  0.00     0.121 A 
HETATM    6  N   UNL     1     -42.438  57.477 -55.942  1.00  0.00    -0.272 N 
HETATM    7  N   UNL     1     -41.799  56.841 -54.950  1.00  0.00    -0.174 NA
HETATM    8  H   UNL     1     -42.558  58.485 -55.884  1.00  0.00     0.189 HD
HETATM    9  C   UNL     1     -41.825  55.546 -55.301  1.00  0.00     0.089 A 
HETATM   10  C   UNL     1     -42.473  55.394 -56.561  1.00  0.00     0.071 A 
BRANCH   9  11
HETATM   11  C   UNL     1     -41.243  54.501 -54.453  1.00  0.00    -0.006 A 
HETATM   12  C   UNL     1     -41.257  54.608 -53.055  1.00  0.00     0.014 A 
HETATM   13  C   UNL     1     -40.701  53.604 -52.254  1.00  0.00     0.008 A 
HETATM   14  C   UNL     1     -40.116  52.473 -52.833  1.00  0.00    -0.059 A 
HETATM   15  C   UNL     1     -40.103  52.360 -54.228  1.00  0.00     0.008 A 
HETATM   16  C   UNL     1     -40.655  53.365 -55.028  1.00  0.00     0.014 A 
BRANCH  14  17
HETATM   17  C   UNL     1     -39.534  51.386 -51.968  1.00  0.00     0.034 C 
HETATM   18  C   UNL     1     -39.590  50.028 -52.651  1.00  0.00     0.010 C 
ENDBRANCH  14  17
ENDBRANCH   9  11
ENDBRANCH   1   5
BRANCH   2  19
HETATM   19  N   UNL     1     -45.536  57.033 -59.402  1.00  0.00    -0.176 NA
HETATM   20  C   UNL     1     -46.625  57.701 -59.142  1.00  0.00     0.064 C 
HETATM   21  C   UNL     1     -47.145  57.945 -57.739  1.00  0.00     0.073 C 
BRANCH  20  22
HETATM   22  C   UNL     1     -47.400  58.245 -60.308  1.00  0.00     0.023 A 
HETATM   23  C   UNL     1     -47.634  57.452 -61.445  1.00  0.00     0.077 A 
HETATM   24  C   UNL     1     -48.364  57.949 -62.524  1.00  0.00     0.037 A 
HETATM   25  C   UNL     1     -48.859  59.250 -62.492  1.00  0.00     0.003 A 
HETATM   26  C   UNL     1     -48.618  60.057 -61.382  1.00  0.00     0.001 A 
HETATM   27  C   UNL     1     -47.888  59.561 -60.297  1.00  0.00     0.016 A 
BRANCH  23  28
HETATM   28  O   UNL     1     -47.179  56.167 -61.582  1.00  0.00    -0.360 OA
HETATM   29  H   UNL     1     -47.341  55.689 -60.737  1.00  0.00     0.217 HD
ENDBRANCH  23  28
ENDBRANCH  20  22
ENDBRANCH   2  19
TORSDOF 6
ENDMDL
MODEL 6
REMARK VINA RESULT:      -7.5      6.005     10.219
REMARK  6 active torsions:
REMARK  status: ('A' for Active; 'I' for Inactive)
REMARK    1  A    between atoms: C_2  and  C_3 
REMARK    2  A    between atoms: C_6  and  C_7 
REMARK    3  A    between atoms: C_11  and  C_12 
REMARK       I    between atoms: C_12  and  N_13 
REMARK    4  A    between atoms: N_13  and  N_14 
REMARK    5  A    between atoms: C_15  and  C_16 
REMARK    6  A    between atoms: C_17  and  O_18 
ROOT
HETATM    1  C   UNL     1     -41.232  56.542 -53.164  1.00  0.00     0.289 C 
HETATM    2  N   UNL     1     -41.278  55.535 -52.211  1.00  0.00    -0.241 N 
HETATM    3  O   UNL     1     -40.826  56.378 -54.311  1.00  0.00    -0.264 OA
HETATM    4  H   UNL     1     -41.606  55.735 -51.279  1.00  0.00     0.192 HD
ENDROOT
BRANCH   1   5
HETATM    5  C   UNL     1     -41.686  57.830 -52.702  1.00  0.00     0.121 A 
HETATM    6  N   UNL     1     -41.240  58.988 -53.272  1.00  0.00    -0.272 N 
HETATM    7  N   UNL     1     -41.744  60.102 -52.722  1.00  0.00    -0.174 NA
HETATM    8  H   UNL     1     -40.581  59.073 -54.041  1.00  0.00     0.189 HD
HETATM    9  C   UNL     1     -42.584  59.664 -51.771  1.00  0.00     0.089 A 
HETATM   10  C   UNL     1     -42.566  58.240 -51.720  1.00  0.00     0.071 A 
BRANCH   9  11
HETATM   11  C   UNL     1     -43.367  60.587 -50.943  1.00  0.00    -0.006 A 
HETATM   12  C   UNL     1     -44.625  60.225 -50.444  1.00  0.00     0.014 A 
HETATM   13  C   UNL     1     -45.364  61.111 -49.652  1.00  0.00     0.008 A 
HETATM   14  C   UNL     1     -44.862  62.380 -49.345  1.00  0.00    -0.059 A 
HETATM   15  C   UNL     1     -43.605  62.745 -49.838  1.00  0.00     0.008 A 
HETATM   16  C   UNL     1     -42.868  61.861 -50.632  1.00  0.00     0.014 A 
BRANCH  14  17
HETATM   17  C   UNL     1     -45.652  63.326 -48.477  1.00  0.00     0.034 C 
HETATM   18  C   UNL     1     -44.769  64.034 -47.462  1.00  0.00     0.010 C 
ENDBRANCH  14  17
ENDBRANCH   9  11
ENDBRANCH   1   5
BRANCH   2  19
HETATM   19  N   UNL     1     -40.937  54.262 -52.554  1.00  0.00    -0.176 NA
HETATM   20  C   UNL     1     -40.320  53.503 -51.693  1.00  0.00     0.064 C 
HETATM   21  C   UNL     1     -39.877  53.977 -50.323  1.00  0.00     0.073 C 
BRANCH  20  22
HETATM   22  C   UNL     1     -40.033  52.085 -52.098  1.00  0.00     0.023 A 
HETATM   23  C   UNL     1     -39.960  51.730 -53.456  1.00  0.00     0.077 A 
HETATM   24  C   UNL     1     -39.680  50.417 -53.835  1.00  0.00     0.037 A 
HETATM   25  C   UNL     1     -39.484  49.437 -52.866  1.00  0.00     0.003 A 
HETATM   26  C   UNL     1     -39.575  49.768 -51.516  1.00  0.00     0.001 A 
HETATM   27  C   UNL     1     -39.853  51.084 -51.132  1.00  0.00     0.016 A 
BRANCH  23  28
HETATM   28  O   UNL     1     -40.150  52.614 -54.484  1.00  0.00    -0.360 OA
HETATM   29  H   UNL     1     -40.419  52.107 -55.284  1.00  0.00     0.217 HD
ENDBRANCH  23  28
ENDBRANCH  20  22
ENDBRANCH   2  19
TORSDOF 6
ENDMDL
MODEL 7
REMARK VINA RESULT:      -7.4      5.768      7.877
REMARK  6 active torsions:
REMARK  status: ('A' for Active; 'I' for Inactive)
REMARK    1  A    between atoms: C_2  and  C_3 
REMARK    2  A    between atoms: C_6  and  C_7 
REMARK    3  A    between atoms: C_11  and  C_12 
REMARK       I    between atoms: C_12  and  N_13 
REMARK    4  A    between atoms: N_13  and  N_14 
REMARK    5  A    between atoms: C_15  and  C_16 
REMARK    6  A    between atoms: C_17  and  O_18 
ROOT
HETATM    1  C   UNL     1     -42.069  58.994 -52.255  1.00  0.00     0.289 C 
HETATM    2  N   UNL     1     -42.975  58.947 -51.206  1.00  0.00    -0.241 N 
HETATM    3  O   UNL     1     -41.582  60.035 -52.690  1.00  0.00    -0.264 OA
HETATM    4  H   UNL     1     -43.355  58.063 -50.904  1.00  0.00     0.192 HD
ENDROOT
BRANCH   1   5
HETATM    5  C   UNL     1     -41.744  57.713 -52.829  1.00  0.00     0.121 A 
HETATM    6  N   UNL     1     -41.763  57.512 -54.180  1.00  0.00    -0.272 N 
HETATM    7  N   UNL     1     -41.450  56.264 -54.555  1.00  0.00    -0.174 NA
HETATM    8  H   UNL     1     -41.991  58.199 -54.893  1.00  0.00     0.189 HD
HETATM    9  C   UNL     1     -41.181  55.619 -53.410  1.00  0.00     0.089 A 
HETATM   10  C   UNL     1     -41.367  56.494 -52.301  1.00  0.00     0.071 A 
BRANCH   9  11
HETATM   11  C   UNL     1     -40.768  54.212 -53.391  1.00  0.00    -0.006 A 
HETATM   12  C   UNL     1     -40.483  53.556 -52.185  1.00  0.00     0.014 A 
HETATM   13  C   UNL     1     -40.092  52.212 -52.175  1.00  0.00     0.008 A 
HETATM   14  C   UNL     1     -39.973  51.497 -53.371  1.00  0.00    -0.059 A 
HETATM   15  C   UNL     1     -40.259  52.147 -54.578  1.00  0.00     0.008 A 
HETATM   16  C   UNL     1     -40.646  53.490 -54.587  1.00  0.00     0.014 A 
BRANCH  14  17
HETATM   17  C   UNL     1     -39.568  50.046 -53.357  1.00  0.00     0.034 C 
HETATM   18  C   UNL     1     -39.587  49.466 -51.952  1.00  0.00     0.010 C 
ENDBRANCH  14  17
ENDBRANCH   9  11
ENDBRANCH   1   5
BRANCH   2  19
HETATM   19  N   UNL     1     -43.305  60.090 -50.543  1.00  0.00    -0.176 NA
HETATM   20  C   UNL     1     -44.545  60.309 -50.207  1.00  0.00     0.064 C 
HETATM   21  C   UNL     1     -45.689  59.387 -50.579  1.00  0.00     0.073 C 
BRANCH  20  22
HETATM   22  C   UNL     1     -44.840  61.550 -49.415  1.00  0.00     0.023 A 
HETATM   23  C   UNL     1     -45.199  62.745 -50.063  1.00  0.00     0.077 A 
HETATM   24  C   UNL     1     -45.487  63.895 -49.330  1.00  0.00     0.037 A 
HETATM   25  C   UNL     1     -45.407  63.876 -47.940  1.00  0.00     0.003 A 
HETATM   26  C   UNL     1     -45.031  62.707 -47.283  1.00  0.00     0.001 A 
HETATM   27  C   UNL     1     -44.743  61.550 -48.015  1.00  0.00     0.016 A 
BRANCH  23  28
HETATM   28  O   UNL     1     -45.294  62.872 -51.423  1.00  0.00    -0.360 OA
HETATM   29  H   UNL     1     -45.433  63.823 -51.637  1.00  0.00     0.217 HD
ENDBRANCH  23  28
ENDBRANCH  20  22
ENDBRANCH   2  19
TORSDOF 6
ENDMDL
MODEL 8
REMARK VINA RESULT:      -7.4      5.810      7.688
REMARK  6 active torsions:
REMARK  status: ('A' for Active; 'I' for Inactive)
REMARK    1  A    between atoms: C_2  and  C_3 
REMARK    2  A    between atoms: C_6  and  C_7 
REMARK    3  A    between atoms: C_11  and  C_12 
REMARK       I    between atoms: C_12  and  N_13 
REMARK    4  A    between atoms: N_13  and  N_14 
REMARK    5  A    between atoms: C_15  and  C_16 
REMARK    6  A    between atoms: C_17  and  O_18 
ROOT
HETATM    1  C   UNL     1     -44.738  58.279 -51.213  1.00  0.00     0.289 C 
HETATM    2  N   UNL     1     -44.230  59.538 -51.491  1.00  0.00    -0.241 N 
HETATM    3  O   UNL     1     -45.625  58.068 -50.390  1.00  0.00    -0.264 OA
HETATM    4  H   UNL     1     -43.488  59.646 -52.166  1.00  0.00     0.192 HD
ENDROOT
BRANCH   1   5
HETATM    5  C   UNL     1     -44.129  57.204 -51.956  1.00  0.00     0.121 A 
HETATM    6  N   UNL     1     -44.554  56.878 -53.212  1.00  0.00    -0.272 N 
HETATM    7  N   UNL     1     -43.897  55.848 -53.765  1.00  0.00    -0.174 NA
HETATM    8  H   UNL     1     -45.299  57.326 -53.738  1.00  0.00     0.189 HD
HETATM    9  C   UNL     1     -42.977  55.499 -52.852  1.00  0.00     0.089 A 
HETATM   10  C   UNL     1     -43.099  56.322 -51.695  1.00  0.00     0.071 A 
BRANCH   9  11
HETATM   11  C   UNL     1     -42.023  54.411 -53.089  1.00  0.00    -0.006 A 
HETATM   12  C   UNL     1     -41.680  54.016 -54.390  1.00  0.00     0.014 A 
HETATM   13  C   UNL     1     -40.767  52.978 -54.607  1.00  0.00     0.008 A 
HETATM   14  C   UNL     1     -40.179  52.310 -53.527  1.00  0.00    -0.059 A 
HETATM   15  C   UNL     1     -40.515  52.703 -52.227  1.00  0.00     0.008 A 
HETATM   16  C   UNL     1     -41.431  53.737 -52.011  1.00  0.00     0.014 A 
BRANCH  14  17
HETATM   17  C   UNL     1     -39.183  51.205 -53.763  1.00  0.00     0.034 C 
HETATM   18  C   UNL     1     -39.867  49.878 -54.051  1.00  0.00     0.010 C 
ENDBRANCH  14  17
ENDBRANCH   9  11
ENDBRANCH   1   5
BRANCH   2  19
HETATM   19  N   UNL     1     -44.775  60.635 -50.899  1.00  0.00    -0.176 NA
HETATM   20  C   UNL     1     -45.657  61.348 -51.542  1.00  0.00     0.064 C 
HETATM   21  C   UNL     1     -46.074  61.074 -52.973  1.00  0.00     0.073 C 
BRANCH  20  22
HETATM   22  C   UNL     1     -46.279  62.505 -50.814  1.00  0.00     0.023 A 
HETATM   23  C   UNL     1     -46.605  62.401 -49.451  1.00  0.00     0.077 A 
HETATM   24  C   UNL     1     -47.171  63.478 -48.768  1.00  0.00     0.037 A 
HETATM   25  C   UNL     1     -47.435  64.669 -49.439  1.00  0.00     0.003 A 
HETATM   26  C   UNL     1     -47.138  64.782 -50.796  1.00  0.00     0.001 A 
HETATM   27  C   UNL     1     -46.568  63.704 -51.483  1.00  0.00     0.016 A 
BRANCH  23  28
HETATM   28  O   UNL     1     -46.400  61.271 -48.704  1.00  0.00    -0.360 OA
HETATM   29  H   UNL     1     -46.131  61.543 -47.797  1.00  0.00     0.217 HD
ENDBRANCH  23  28
ENDBRANCH  20  22
ENDBRANCH   2  19
TORSDOF 6
ENDMDL
MODEL 9
REMARK VINA RESULT:      -7.3     16.099     20.611
REMARK  6 active torsions:
REMARK  status: ('A' for Active; 'I' for Inactive)
REMARK    1  A    between atoms: C_2  and  C_3 
REMARK    2  A    between atoms: C_6  and  C_7 
REMARK    3  A    between atoms: C_11  and  C_12 
REMARK       I    between atoms: C_12  and  N_13 
REMARK    4  A    between atoms: N_13  and  N_14 
REMARK    5  A    between atoms: C_15  and  C_16 
REMARK    6  A    between atoms: C_17  and  O_18 
ROOT
HETATM    1  C   UNL     1     -36.016  40.018 -50.524  1.00  0.00     0.289 C 
HETATM    2  N   UNL     1     -34.699  39.589 -50.595  1.00  0.00    -0.241 N 
HETATM    3  O   UNL     1     -36.661  40.069 -49.480  1.00  0.00    -0.264 OA
HETATM    4  H   UNL     1     -34.226  39.553 -51.486  1.00  0.00     0.192 HD
ENDROOT
BRANCH   1   5
HETATM    5  C   UNL     1     -36.599  40.390 -51.789  1.00  0.00     0.121 A 
HETATM    6  N   UNL     1     -37.898  40.801 -51.880  1.00  0.00    -0.272 N 
HETATM    7  N   UNL     1     -38.295  41.098 -53.126  1.00  0.00    -0.174 NA
HETATM    8  H   UNL     1     -38.563  40.889 -51.117  1.00  0.00     0.189 HD
HETATM    9  C   UNL     1     -37.206  40.909 -53.886  1.00  0.00     0.089 A 
HETATM   10  C   UNL     1     -36.121  40.452 -53.083  1.00  0.00     0.071 A 
BRANCH   9  11
HETATM   11  C   UNL     1     -37.217  41.156 -55.332  1.00  0.00    -0.006 A 
HETATM   12  C   UNL     1     -36.266  41.991 -55.933  1.00  0.00     0.014 A 
HETATM   13  C   UNL     1     -36.281  42.219 -57.313  1.00  0.00     0.008 A 
HETATM   14  C   UNL     1     -37.252  41.618 -58.122  1.00  0.00    -0.059 A 
HETATM   15  C   UNL     1     -38.202  40.781 -57.528  1.00  0.00     0.008 A 
HETATM   16  C   UNL     1     -38.187  40.557 -56.148  1.00  0.00     0.014 A 
BRANCH  14  17
HETATM   17  C   UNL     1     -37.257  41.851 -59.611  1.00  0.00     0.034 C 
HETATM   18  C   UNL     1     -37.333  40.546 -60.388  1.00  0.00     0.010 C 
ENDBRANCH  14  17
ENDBRANCH   9  11
ENDBRANCH   1   5
BRANCH   2  19
HETATM   19  N   UNL     1     -34.025  39.277 -49.455  1.00  0.00    -0.176 NA
HETATM   20  C   UNL     1     -32.736  39.457 -49.395  1.00  0.00     0.064 C 
HETATM   21  C   UNL     1     -31.900  39.936 -50.565  1.00  0.00     0.073 C 
BRANCH  20  22
HETATM   22  C   UNL     1     -32.054  39.164 -48.088  1.00  0.00     0.023 A 
HETATM   23  C   UNL     1     -32.441  38.059 -47.311  1.00  0.00     0.077 A 
HETATM   24  C   UNL     1     -31.802  37.776 -46.104  1.00  0.00     0.037 A 
HETATM   25  C   UNL     1     -30.777  38.601 -45.647  1.00  0.00     0.003 A 
HETATM   26  C   UNL     1     -30.395  39.713 -46.395  1.00  0.00     0.001 A 
HETATM   27  C   UNL     1     -31.034  39.998 -47.606  1.00  0.00     0.016 A 
BRANCH  23  28
HETATM   28  O   UNL     1     -33.445  37.197 -47.664  1.00  0.00    -0.360 OA
HETATM   29  H   UNL     1     -34.295  37.694 -47.669  1.00  0.00     0.217 HD
ENDBRANCH  23  28
ENDBRANCH  20  22
ENDBRANCH   2  19
TORSDOF 6
ENDMDL
MODEL 10
REMARK VINA RESULT:      -7.3      7.578     10.620
REMARK  6 active torsions:
REMARK  status: ('A' for Active; 'I' for Inactive)
REMARK    1  A    between atoms: C_2  and  C_3 
REMARK    2  A    between atoms: C_6  and  C_7 
REMARK    3  A    between atoms: C_11  and  C_12 
REMARK       I    between atoms: C_12  and  N_13 
REMARK    4  A    between atoms: N_13  and  N_14 
REMARK    5  A    between atoms: C_15  and  C_16 
REMARK    6  A    between atoms: C_17  and  O_18 
ROOT
HETATM    1  C   UNL     1     -43.708  59.020 -51.778  1.00  0.00     0.289 C 
HETATM    2  N   UNL     1     -43.003  57.933 -51.284  1.00  0.00    -0.241 N 
HETATM    3  O   UNL     1     -43.807  59.283 -52.974  1.00  0.00    -0.264 OA
HETATM    4  H   UNL     1     -42.943  57.778 -50.289  1.00  0.00     0.192 HD
ENDROOT
BRANCH   1   5
HETATM    5  C   UNL     1     -44.316  59.852 -50.771  1.00  0.00     0.121 A 
HETATM    6  N   UNL     1     -45.673  59.971 -50.670  1.00  0.00    -0.272 N 
HETATM    7  N   UNL     1     -46.083  60.792 -49.692  1.00  0.00    -0.174 NA
HETATM    8  H   UNL     1     -46.369  59.514 -51.253  1.00  0.00     0.189 HD
HETATM    9  C   UNL     1     -44.954  61.208 -49.099  1.00  0.00     0.089 A 
HETATM   10  C   UNL     1     -43.820  60.648 -49.757  1.00  0.00     0.071 A 
BRANCH   9  11
HETATM   11  C   UNL     1     -44.971  62.116 -47.947  1.00  0.00    -0.006 A 
HETATM   12  C   UNL     1     -44.826  63.500 -48.112  1.00  0.00     0.014 A 
HETATM   13  C   UNL     1     -44.847  64.359 -47.007  1.00  0.00     0.008 A 
HETATM   14  C   UNL     1     -45.010  63.852 -45.714  1.00  0.00    -0.059 A 
HETATM   15  C   UNL     1     -45.158  62.471 -45.544  1.00  0.00     0.008 A 
HETATM   16  C   UNL     1     -45.134  61.613 -46.648  1.00  0.00     0.014 A 
BRANCH  14  17
HETATM   17  C   UNL     1     -45.049  64.780 -44.528  1.00  0.00     0.034 C 
HETATM   18  C   UNL     1     -44.216  64.254 -43.369  1.00  0.00     0.010 C 
ENDBRANCH  14  17
ENDBRANCH   9  11
ENDBRANCH   1   5
BRANCH   2  19
HETATM   19  N   UNL     1     -42.443  57.040 -52.146  1.00  0.00    -0.176 NA
HETATM   20  C   UNL     1     -41.717  56.062 -51.683  1.00  0.00     0.064 C 
HETATM   21  C   UNL     1     -41.383  55.887 -50.215  1.00  0.00     0.073 C 
BRANCH  20  22
HETATM   22  C   UNL     1     -41.184  55.065 -52.672  1.00  0.00     0.023 A 
HETATM   23  C   UNL     1     -40.836  55.464 -53.974  1.00  0.00     0.077 A 
HETATM   24  C   UNL     1     -40.328  54.543 -54.890  1.00  0.00     0.037 A 
HETATM   25  C   UNL     1     -40.175  53.208 -54.528  1.00  0.00     0.003 A 
HETATM   26  C   UNL     1     -40.537  52.791 -53.248  1.00  0.00     0.001 A 
HETATM   27  C   UNL     1     -41.044  53.712 -52.326  1.00  0.00     0.016 A 
BRANCH  23  28
HETATM   28  O   UNL     1     -40.960  56.748 -54.433  1.00  0.00    -0.360 OA
HETATM   29  H   UNL     1     -41.850  56.846 -54.844  1.00  0.00     0.217 HD
ENDBRANCH  23  28
ENDBRANCH  20  22
ENDBRANCH   2  19
TORSDOF 6
ENDMDL
