MODEL 1
REMARK VINA RESULT:      -7.5      0.000      0.000
REMARK  7 active torsions:
REMARK  status: ('A' for Active; 'I' for Inactive)
REMARK    1  A    between atoms: O_2  and  C_3 
REMARK    2  A    between atoms: C_4  and  O_5 
REMARK    3  A    between atoms: C_9  and  C_10 
REMARK    4  A    between atoms: C_10  and  N_11 
REMARK    5  A    between atoms: C_14  and  C_15 
REMARK    6  A    between atoms: C_15  and  N_16 
REMARK    7  A    between atoms: N_16  and  C_17 
ROOT
HETATM    1  N   UNL     1     -42.267  55.268 -54.679  1.00  0.00    -0.067 N 
HETATM    2  H   UNL     1     -42.558  54.290 -54.824  1.00  0.00     0.280 HD
HETATM    3  C   UNL     1     -42.490  55.997 -55.992  1.00  0.00     0.241 C 
HETATM    4  C   UNL     1     -43.366  57.194 -55.628  1.00  0.00     0.031 C 
HETATM    5  C   UNL     1     -44.214  56.641 -54.488  1.00  0.00     0.035 C 
HETATM    6  C   UNL     1     -43.202  55.870 -53.655  1.00  0.00     0.235 C 
ENDROOT
BRANCH   1   7
HETATM    7  C   UNL     1     -40.831  55.199 -54.208  1.00  0.00     0.273 C 
BRANCH   7   8
HETATM    8  C   UNL     1     -40.535  53.951 -53.419  1.00  0.00    -0.028 A 
HETATM    9  C   UNL     1     -40.261  52.745 -54.086  1.00  0.00     0.031 A 
HETATM   10  C   UNL     1     -39.943  51.593 -53.362  1.00  0.00     0.047 A 
HETATM   11  C   UNL     1     -39.904  51.639 -51.970  1.00  0.00     0.116 A 
HETATM   12 BR   UNL     1     -39.562  50.005 -54.321  1.00  0.00    -0.048 Br
HETATM   13  C   UNL     1     -40.194  52.825 -51.284  1.00  0.00     0.103 A 
HETATM   14  C   UNL     1     -40.509  53.977 -52.011  1.00  0.00     0.048 A 
BRANCH  11  15
HETATM   15  O   UNL     1     -39.580  50.517 -51.254  1.00  0.00    -0.357 OA
HETATM   16  H   UNL     1     -38.991  50.805 -50.529  1.00  0.00     0.218 HD
ENDBRANCH  11  15
BRANCH  13  17
HETATM   17  O   UNL     1     -40.119  52.733 -49.920  1.00  0.00    -0.353 OA
HETATM   18  C   UNL     1     -40.078  53.946 -49.176  1.00  0.00     0.210 C 
ENDBRANCH  13  17
ENDBRANCH   7   8
ENDBRANCH   1   7
BRANCH   4  19
HETATM   19  C   UNL     1     -44.165  57.714 -56.830  1.00  0.00     0.127 C 
BRANCH  19  20
HETATM   20  N   UNL     1     -43.672  57.139 -58.081  1.00  0.00    -0.376 N 
HETATM   21  H   UNL     1     -42.719  57.358 -58.346  1.00  0.00     0.161 HD
BRANCH  20  22
HETATM   22  C   UNL     1     -44.532  56.635 -59.038  1.00  0.00     0.100 A 
HETATM   23  N   UNL     1     -45.823  57.017 -58.997  1.00  0.00    -0.353 N 
HETATM   24  H   UNL     1     -46.109  57.656 -58.263  1.00  0.00     0.166 HD
HETATM   25  C   UNL     1     -46.752  56.617 -59.881  1.00  0.00     0.089 A 
HETATM   26  C   UNL     1     -46.407  55.765 -60.916  1.00  0.00     0.017 A 
HETATM   27  C   UNL     1     -45.090  55.345 -61.018  1.00  0.00     0.005 A 
HETATM   28  C   UNL     1     -44.151  55.782 -60.083  1.00  0.00     0.048 A 
ENDBRANCH  20  22
ENDBRANCH  19  20
ENDBRANCH   4  19
TORSDOF 7
ENDMDL
MODEL 2
REMARK VINA RESULT:      -7.2      1.505      1.862
REMARK  7 active torsions:
REMARK  status: ('A' for Active; 'I' for Inactive)
REMARK    1  A    between atoms: O_2  and  C_3 
REMARK    2  A    between atoms: C_4  and  O_5 
REMARK    3  A    between atoms: C_9  and  C_10 
REMARK    4  A    between atoms: C_10  and  N_11 
REMARK    5  A    between atoms: C_14  and  C_15 
REMARK    6  A    between atoms: C_15  and  N_16 
REMARK    7  A    between atoms: N_16  and  C_17 
ROOT
HETATM    1  N   UNL     1     -42.158  55.768 -54.156  1.00  0.00    -0.067 N 
HETATM    2  H   UNL     1     -42.603  55.130 -53.479  1.00  0.00     0.280 HD
HETATM    3  C   UNL     1     -43.130  55.939 -55.310  1.00  0.00     0.241 C 
HETATM    4  C   UNL     1     -43.316  57.451 -55.440  1.00  0.00     0.031 C 
HETATM    5  C   UNL     1     -43.189  57.919 -53.994  1.00  0.00     0.035 C 
HETATM    6  C   UNL     1     -42.008  57.111 -53.477  1.00  0.00     0.235 C 
ENDROOT
BRANCH   1   7
HETATM    7  C   UNL     1     -40.835  55.127 -54.508  1.00  0.00     0.273 C 
BRANCH   7   8
HETATM    8  C   UNL     1     -40.519  53.929 -53.651  1.00  0.00    -0.028 A 
HETATM    9  C   UNL     1     -40.268  52.682 -54.248  1.00  0.00     0.031 A 
HETATM   10  C   UNL     1     -39.932  51.577 -53.462  1.00  0.00     0.047 A 
HETATM   11  C   UNL     1     -39.853  51.710 -52.077  1.00  0.00     0.116 A 
HETATM   12 BR   UNL     1     -39.584  49.930 -54.329  1.00  0.00    -0.048 Br
HETATM   13  C   UNL     1     -40.120  52.938 -51.460  1.00  0.00     0.103 A 
HETATM   14  C   UNL     1     -40.453  54.044 -52.248  1.00  0.00     0.048 A 
BRANCH  11  15
HETATM   15  O   UNL     1     -39.512  50.634 -51.302  1.00  0.00    -0.357 OA
HETATM   16  H   UNL     1     -39.872  50.804 -50.409  1.00  0.00     0.218 HD
ENDBRANCH  11  15
BRANCH  13  17
HETATM   17  O   UNL     1     -40.006  52.933 -50.095  1.00  0.00    -0.353 OA
HETATM   18  C   UNL     1     -39.828  54.183 -49.440  1.00  0.00     0.210 C 
ENDBRANCH  13  17
ENDBRANCH   7   8
ENDBRANCH   1   7
BRANCH   4  19
HETATM   19  C   UNL     1     -44.641  57.815 -56.119  1.00  0.00     0.127 C 
BRANCH  19  20
HETATM   20  N   UNL     1     -44.738  57.211 -57.448  1.00  0.00    -0.376 N 
HETATM   21  H   UNL     1     -45.316  56.384 -57.538  1.00  0.00     0.161 HD
BRANCH  20  22
HETATM   22  C   UNL     1     -43.828  57.501 -58.447  1.00  0.00     0.100 A 
HETATM   23  N   UNL     1     -43.692  58.786 -58.828  1.00  0.00    -0.353 N 
HETATM   24  H   UNL     1     -44.265  59.484 -58.367  1.00  0.00     0.166 HD
HETATM   25  C   UNL     1     -42.829  59.201 -59.769  1.00  0.00     0.089 A 
HETATM   26  C   UNL     1     -42.007  58.291 -60.410  1.00  0.00     0.017 A 
HETATM   27  C   UNL     1     -42.093  56.954 -60.055  1.00  0.00     0.005 A 
HETATM   28  C   UNL     1     -42.999  56.558 -59.070  1.00  0.00     0.048 A 
ENDBRANCH  20  22
ENDBRANCH  19  20
ENDBRANCH   4  19
TORSDOF 7
ENDMDL
MODEL 3
REMARK VINA RESULT:      -7.0      1.935      2.913
REMARK  7 active torsions:
REMARK  status: ('A' for Active; 'I' for Inactive)
REMARK    1  A    between atoms: O_2  and  C_3 
REMARK    2  A    between atoms: C_4  and  O_5 
REMARK    3  A    between atoms: C_9  and  C_10 
REMARK    4  A    between atoms: C_10  and  N_11 
REMARK    5  A    between atoms: C_14  and  C_15 
REMARK    6  A    between atoms: C_15  and  N_16 
REMARK    7  A    between atoms: N_16  and  C_17 
ROOT
HETATM    1  N   UNL     1     -42.040  55.852 -54.097  1.00  0.00    -0.067 N 
HETATM    2  H   UNL     1     -42.247  55.527 -53.140  1.00  0.00     0.280 HD
HETATM    3  C   UNL     1     -43.355  55.873 -54.854  1.00  0.00     0.241 C 
HETATM    4  C   UNL     1     -43.461  57.293 -55.409  1.00  0.00     0.031 C 
HETATM    5  C   UNL     1     -42.770  58.116 -54.327  1.00  0.00     0.035 C 
HETATM    6  C   UNL     1     -41.547  57.278 -53.991  1.00  0.00     0.235 C 
ENDROOT
BRANCH   1   7
HETATM    7  C   UNL     1     -40.995  54.898 -54.631  1.00  0.00     0.273 C 
BRANCH   7   8
HETATM    8  C   UNL     1     -40.594  53.849 -53.628  1.00  0.00    -0.028 A 
HETATM    9  C   UNL     1     -40.625  54.141 -52.254  1.00  0.00     0.031 A 
HETATM   10  C   UNL     1     -40.296  53.160 -51.314  1.00  0.00     0.047 A 
HETATM   11  C   UNL     1     -39.929  51.886 -51.744  1.00  0.00     0.116 A 
HETATM   12 BR   UNL     1     -40.377  53.611 -49.477  1.00  0.00    -0.048 Br
HETATM   13  C   UNL     1     -39.871  51.579 -53.109  1.00  0.00     0.103 A 
HETATM   14  C   UNL     1     -40.204  52.561 -54.046  1.00  0.00     0.048 A 
BRANCH  11  15
HETATM   15  O   UNL     1     -39.618  50.916 -50.829  1.00  0.00    -0.357 OA
HETATM   16  H   UNL     1     -38.666  50.722 -50.934  1.00  0.00     0.218 HD
ENDBRANCH  11  15
BRANCH  13  17
HETATM   17  O   UNL     1     -39.499  50.293 -53.393  1.00  0.00    -0.353 OA
HETATM   18  C   UNL     1     -39.795  49.789 -54.691  1.00  0.00     0.210 C 
ENDBRANCH  13  17
ENDBRANCH   7   8
ENDBRANCH   1   7
BRANCH   4  19
HETATM   19  C   UNL     1     -44.912  57.697 -55.694  1.00  0.00     0.127 C 
BRANCH  19  20
HETATM   20  N   UNL     1     -45.172  57.754 -57.132  1.00  0.00    -0.376 N 
HETATM   21  H   UNL     1     -46.139  57.831 -57.424  1.00  0.00     0.161 HD
BRANCH  20  22
HETATM   22  C   UNL     1     -44.224  57.361 -58.059  1.00  0.00     0.100 A 
HETATM   23  N   UNL     1     -44.265  56.092 -58.510  1.00  0.00    -0.353 N 
HETATM   24  H   UNL     1     -44.988  55.480 -58.148  1.00  0.00     0.166 HD
HETATM   25  C   UNL     1     -43.418  55.595 -59.425  1.00  0.00     0.089 A 
HETATM   26  C   UNL     1     -42.430  56.398 -59.969  1.00  0.00     0.017 A 
HETATM   27  C   UNL     1     -42.343  57.717 -59.552  1.00  0.00     0.005 A 
HETATM   28  C   UNL     1     -43.242  58.202 -58.601  1.00  0.00     0.048 A 
ENDBRANCH  20  22
ENDBRANCH  19  20
ENDBRANCH   4  19
TORSDOF 7
ENDMDL
MODEL 4
REMARK VINA RESULT:      -6.9      2.909      5.445
REMARK  7 active torsions:
REMARK  status: ('A' for Active; 'I' for Inactive)
REMARK    1  A    between atoms: O_2  and  C_3 
REMARK    2  A    between atoms: C_4  and  O_5 
REMARK    3  A    between atoms: C_9  and  C_10 
REMARK    4  A    between atoms: C_10  and  N_11 
REMARK    5  A    between atoms: C_14  and  C_15 
REMARK    6  A    between atoms: C_15  and  N_16 
REMARK    7  A    between atoms: N_16  and  C_17 
ROOT
HETATM    1  N   UNL     1     -42.032  55.350 -55.654  1.00  0.00    -0.067 N 
HETATM    2  H   UNL     1     -41.146  54.965 -56.016  1.00  0.00     0.280 HD
HETATM    3  C   UNL     1     -41.681  56.577 -54.834  1.00  0.00     0.241 C 
HETATM    4  C   UNL     1     -42.532  57.699 -55.429  1.00  0.00     0.031 C 
HETATM    5  C   UNL     1     -42.598  57.308 -56.902  1.00  0.00     0.035 C 
HETATM    6  C   UNL     1     -42.843  55.809 -56.846  1.00  0.00     0.235 C 
ENDROOT
BRANCH   1   7
HETATM    7  C   UNL     1     -42.684  54.219 -54.890  1.00  0.00     0.273 C 
BRANCH   7   8
HETATM    8  C   UNL     1     -41.707  53.452 -54.038  1.00  0.00    -0.028 A 
HETATM    9  C   UNL     1     -41.193  52.224 -54.488  1.00  0.00     0.031 A 
HETATM   10  C   UNL     1     -40.254  51.527 -53.723  1.00  0.00     0.047 A 
HETATM   11  C   UNL     1     -39.830  52.050 -52.503  1.00  0.00     0.116 A 
HETATM   12 BR   UNL     1     -39.585  49.888 -54.395  1.00  0.00    -0.048 Br
HETATM   13  C   UNL     1     -40.345  53.261 -52.025  1.00  0.00     0.103 A 
HETATM   14  C   UNL     1     -41.282  53.958 -52.794  1.00  0.00     0.048 A 
BRANCH  11  15
HETATM   15  O   UNL     1     -38.900  51.379 -51.754  1.00  0.00    -0.357 OA
HETATM   16  H   UNL     1     -39.142  50.432 -51.784  1.00  0.00     0.218 HD
ENDBRANCH  11  15
BRANCH  13  17
HETATM   17  O   UNL     1     -39.843  53.662 -50.816  1.00  0.00    -0.353 OA
HETATM   18  C   UNL     1     -40.628  53.410 -49.656  1.00  0.00     0.210 C 
ENDBRANCH  13  17
ENDBRANCH   7   8
ENDBRANCH   1   7
BRANCH   4  19
HETATM   19  C   UNL     1     -41.935  59.085 -55.158  1.00  0.00     0.127 C 
BRANCH  19  20
HETATM   20  N   UNL     1     -42.469  59.657 -53.923  1.00  0.00    -0.376 N 
HETATM   21  H   UNL     1     -43.246  60.302 -54.011  1.00  0.00     0.161 HD
BRANCH  20  22
HETATM   22  C   UNL     1     -41.754  59.632 -52.740  1.00  0.00     0.100 A 
HETATM   23  N   UNL     1     -42.318  60.175 -51.645  1.00  0.00    -0.353 N 
HETATM   24  H   UNL     1     -43.243  60.583 -51.736  1.00  0.00     0.166 HD
HETATM   25  C   UNL     1     -41.739  60.194 -50.434  1.00  0.00     0.089 A 
HETATM   26  C   UNL     1     -40.488  59.629 -50.251  1.00  0.00     0.017 A 
HETATM   27  C   UNL     1     -39.860  59.045 -51.339  1.00  0.00     0.005 A 
HETATM   28  C   UNL     1     -40.492  59.041 -52.583  1.00  0.00     0.048 A 
ENDBRANCH  20  22
ENDBRANCH  19  20
ENDBRANCH   4  19
TORSDOF 7
ENDMDL
MODEL 5
REMARK VINA RESULT:      -6.8      4.289      7.670
REMARK  7 active torsions:
REMARK  status: ('A' for Active; 'I' for Inactive)
REMARK    1  A    between atoms: O_2  and  C_3 
REMARK    2  A    between atoms: C_4  and  O_5 
REMARK    3  A    between atoms: C_9  and  C_10 
REMARK    4  A    between atoms: C_10  and  N_11 
REMARK    5  A    between atoms: C_14  and  C_15 
REMARK    6  A    between atoms: C_15  and  N_16 
REMARK    7  A    between atoms: N_16  and  C_17 
ROOT
HETATM    1  N   UNL     1     -43.014  57.179 -55.293  1.00  0.00    -0.067 N 
HETATM    2  H   UNL     1     -44.018  57.304 -55.092  1.00  0.00     0.280 HD
HETATM    3  C   UNL     1     -42.515  56.066 -54.390  1.00  0.00     0.241 C 
HETATM    4  C   UNL     1     -41.864  55.059 -55.337  1.00  0.00     0.031 C 
HETATM    5  C   UNL     1     -42.720  55.194 -56.592  1.00  0.00     0.035 C 
HETATM    6  C   UNL     1     -42.898  56.699 -56.722  1.00  0.00     0.235 C 
ENDROOT
BRANCH   1   7
HETATM    7  C   UNL     1     -42.384  58.535 -55.067  1.00  0.00     0.273 C 
BRANCH   7   8
HETATM    8  C   UNL     1     -42.332  58.920 -53.612  1.00  0.00    -0.028 A 
HETATM    9  C   UNL     1     -41.101  58.949 -52.934  1.00  0.00     0.031 A 
HETATM   10  C   UNL     1     -41.039  59.346 -51.596  1.00  0.00     0.047 A 
HETATM   11  C   UNL     1     -42.206  59.709 -50.928  1.00  0.00     0.116 A 
HETATM   12 BR   UNL     1     -39.347  59.384 -50.747  1.00  0.00    -0.048 Br
HETATM   13  C   UNL     1     -43.447  59.668 -51.576  1.00  0.00     0.103 A 
HETATM   14  C   UNL     1     -43.506  59.273 -52.916  1.00  0.00     0.048 A 
BRANCH  11  15
HETATM   15  O   UNL     1     -42.152  60.112 -49.620  1.00  0.00    -0.357 OA
HETATM   16  H   UNL     1     -42.217  59.305 -49.072  1.00  0.00     0.218 HD
ENDBRANCH  11  15
BRANCH  13  17
HETATM   17  O   UNL     1     -44.512  60.051 -50.806  1.00  0.00    -0.353 OA
HETATM   18  C   UNL     1     -45.556  59.105 -50.602  1.00  0.00     0.210 C 
ENDBRANCH  13  17
ENDBRANCH   7   8
ENDBRANCH   1   7
BRANCH   4  19
HETATM   19  C   UNL     1     -41.817  53.648 -54.739  1.00  0.00     0.127 C 
BRANCH  19  20
HETATM   20  N   UNL     1     -40.555  53.413 -54.039  1.00  0.00    -0.376 N 
HETATM   21  H   UNL     1     -39.836  54.121 -54.132  1.00  0.00     0.161 HD
BRANCH  20  22
HETATM   22  C   UNL     1     -40.200  52.157 -53.582  1.00  0.00     0.100 A 
HETATM   23  N   UNL     1     -39.862  52.026 -52.285  1.00  0.00    -0.353 N 
HETATM   24  H   UNL     1     -39.880  52.855 -51.700  1.00  0.00     0.166 HD
HETATM   25  C   UNL     1     -39.520  50.860 -51.713  1.00  0.00     0.089 A 
HETATM   26  C   UNL     1     -39.504  49.696 -52.462  1.00  0.00     0.017 A 
HETATM   27  C   UNL     1     -39.853  49.765 -53.802  1.00  0.00     0.005 A 
HETATM   28  C   UNL     1     -40.205  50.993 -54.363  1.00  0.00     0.048 A 
ENDBRANCH  20  22
ENDBRANCH  19  20
ENDBRANCH   4  19
TORSDOF 7
ENDMDL
MODEL 6
REMARK VINA RESULT:      -6.7      4.504      7.868
REMARK  7 active torsions:
REMARK  status: ('A' for Active; 'I' for Inactive)
REMARK    1  A    between atoms: O_2  and  C_3 
REMARK    2  A    between atoms: C_4  and  O_5 
REMARK    3  A    between atoms: C_9  and  C_10 
REMARK    4  A    between atoms: C_10  and  N_11 
REMARK    5  A    between atoms: C_14  and  C_15 
REMARK    6  A    between atoms: C_15  and  N_16 
REMARK    7  A    between atoms: N_16  and  C_17 
ROOT
HETATM    1  N   UNL     1     -43.901  55.961 -55.174  1.00  0.00    -0.067 N 
HETATM    2  H   UNL     1     -44.622  55.347 -55.583  1.00  0.00     0.280 HD
HETATM    3  C   UNL     1     -43.523  55.367 -53.829  1.00  0.00     0.241 C 
HETATM    4  C   UNL     1     -42.005  55.203 -53.889  1.00  0.00     0.031 C 
HETATM    5  C   UNL     1     -41.770  54.894 -55.364  1.00  0.00     0.035 C 
HETATM    6  C   UNL     1     -42.684  55.883 -56.069  1.00  0.00     0.235 C 
ENDROOT
BRANCH   1   7
HETATM    7  C   UNL     1     -44.521  57.340 -55.128  1.00  0.00     0.273 C 
BRANCH   7   8
HETATM    8  C   UNL     1     -44.019  58.166 -53.974  1.00  0.00    -0.028 A 
HETATM    9  C   UNL     1     -44.877  58.478 -52.905  1.00  0.00     0.031 A 
HETATM   10  C   UNL     1     -44.407  59.208 -51.810  1.00  0.00     0.047 A 
HETATM   11  C   UNL     1     -43.081  59.635 -51.781  1.00  0.00     0.116 A 
HETATM   12 BR   UNL     1     -45.608  59.577 -50.394  1.00  0.00    -0.048 Br
HETATM   13  C   UNL     1     -42.214  59.354 -52.844  1.00  0.00     0.103 A 
HETATM   14  C   UNL     1     -42.686  58.621 -53.937  1.00  0.00     0.048 A 
BRANCH  11  15
HETATM   15  O   UNL     1     -42.610  60.340 -50.705  1.00  0.00    -0.357 OA
HETATM   16  H   UNL     1     -43.387  60.739 -50.266  1.00  0.00     0.218 HD
ENDBRANCH  11  15
BRANCH  13  17
HETATM   17  O   UNL     1     -40.939  59.829 -52.687  1.00  0.00    -0.353 OA
HETATM   18  C   UNL     1     -39.868  58.900 -52.801  1.00  0.00     0.210 C 
ENDBRANCH  13  17
ENDBRANCH   7   8
ENDBRANCH   1   7
BRANCH   4  19
HETATM   19  C   UNL     1     -41.500  54.129 -52.919  1.00  0.00     0.127 C 
BRANCH  19  20
HETATM   20  N   UNL     1     -40.297  53.476 -53.433  1.00  0.00    -0.376 N 
HETATM   21  H   UNL     1     -39.793  53.951 -54.173  1.00  0.00     0.161 HD
BRANCH  20  22
HETATM   22  C   UNL     1     -40.045  52.135 -53.210  1.00  0.00     0.100 A 
HETATM   23  N   UNL     1     -39.769  51.742 -51.951  1.00  0.00    -0.353 N 
HETATM   24  H   UNL     1     -39.755  52.447 -51.223  1.00  0.00     0.166 HD
HETATM   25  C   UNL     1     -39.529  50.469 -51.599  1.00  0.00     0.089 A 
HETATM   26  C   UNL     1     -39.561  49.465 -52.552  1.00  0.00     0.017 A 
HETATM   27  C   UNL     1     -39.850  49.805 -53.864  1.00  0.00     0.005 A 
HETATM   28  C   UNL     1     -40.096  51.139 -54.194  1.00  0.00     0.048 A 
ENDBRANCH  20  22
ENDBRANCH  19  20
ENDBRANCH   4  19
TORSDOF 7
ENDMDL
MODEL 7
REMARK VINA RESULT:      -6.7      4.683      8.652
REMARK  7 active torsions:
REMARK  status: ('A' for Active; 'I' for Inactive)
REMARK    1  A    between atoms: O_2  and  C_3 
REMARK    2  A    between atoms: C_4  and  O_5 
REMARK    3  A    between atoms: C_9  and  C_10 
REMARK    4  A    between atoms: C_10  and  N_11 
REMARK    5  A    between atoms: C_14  and  C_15 
REMARK    6  A    between atoms: C_15  and  N_16 
REMARK    7  A    between atoms: N_16  and  C_17 
ROOT
HETATM    1  N   UNL     1     -42.700  56.948 -54.259  1.00  0.00    -0.067 N 
HETATM    2  H   UNL     1     -42.893  57.143 -53.264  1.00  0.00     0.280 HD
HETATM    3  C   UNL     1     -41.278  56.422 -54.341  1.00  0.00     0.241 C 
HETATM    4  C   UNL     1     -41.399  55.089 -55.079  1.00  0.00     0.031 C 
HETATM    5  C   UNL     1     -42.762  54.586 -54.617  1.00  0.00     0.035 C 
HETATM    6  C   UNL     1     -43.628  55.833 -54.688  1.00  0.00     0.235 C 
ENDROOT
BRANCH   1   7
HETATM    7  C   UNL     1     -42.957  58.250 -54.984  1.00  0.00     0.273 C 
BRANCH   7   8
HETATM    8  C   UNL     1     -43.608  58.052 -56.328  1.00  0.00    -0.028 A 
HETATM    9  C   UNL     1     -44.965  58.367 -56.505  1.00  0.00     0.031 A 
HETATM   10  C   UNL     1     -45.566  58.227 -57.759  1.00  0.00     0.047 A 
HETATM   11  C   UNL     1     -44.815  57.765 -58.838  1.00  0.00     0.116 A 
HETATM   12 BR   UNL     1     -47.394  58.688 -57.937  1.00  0.00    -0.048 Br
HETATM   13  C   UNL     1     -43.466  57.425 -58.679  1.00  0.00     0.103 A 
HETATM   14  C   UNL     1     -42.867  57.570 -57.425  1.00  0.00     0.048 A 
BRANCH  11  15
HETATM   15  O   UNL     1     -45.393  57.637 -60.073  1.00  0.00    -0.357 OA
HETATM   16  H   UNL     1     -45.756  58.514 -60.308  1.00  0.00     0.218 HD
ENDBRANCH  11  15
BRANCH  13  17
HETATM   17  O   UNL     1     -42.845  56.988 -59.819  1.00  0.00    -0.353 OA
HETATM   18  C   UNL     1     -41.738  57.741 -60.301  1.00  0.00     0.210 C 
ENDBRANCH  13  17
ENDBRANCH   7   8
ENDBRANCH   1   7
BRANCH   4  19
HETATM   19  C   UNL     1     -40.228  54.149 -54.771  1.00  0.00     0.127 C 
BRANCH  19  20
HETATM   20  N   UNL     1     -40.404  53.492 -53.477  1.00  0.00    -0.376 N 
HETATM   21  H   UNL     1     -40.478  54.089 -52.662  1.00  0.00     0.161 HD
BRANCH  20  22
HETATM   22  C   UNL     1     -40.123  52.150 -53.298  1.00  0.00     0.100 A 
HETATM   23  N   UNL     1     -39.727  51.742 -52.077  1.00  0.00    -0.353 N 
HETATM   24  H   UNL     1     -39.649  52.437 -51.342  1.00  0.00     0.166 HD
HETATM   25  C   UNL     1     -39.446  50.466 -51.768  1.00  0.00     0.089 A 
HETATM   26  C   UNL     1     -39.560  49.476 -52.728  1.00  0.00     0.017 A 
HETATM   27  C   UNL     1     -39.973  49.831 -54.002  1.00  0.00     0.005 A 
HETATM   28  C   UNL     1     -40.260  51.167 -54.288  1.00  0.00     0.048 A 
ENDBRANCH  20  22
ENDBRANCH  19  20
ENDBRANCH   4  19
TORSDOF 7
ENDMDL
MODEL 8
REMARK VINA RESULT:      -6.6      4.928      8.626
REMARK  7 active torsions:
REMARK  status: ('A' for Active; 'I' for Inactive)
REMARK    1  A    between atoms: O_2  and  C_3 
REMARK    2  A    between atoms: C_4  and  O_5 
REMARK    3  A    between atoms: C_9  and  C_10 
REMARK    4  A    between atoms: C_10  and  N_11 
REMARK    5  A    between atoms: C_14  and  C_15 
REMARK    6  A    between atoms: C_15  and  N_16 
REMARK    7  A    between atoms: N_16  and  C_17 
ROOT
HETATM    1  N   UNL     1     -41.820  57.958 -54.905  1.00  0.00    -0.067 N 
HETATM    2  H   UNL     1     -41.084  57.685 -55.574  1.00  0.00     0.280 HD
HETATM    3  C   UNL     1     -42.466  56.678 -54.409  1.00  0.00     0.241 C 
HETATM    4  C   UNL     1     -42.371  56.759 -52.886  1.00  0.00     0.031 C 
HETATM    5  C   UNL     1     -41.060  57.513 -52.683  1.00  0.00     0.035 C 
HETATM    6  C   UNL     1     -41.137  58.616 -53.727  1.00  0.00     0.235 C 
ENDROOT
BRANCH   1   7
HETATM    7  C   UNL     1     -42.731  58.896 -55.666  1.00  0.00     0.273 C 
BRANCH   7   8
HETATM    8  C   UNL     1     -42.476  58.882 -57.150  1.00  0.00    -0.028 A 
HETATM    9  C   UNL     1     -42.117  60.067 -57.814  1.00  0.00     0.031 A 
HETATM   10  C   UNL     1     -41.836  60.054 -59.183  1.00  0.00     0.047 A 
HETATM   11  C   UNL     1     -41.919  58.859 -59.894  1.00  0.00     0.116 A 
HETATM   12 BR   UNL     1     -41.338  61.680 -60.014  1.00  0.00    -0.048 Br
HETATM   13  C   UNL     1     -42.295  57.670 -59.257  1.00  0.00     0.103 A 
HETATM   14  C   UNL     1     -42.572  57.685 -57.887  1.00  0.00     0.048 A 
BRANCH  11  15
HETATM   15  O   UNL     1     -41.633  58.836 -61.234  1.00  0.00    -0.357 OA
HETATM   16  H   UNL     1     -41.278  59.717 -61.463  1.00  0.00     0.218 HD
ENDBRANCH  11  15
BRANCH  13  17
HETATM   17  O   UNL     1     -42.335  56.569 -60.071  1.00  0.00    -0.353 OA
HETATM   18  C   UNL     1     -43.319  55.578 -59.796  1.00  0.00     0.210 C 
ENDBRANCH  13  17
ENDBRANCH   7   8
ENDBRANCH   1   7
BRANCH   4  19
HETATM   19  C   UNL     1     -42.425  55.376 -52.227  1.00  0.00     0.127 C 
BRANCH  19  20
HETATM   20  N   UNL     1     -41.082  54.868 -51.951  1.00  0.00    -0.376 N 
HETATM   21  H   UNL     1     -40.415  55.520 -51.555  1.00  0.00     0.161 HD
BRANCH  20  22
HETATM   22  C   UNL     1     -40.615  53.698 -52.520  1.00  0.00     0.100 A 
HETATM   23  N   UNL     1     -39.936  52.839 -51.736  1.00  0.00    -0.353 N 
HETATM   24  H   UNL     1     -39.793  53.089 -50.764  1.00  0.00     0.166 HD
HETATM   25  C   UNL     1     -39.450  51.661 -52.161  1.00  0.00     0.089 A 
HETATM   26  C   UNL     1     -39.640  51.262 -53.473  1.00  0.00     0.017 A 
HETATM   27  C   UNL     1     -40.341  52.099 -54.326  1.00  0.00     0.005 A 
HETATM   28  C   UNL     1     -40.834  53.315 -53.851  1.00  0.00     0.048 A 
ENDBRANCH  20  22
ENDBRANCH  19  20
ENDBRANCH   4  19
TORSDOF 7
ENDMDL
MODEL 9
REMARK VINA RESULT:      -6.6      5.634      8.786
REMARK  7 active torsions:
REMARK  status: ('A' for Active; 'I' for Inactive)
REMARK    1  A    between atoms: O_2  and  C_3 
REMARK    2  A    between atoms: C_4  and  O_5 
REMARK    3  A    between atoms: C_9  and  C_10 
REMARK    4  A    between atoms: C_10  and  N_11 
REMARK    5  A    between atoms: C_14  and  C_15 
REMARK    6  A    between atoms: C_15  and  N_16 
REMARK    7  A    between atoms: N_16  and  C_17 
ROOT
HETATM    1  N   UNL     1     -41.717  57.080 -51.180  1.00  0.00    -0.067 N 
HETATM    2  H   UNL     1     -42.466  57.426 -50.561  1.00  0.00     0.280 HD
HETATM    3  C   UNL     1     -40.957  56.017 -50.408  1.00  0.00     0.241 C 
HETATM    4  C   UNL     1     -40.979  54.787 -51.316  1.00  0.00     0.031 C 
HETATM    5  C   UNL     1     -42.327  54.925 -52.016  1.00  0.00     0.035 C 
HETATM    6  C   UNL     1     -42.383  56.406 -52.359  1.00  0.00     0.235 C 
ENDROOT
BRANCH   1   7
HETATM    7  C   UNL     1     -40.915  58.303 -51.568  1.00  0.00     0.273 C 
BRANCH   7   8
HETATM    8  C   UNL     1     -41.660  59.218 -52.504  1.00  0.00    -0.028 A 
HETATM    9  C   UNL     1     -42.689  60.040 -52.013  1.00  0.00     0.031 A 
HETATM   10  C   UNL     1     -43.356  60.923 -52.867  1.00  0.00     0.047 A 
HETATM   11  C   UNL     1     -43.003  60.983 -54.213  1.00  0.00     0.116 A 
HETATM   12 BR   UNL     1     -44.718  62.019 -52.140  1.00  0.00    -0.048 Br
HETATM   13  C   UNL     1     -41.996  60.158 -54.728  1.00  0.00     0.103 A 
HETATM   14  C   UNL     1     -41.328  59.278 -53.871  1.00  0.00     0.048 A 
BRANCH  11  15
HETATM   15  O   UNL     1     -43.644  61.855 -55.053  1.00  0.00    -0.357 OA
HETATM   16  H   UNL     1     -44.028  61.321 -55.776  1.00  0.00     0.218 HD
ENDBRANCH  11  15
BRANCH  13  17
HETATM   17  O   UNL     1     -41.747  60.319 -56.065  1.00  0.00    -0.353 OA
HETATM   18  C   UNL     1     -42.221  59.313 -56.952  1.00  0.00     0.210 C 
ENDBRANCH  13  17
ENDBRANCH   7   8
ENDBRANCH   1   7
BRANCH   4  19
HETATM   19  C   UNL     1     -40.793  53.484 -50.530  1.00  0.00     0.127 C 
BRANCH  19  20
HETATM   20  N   UNL     1     -39.635  52.735 -51.016  1.00  0.00    -0.376 N 
HETATM   21  H   UNL     1     -38.719  53.080 -50.755  1.00  0.00     0.161 HD
BRANCH  20  22
HETATM   22  C   UNL     1     -39.737  51.835 -52.061  1.00  0.00     0.100 A 
HETATM   23  N   UNL     1     -39.535  50.530 -51.796  1.00  0.00    -0.353 N 
HETATM   24  H   UNL     1     -39.314  50.264 -50.843  1.00  0.00     0.166 HD
HETATM   25  C   UNL     1     -39.626  49.556 -52.717  1.00  0.00     0.089 A 
HETATM   26  C   UNL     1     -39.950  49.864 -54.027  1.00  0.00     0.017 A 
HETATM   27  C   UNL     1     -40.180  51.190 -54.359  1.00  0.00     0.005 A 
HETATM   28  C   UNL     1     -40.079  52.176 -53.377  1.00  0.00     0.048 A 
ENDBRANCH  20  22
ENDBRANCH  19  20
ENDBRANCH   4  19
TORSDOF 7
ENDMDL
MODEL 10
REMARK VINA RESULT:      -6.5     14.698     16.453
REMARK  7 active torsions:
REMARK  status: ('A' for Active; 'I' for Inactive)
REMARK    1  A    between atoms: O_2  and  C_3 
REMARK    2  A    between atoms: C_4  and  O_5 
REMARK    3  A    between atoms: C_9  and  C_10 
REMARK    4  A    between atoms: C_10  and  N_11 
REMARK    5  A    between atoms: C_14  and  C_15 
REMARK    6  A    between atoms: C_15  and  N_16 
REMARK    7  A    between atoms: N_16  and  C_17 
ROOT
HETATM    1  N   UNL     1     -37.980  39.499 -50.373  1.00  0.00    -0.067 N 
HETATM    2  H   UNL     1     -38.639  40.050 -49.802  1.00  0.00     0.280 HD
HETATM    3  C   UNL     1     -37.686  40.312 -51.620  1.00  0.00     0.241 C 
HETATM    4  C   UNL     1     -36.163  40.420 -51.664  1.00  0.00     0.031 C 
HETATM    5  C   UNL     1     -35.798  40.455 -50.184  1.00  0.00     0.035 C 
HETATM    6  C   UNL     1     -36.693  39.382 -49.587  1.00  0.00     0.235 C 
ENDROOT
BRANCH   1   7
HETATM    7  C   UNL     1     -38.660  38.168 -50.606  1.00  0.00     0.273 C 
BRANCH   7   8
HETATM    8  C   UNL     1     -40.110  38.174 -50.201  1.00  0.00    -0.028 A 
HETATM    9  C   UNL     1     -41.096  37.747 -51.106  1.00  0.00     0.031 A 
HETATM   10  C   UNL     1     -42.439  37.708 -50.722  1.00  0.00     0.047 A 
HETATM   11  C   UNL     1     -42.804  38.103 -49.437  1.00  0.00     0.116 A 
HETATM   12 BR   UNL     1     -43.717  37.102 -51.982  1.00  0.00    -0.048 Br
HETATM   13  C   UNL     1     -41.841  38.553 -48.525  1.00  0.00     0.103 A 
HETATM   14  C   UNL     1     -40.497  38.587 -48.910  1.00  0.00     0.048 A 
BRANCH  11  15
HETATM   15  O   UNL     1     -44.117  38.056 -49.050  1.00  0.00    -0.357 OA
HETATM   16  H   UNL     1     -44.643  37.886 -49.856  1.00  0.00     0.218 HD
ENDBRANCH  11  15
BRANCH  13  17
HETATM   17  O   UNL     1     -42.332  38.908 -47.298  1.00  0.00    -0.353 OA
HETATM   18  C   UNL     1     -41.471  39.628 -46.423  1.00  0.00     0.210 C 
ENDBRANCH  13  17
ENDBRANCH   7   8
ENDBRANCH   1   7
BRANCH   4  19
HETATM   19  C   UNL     1     -35.691  41.635 -52.472  1.00  0.00     0.127 C 
BRANCH  19  20
HETATM   20  N   UNL     1     -36.712  42.063 -53.427  1.00  0.00    -0.376 N 
HETATM   21  H   UNL     1     -37.668  42.106 -53.093  1.00  0.00     0.161 HD
BRANCH  20  22
HETATM   22  C   UNL     1     -36.481  42.059 -54.790  1.00  0.00     0.100 A 
HETATM   23  N   UNL     1     -37.539  41.926 -55.613  1.00  0.00    -0.353 N 
HETATM   24  H   UNL     1     -38.459  41.833 -55.197  1.00  0.00     0.166 HD
HETATM   25  C   UNL     1     -37.452  41.930 -56.953  1.00  0.00     0.089 A 
HETATM   26  C   UNL     1     -36.222  42.079 -57.570  1.00  0.00     0.017 A 
HETATM   27  C   UNL     1     -35.096  42.230 -56.776  1.00  0.00     0.005 A 
HETATM   28  C   UNL     1     -35.224  42.225 -55.387  1.00  0.00     0.048 A 
ENDBRANCH  20  22
ENDBRANCH  19  20
ENDBRANCH   4  19
TORSDOF 7
ENDMDL
