MODEL 1
REMARK VINA RESULT:      -8.7      0.000      0.000
REMARK  8 active torsions:
REMARK  status: ('A' for Active; 'I' for Inactive)
REMARK    1  A    between atoms: C_7  and  S_8 
REMARK    2  A    between atoms: S_8  and  N_9 
REMARK    3  A    between atoms: N_9  and  C_10 
REMARK    4  A    between atoms: C_19  and  N_20 
REMARK    5  A    between atoms: C_25  and  N_26 
REMARK    6  A    between atoms: C_30  and  S_31 
REMARK    7  A    between atoms: S_31  and  N_32 
REMARK    8  A    between atoms: N_32  and  C_33 
ROOT
HETATM    1  C   UNL     1     -42.277  54.907 -52.138  1.00  0.00     0.041 A 
HETATM    2  C   UNL     1     -42.729  55.941 -52.940  1.00  0.00     0.030 A 
HETATM    3  C   UNL     1     -42.426  57.308 -52.761  1.00  0.00     0.025 A 
HETATM    4  C   UNL     1     -43.138  58.073 -53.799  1.00  0.00     0.025 C 
HETATM    5  C   UNL     1     -43.681  57.156 -54.724  1.00  0.00     0.030 C 
HETATM    6  C   UNL     1     -44.341  57.496 -55.894  1.00  0.00     0.041 C 
HETATM    7  C   UNL     1     -44.513  58.854 -56.147  1.00  0.00     0.077 C 
HETATM    8  C   UNL     1     -44.127  59.812 -55.196  1.00  0.00     0.061 C 
HETATM    9  C   UNL     1     -43.453  59.415 -54.021  1.00  0.00     0.116 C 
HETATM   10  C   UNL     1     -43.482  55.799 -54.196  1.00  0.00     0.194 C 
HETATM   11  O   UNL     1     -43.846  54.762 -54.706  1.00  0.00    -0.287 OA
HETATM   12  C   UNL     1     -41.485  57.596 -51.770  1.00  0.00     0.116 A 
HETATM   13  C   UNL     1     -40.993  56.577 -50.923  1.00  0.00     0.062 A 
HETATM   14  C   UNL     1     -41.398  55.246 -51.115  1.00  0.00     0.082 A 
ENDROOT
BRANCH   7  15
HETATM   15  S   UNL     1     -45.334  59.366 -57.639  1.00  0.00     0.241 S 
HETATM   16  O   UNL     1     -46.673  59.766 -57.270  1.00  0.00    -0.206 OA
HETATM   17  O   UNL     1     -44.446  60.238 -58.370  1.00  0.00    -0.206 OA
BRANCH  15  18
HETATM   18  N   UNL     1     -45.495  57.896 -58.453  1.00  0.00    -0.211 NA
HETATM   19  H   UNL     1     -46.489  57.659 -58.495  1.00  0.00     0.140 HD
BRANCH  18  20
HETATM   20  C   UNL     1     -44.760  57.686 -59.728  1.00  0.00     0.071 C 
HETATM   21  C   UNL     1     -43.370  57.085 -59.500  1.00  0.00     0.020 C 
HETATM   22  C   UNL     1     -43.423  55.657 -58.960  1.00  0.00     0.002 C 
HETATM   23  C   UNL     1     -44.248  54.752 -59.867  1.00  0.00     0.000 C 
HETATM   24  C   UNL     1     -45.643  55.317 -60.108  1.00  0.00     0.002 C 
HETATM   25  C   UNL     1     -45.594  56.755 -60.625  1.00  0.00     0.020 C 
ENDBRANCH  18  20
ENDBRANCH  15  18
ENDBRANCH   7  15
BRANCH   9  26
HETATM   26  N   UNL     1     -43.273  60.431 -52.993  1.00  0.00    -0.115 N 
HETATM   27  O   UNL     1     -43.938  60.297 -51.957  1.00  0.00    -0.532 OA
HETATM   28  O   UNL     1     -42.512  61.372 -53.246  1.00  0.00    -0.532 OA
ENDBRANCH   9  26
BRANCH  12  29
HETATM   29  N   UNL     1     -40.795  58.878 -51.712  1.00  0.00    -0.115 N 
HETATM   30  O   UNL     1     -40.059  59.155 -52.669  1.00  0.00    -0.532 OA
HETATM   31  O   UNL     1     -40.936  59.561 -50.691  1.00  0.00    -0.532 OA
ENDBRANCH  12  29
BRANCH  14  32
HETATM   32  S   UNL     1     -40.713  53.977 -50.079  1.00  0.00     0.259 S 
HETATM   33  O   UNL     1     -39.339  54.350 -49.829  1.00  0.00    -0.201 OA
HETATM   34  O   UNL     1     -41.643  53.697 -49.011  1.00  0.00    -0.201 OA
BRANCH  32  35
HETATM   35  N   UNL     1     -40.659  52.656 -51.125  1.00  0.00    -0.311 N 
HETATM   36  H   UNL     1     -41.553  52.577 -51.615  1.00  0.00     0.172 HD
BRANCH  35  37
HETATM   37  C   UNL     1     -39.449  52.416 -51.948  1.00  0.00     0.093 C 
HETATM   38  C   UNL     1     -38.971  50.965 -51.848  1.00  0.00     0.026 C 
HETATM   39  C   UNL     1     -39.955  49.974 -52.469  1.00  0.00     0.002 C 
HETATM   40  C   UNL     1     -40.262  50.333 -53.920  1.00  0.00     0.000 C 
HETATM   41  C   UNL     1     -40.742  51.775 -54.058  1.00  0.00     0.002 C 
HETATM   42  C   UNL     1     -39.771  52.763 -53.412  1.00  0.00     0.026 C 
ENDBRANCH  35  37
ENDBRANCH  32  35
ENDBRANCH  14  32
TORSDOF 8
ENDMDL
MODEL 2
REMARK VINA RESULT:      -8.6      0.334      7.909
REMARK  8 active torsions:
REMARK  status: ('A' for Active; 'I' for Inactive)
REMARK    1  A    between atoms: C_7  and  S_8 
REMARK    2  A    between atoms: S_8  and  N_9 
REMARK    3  A    between atoms: N_9  and  C_10 
REMARK    4  A    between atoms: C_19  and  N_20 
REMARK    5  A    between atoms: C_25  and  N_26 
REMARK    6  A    between atoms: C_30  and  S_31 
REMARK    7  A    between atoms: S_31  and  N_32 
REMARK    8  A    between atoms: N_32  and  C_33 
ROOT
HETATM    1  C   UNL     1     -44.178  57.310 -56.183  1.00  0.00     0.041 A 
HETATM    2  C   UNL     1     -43.475  56.993 -55.033  1.00  0.00     0.030 A 
HETATM    3  C   UNL     1     -42.961  57.924 -54.105  1.00  0.00     0.025 A 
HETATM    4  C   UNL     1     -42.248  57.175 -53.055  1.00  0.00     0.025 C 
HETATM    5  C   UNL     1     -42.521  55.802 -53.234  1.00  0.00     0.030 C 
HETATM    6  C   UNL     1     -42.106  54.787 -52.387  1.00  0.00     0.041 C 
HETATM    7  C   UNL     1     -41.321  55.158 -51.299  1.00  0.00     0.077 C 
HETATM    8  C   UNL     1     -40.891  56.487 -51.148  1.00  0.00     0.061 C 
HETATM    9  C   UNL     1     -41.347  57.486 -52.036  1.00  0.00     0.116 C 
HETATM   10  C   UNL     1     -43.257  55.641 -54.496  1.00  0.00     0.194 C 
HETATM   11  O   UNL     1     -43.633  54.599 -54.987  1.00  0.00    -0.287 OA
HETATM   12  C   UNL     1     -43.324  59.256 -54.317  1.00  0.00     0.116 A 
HETATM   13  C   UNL     1     -44.040  59.633 -55.475  1.00  0.00     0.062 A 
HETATM   14  C   UNL     1     -44.455  58.656 -56.396  1.00  0.00     0.082 A 
ENDROOT
BRANCH   7  15
HETATM   15  S   UNL     1     -40.767  53.912 -50.158  1.00  0.00     0.241 S 
HETATM   16  O   UNL     1     -39.394  54.221 -49.826  1.00  0.00    -0.206 OA
HETATM   17  O   UNL     1     -41.782  53.738 -49.147  1.00  0.00    -0.206 OA
BRANCH  15  18
HETATM   18  N   UNL     1     -40.709  52.550 -51.153  1.00  0.00    -0.211 NA
HETATM   19  H   UNL     1     -41.508  52.584 -51.791  1.00  0.00     0.140 HD
BRANCH  18  20
HETATM   20  C   UNL     1     -39.424  52.175 -51.800  1.00  0.00     0.071 C 
HETATM   21  C   UNL     1     -39.092  50.693 -51.606  1.00  0.00     0.020 C 
HETATM   22  C   UNL     1     -40.062  49.767 -52.336  1.00  0.00     0.002 C 
HETATM   23  C   UNL     1     -40.135  50.102 -53.821  1.00  0.00     0.000 C 
HETATM   24  C   UNL     1     -40.474  51.570 -54.052  1.00  0.00     0.002 C 
HETATM   25  C   UNL     1     -39.520  52.500 -53.301  1.00  0.00     0.020 C 
ENDBRANCH  18  20
ENDBRANCH  15  18
ENDBRANCH   7  15
BRANCH   9  26
HETATM   26  N   UNL     1     -40.700  58.787 -51.945  1.00  0.00    -0.115 N 
HETATM   27  O   UNL     1     -40.964  59.471 -50.948  1.00  0.00    -0.532 OA
HETATM   28  O   UNL     1     -39.976  59.132 -52.886  1.00  0.00    -0.532 OA
ENDBRANCH   9  26
BRANCH  12  29
HETATM   29  N   UNL     1     -43.200  60.264 -53.273  1.00  0.00    -0.115 N 
HETATM   30  O   UNL     1     -43.909  60.111 -52.269  1.00  0.00    -0.532 OA
HETATM   31  O   UNL     1     -42.457  61.227 -53.489  1.00  0.00    -0.532 OA
ENDBRANCH  12  29
BRANCH  14  32
HETATM   32  S   UNL     1     -45.410  59.152 -57.808  1.00  0.00     0.259 S 
HETATM   33  O   UNL     1     -46.713  59.529 -57.310  1.00  0.00    -0.201 OA
HETATM   34  O   UNL     1     -44.610  60.036 -58.623  1.00  0.00    -0.201 OA
BRANCH  32  35
HETATM   35  N   UNL     1     -45.623  57.691 -58.622  1.00  0.00    -0.311 N 
HETATM   36  H   UNL     1     -46.576  57.354 -58.468  1.00  0.00     0.172 HD
BRANCH  35  37
HETATM   37  C   UNL     1     -45.095  57.530 -59.999  1.00  0.00     0.093 C 
HETATM   38  C   UNL     1     -43.616  57.133 -60.001  1.00  0.00     0.026 C 
HETATM   39  C   UNL     1     -43.379  55.738 -59.424  1.00  0.00     0.002 C 
HETATM   40  C   UNL     1     -44.211  54.688 -60.155  1.00  0.00     0.000 C 
HETATM   41  C   UNL     1     -45.692  55.050 -60.173  1.00  0.00     0.002 C 
HETATM   42  C   UNL     1     -45.927  56.458 -60.723  1.00  0.00     0.026 C 
ENDBRANCH  35  37
ENDBRANCH  32  35
ENDBRANCH  14  32
TORSDOF 8
ENDMDL
MODEL 3
REMARK VINA RESULT:      -8.6      1.896      8.506
REMARK  8 active torsions:
REMARK  status: ('A' for Active; 'I' for Inactive)
REMARK    1  A    between atoms: C_7  and  S_8 
REMARK    2  A    between atoms: S_8  and  N_9 
REMARK    3  A    between atoms: N_9  and  C_10 
REMARK    4  A    between atoms: C_19  and  N_20 
REMARK    5  A    between atoms: C_25  and  N_26 
REMARK    6  A    between atoms: C_30  and  S_31 
REMARK    7  A    between atoms: S_31  and  N_32 
REMARK    8  A    between atoms: N_32  and  C_33 
ROOT
HETATM    1  C   UNL     1     -43.213  57.709 -58.330  1.00  0.00     0.041 A 
HETATM    2  C   UNL     1     -43.006  57.389 -56.999  1.00  0.00     0.030 A 
HETATM    3  C   UNL     1     -42.956  58.315 -55.934  1.00  0.00     0.025 A 
HETATM    4  C   UNL     1     -42.675  57.568 -54.695  1.00  0.00     0.025 C 
HETATM    5  C   UNL     1     -42.777  56.190 -54.981  1.00  0.00     0.030 C 
HETATM    6  C   UNL     1     -42.675  55.169 -54.049  1.00  0.00     0.041 C 
HETATM    7  C   UNL     1     -42.407  55.543 -52.735  1.00  0.00     0.077 C 
HETATM    8  C   UNL     1     -42.149  56.885 -52.412  1.00  0.00     0.061 C 
HETATM    9  C   UNL     1     -42.272  57.889 -53.398  1.00  0.00     0.116 C 
HETATM   10  C   UNL     1     -42.942  56.033 -56.433  1.00  0.00     0.194 C 
HETATM   11  O   UNL     1     -43.033  54.991 -57.043  1.00  0.00    -0.287 OA
HETATM   12  C   UNL     1     -43.279  59.634 -56.259  1.00  0.00     0.116 A 
HETATM   13  C   UNL     1     -43.499  60.013 -57.603  1.00  0.00     0.062 A 
HETATM   14  C   UNL     1     -43.458  59.047 -58.623  1.00  0.00     0.082 A 
ENDROOT
BRANCH   7  15
HETATM   15  S   UNL     1     -42.281  54.289 -51.480  1.00  0.00     0.241 S 
HETATM   16  O   UNL     1     -41.231  54.699 -50.576  1.00  0.00    -0.206 OA
HETATM   17  O   UNL     1     -43.612  53.972 -51.020  1.00  0.00    -0.206 OA
BRANCH  15  18
HETATM   18  N   UNL     1     -41.655  52.994 -52.364  1.00  0.00    -0.211 NA
HETATM   19  H   UNL     1     -42.276  52.818 -53.158  1.00  0.00     0.140 HD
BRANCH  18  20
HETATM   20  C   UNL     1     -40.208  52.975 -52.701  1.00  0.00     0.071 C 
HETATM   21  C   UNL     1     -39.413  52.047 -51.780  1.00  0.00     0.020 C 
HETATM   22  C   UNL     1     -39.772  50.574 -51.969  1.00  0.00     0.002 C 
HETATM   23  C   UNL     1     -39.604  50.146 -53.423  1.00  0.00     0.000 C 
HETATM   24  C   UNL     1     -40.391  51.046 -54.369  1.00  0.00     0.002 C 
HETATM   25  C   UNL     1     -40.053  52.523 -54.164  1.00  0.00     0.020 C 
ENDBRANCH  18  20
ENDBRANCH  15  18
ENDBRANCH   7  15
BRANCH   9  26
HETATM   26  N   UNL     1     -41.789  59.216 -53.045  1.00  0.00    -0.115 N 
HETATM   27  O   UNL     1     -40.738  59.587 -53.584  1.00  0.00    -0.532 OA
HETATM   28  O   UNL     1     -42.431  59.854 -52.202  1.00  0.00    -0.532 OA
ENDBRANCH   9  26
BRANCH  12  29
HETATM   29  N   UNL     1     -43.637  60.613 -55.242  1.00  0.00    -0.115 N 
HETATM   30  O   UNL     1     -44.675  60.393 -54.603  1.00  0.00    -0.532 OA
HETATM   31  O   UNL     1     -42.926  61.618 -55.136  1.00  0.00    -0.532 OA
ENDBRANCH  12  29
BRANCH  14  32
HETATM   32  S   UNL     1     -43.802  59.541 -60.293  1.00  0.00     0.259 S 
HETATM   33  O   UNL     1     -44.404  60.852 -60.217  1.00  0.00    -0.201 OA
HETATM   34  O   UNL     1     -42.640  59.270 -61.106  1.00  0.00    -0.201 OA
BRANCH  32  35
HETATM   35  N   UNL     1     -45.040  58.480 -60.727  1.00  0.00    -0.311 N 
HETATM   36  H   UNL     1     -44.634  57.582 -60.999  1.00  0.00     0.172 HD
BRANCH  35  37
HETATM   37  C   UNL     1     -46.273  58.410 -59.907  1.00  0.00     0.093 C 
HETATM   38  C   UNL     1     -47.462  59.075 -60.607  1.00  0.00     0.026 C 
HETATM   39  C   UNL     1     -47.898  58.329 -61.867  1.00  0.00     0.002 C 
HETATM   40  C   UNL     1     -48.211  56.867 -61.564  1.00  0.00     0.000 C 
HETATM   41  C   UNL     1     -47.047  56.171 -60.866  1.00  0.00     0.002 C 
HETATM   42  C   UNL     1     -46.592  56.933 -59.621  1.00  0.00     0.026 C 
ENDBRANCH  35  37
ENDBRANCH  32  35
ENDBRANCH  14  32
TORSDOF 8
ENDMDL
MODEL 4
REMARK VINA RESULT:      -8.6      1.812      2.374
REMARK  8 active torsions:
REMARK  status: ('A' for Active; 'I' for Inactive)
REMARK    1  A    between atoms: C_7  and  S_8 
REMARK    2  A    between atoms: S_8  and  N_9 
REMARK    3  A    between atoms: N_9  and  C_10 
REMARK    4  A    between atoms: C_19  and  N_20 
REMARK    5  A    between atoms: C_25  and  N_26 
REMARK    6  A    between atoms: C_30  and  S_31 
REMARK    7  A    between atoms: S_31  and  N_32 
REMARK    8  A    between atoms: N_32  and  C_33 
ROOT
HETATM    1  C   UNL     1     -42.465  55.113 -53.782  1.00  0.00     0.041 A 
HETATM    2  C   UNL     1     -42.655  56.096 -54.738  1.00  0.00     0.030 A 
HETATM    3  C   UNL     1     -42.570  57.487 -54.508  1.00  0.00     0.025 A 
HETATM    4  C   UNL     1     -42.879  58.177 -55.773  1.00  0.00     0.025 C 
HETATM    5  C   UNL     1     -42.927  57.209 -56.800  1.00  0.00     0.030 C 
HETATM    6  C   UNL     1     -43.098  57.480 -58.148  1.00  0.00     0.041 C 
HETATM    7  C   UNL     1     -43.276  58.815 -58.502  1.00  0.00     0.077 C 
HETATM    8  C   UNL     1     -43.386  59.808 -57.515  1.00  0.00     0.061 C 
HETATM    9  C   UNL     1     -43.199  59.480 -56.155  1.00  0.00     0.116 C 
HETATM   10  C   UNL     1     -42.833  55.879 -56.181  1.00  0.00     0.194 C 
HETATM   11  O   UNL     1     -42.871  54.811 -56.752  1.00  0.00    -0.287 OA
HETATM   12  C   UNL     1     -42.128  57.867 -53.240  1.00  0.00     0.116 A 
HETATM   13  C   UNL     1     -41.922  56.903 -52.228  1.00  0.00     0.062 A 
HETATM   14  C   UNL     1     -42.098  55.538 -52.509  1.00  0.00     0.082 A 
ENDROOT
BRANCH   7  15
HETATM   15  S   UNL     1     -43.482  59.241 -60.217  1.00  0.00     0.241 S 
HETATM   16  O   UNL     1     -43.968  60.602 -60.259  1.00  0.00    -0.206 OA
HETATM   17  O   UNL     1     -42.300  58.825 -60.933  1.00  0.00    -0.206 OA
BRANCH  15  18
HETATM   18  N   UNL     1     -44.789  58.265 -60.649  1.00  0.00    -0.211 NA
HETATM   19  H   UNL     1     -44.435  57.329 -60.861  1.00  0.00     0.140 HD
BRANCH  18  20
HETATM   20  C   UNL     1     -46.018  58.281 -59.813  1.00  0.00     0.071 C 
HETATM   21  C   UNL     1     -47.144  59.094 -60.456  1.00  0.00     0.020 C 
HETATM   22  C   UNL     1     -47.677  58.458 -61.738  1.00  0.00     0.002 C 
HETATM   23  C   UNL     1     -48.133  57.024 -61.496  1.00  0.00     0.000 C 
HETATM   24  C   UNL     1     -47.031  56.182 -60.863  1.00  0.00     0.002 C 
HETATM   25  C   UNL     1     -46.477  56.829 -59.593  1.00  0.00     0.020 C 
ENDBRANCH  18  20
ENDBRANCH  15  18
ENDBRANCH   7  15
BRANCH   9  26
HETATM   26  N   UNL     1     -43.532  60.511 -55.182  1.00  0.00    -0.115 N 
HETATM   27  O   UNL     1     -44.542  60.318 -54.492  1.00  0.00    -0.532 OA
HETATM   28  O   UNL     1     -42.816  61.518 -55.147  1.00  0.00    -0.532 OA
ENDBRANCH   9  26
BRANCH  12  29
HETATM   29  N   UNL     1     -41.636  59.211 -52.966  1.00  0.00    -0.115 N 
HETATM   30  O   UNL     1     -40.605  59.554 -53.560  1.00  0.00    -0.532 OA
HETATM   31  O   UNL     1     -42.234  59.881 -52.118  1.00  0.00    -0.532 OA
ENDBRANCH  12  29
BRANCH  14  32
HETATM   32  S   UNL     1     -41.768  54.344 -51.237  1.00  0.00     0.259 S 
HETATM   33  O   UNL     1     -40.563  54.781 -50.569  1.00  0.00    -0.201 OA
HETATM   34  O   UNL     1     -42.994  54.077 -50.522  1.00  0.00    -0.201 OA
BRANCH  32  35
HETATM   35  N   UNL     1     -41.342  52.981 -52.132  1.00  0.00    -0.311 N 
HETATM   36  H   UNL     1     -42.083  52.774 -52.806  1.00  0.00     0.172 HD
BRANCH  35  37
HETATM   37  C   UNL     1     -39.954  52.831 -52.634  1.00  0.00     0.093 C 
HETATM   38  C   UNL     1     -39.173  51.778 -51.844  1.00  0.00     0.026 C 
HETATM   39  C   UNL     1     -39.717  50.364 -52.046  1.00  0.00     0.002 C 
HETATM   40  C   UNL     1     -39.761  49.994 -53.526  1.00  0.00     0.000 C 
HETATM   41  C   UNL     1     -40.534  51.023 -54.345  1.00  0.00     0.002 C 
HETATM   42  C   UNL     1     -40.007  52.441 -54.121  1.00  0.00     0.026 C 
ENDBRANCH  35  37
ENDBRANCH  32  35
ENDBRANCH  14  32
TORSDOF 8
ENDMDL
MODEL 5
REMARK VINA RESULT:      -8.2      2.423      3.044
REMARK  8 active torsions:
REMARK  status: ('A' for Active; 'I' for Inactive)
REMARK    1  A    between atoms: C_7  and  S_8 
REMARK    2  A    between atoms: S_8  and  N_9 
REMARK    3  A    between atoms: N_9  and  C_10 
REMARK    4  A    between atoms: C_19  and  N_20 
REMARK    5  A    between atoms: C_25  and  N_26 
REMARK    6  A    between atoms: C_30  and  S_31 
REMARK    7  A    between atoms: S_31  and  N_32 
REMARK    8  A    between atoms: N_32  and  C_33 
ROOT
HETATM    1  C   UNL     1     -42.101  54.591 -53.007  1.00  0.00     0.041 A 
HETATM    2  C   UNL     1     -42.356  55.446 -54.065  1.00  0.00     0.030 A 
HETATM    3  C   UNL     1     -42.222  56.851 -54.033  1.00  0.00     0.025 A 
HETATM    4  C   UNL     1     -42.631  57.378 -55.346  1.00  0.00     0.025 C 
HETATM    5  C   UNL     1     -42.795  56.286 -56.225  1.00  0.00     0.030 C 
HETATM    6  C   UNL     1     -43.084  56.383 -57.577  1.00  0.00     0.041 C 
HETATM    7  C   UNL     1     -43.266  57.665 -58.090  1.00  0.00     0.077 C 
HETATM    8  C   UNL     1     -43.263  58.782 -57.239  1.00  0.00     0.061 C 
HETATM    9  C   UNL     1     -42.958  58.630 -55.869  1.00  0.00     0.116 C 
HETATM   10  C   UNL     1     -42.673  55.046 -55.445  1.00  0.00     0.194 C 
HETATM   11  O   UNL     1     -42.785  53.914 -55.862  1.00  0.00    -0.287 OA
HETATM   12  C   UNL     1     -41.656  57.380 -52.871  1.00  0.00     0.116 A 
HETATM   13  C   UNL     1     -41.378  56.551 -51.761  1.00  0.00     0.062 A 
HETATM   14  C   UNL     1     -41.608  55.167 -51.841  1.00  0.00     0.082 A 
ENDROOT
BRANCH   7  15
HETATM   15  S   UNL     1     -43.621  57.868 -59.821  1.00  0.00     0.241 S 
HETATM   16  O   UNL     1     -43.005  56.759 -60.513  1.00  0.00    -0.206 OA
HETATM   17  O   UNL     1     -45.023  58.180 -59.964  1.00  0.00    -0.206 OA
BRANCH  15  18
HETATM   18  N   UNL     1     -42.690  59.226 -60.195  1.00  0.00    -0.211 NA
HETATM   19  H   UNL     1     -41.911  58.927 -60.788  1.00  0.00     0.140 HD
BRANCH  18  20
HETATM   20  C   UNL     1     -43.366  60.468 -60.651  1.00  0.00     0.071 C 
HETATM   21  C   UNL     1     -43.456  61.517 -59.540  1.00  0.00     0.020 C 
HETATM   22  C   UNL     1     -42.091  62.066 -59.130  1.00  0.00     0.002 C 
HETATM   23  C   UNL     1     -41.338  62.631 -60.330  1.00  0.00     0.000 C 
HETATM   24  C   UNL     1     -41.222  61.608 -61.454  1.00  0.00     0.002 C 
HETATM   25  C   UNL     1     -42.585  61.037 -61.849  1.00  0.00     0.020 C 
ENDBRANCH  18  20
ENDBRANCH  15  18
ENDBRANCH   7  15
BRANCH   9  26
HETATM   26  N   UNL     1     -43.178  59.790 -55.017  1.00  0.00    -0.115 N 
HETATM   27  O   UNL     1     -42.388  60.735 -55.149  1.00  0.00    -0.532 OA
HETATM   28  O   UNL     1     -44.101  59.731 -54.197  1.00  0.00    -0.532 OA
ENDBRANCH   9  26
BRANCH  12  29
HETATM   29  N   UNL     1     -41.112  58.730 -52.825  1.00  0.00    -0.115 N 
HETATM   30  O   UNL     1     -40.119  58.951 -53.531  1.00  0.00    -0.532 OA
HETATM   31  O   UNL     1     -41.631  59.533 -52.042  1.00  0.00    -0.532 OA
ENDBRANCH  12  29
BRANCH  14  32
HETATM   32  S   UNL     1     -41.187  54.141 -50.454  1.00  0.00     0.259 S 
HETATM   33  O   UNL     1     -39.892  54.587 -49.993  1.00  0.00    -0.201 OA
HETATM   34  O   UNL     1     -42.331  54.054 -49.577  1.00  0.00    -0.201 OA
BRANCH  32  35
HETATM   35  N   UNL     1     -40.936  52.643 -51.186  1.00  0.00    -0.311 N 
HETATM   36  H   UNL     1     -41.673  52.476 -51.874  1.00  0.00     0.172 HD
BRANCH  35  37
HETATM   37  C   UNL     1     -39.568  52.241 -51.594  1.00  0.00     0.093 C 
HETATM   38  C   UNL     1     -39.268  50.785 -51.226  1.00  0.00     0.026 C 
HETATM   39  C   UNL     1     -40.120  49.790 -52.014  1.00  0.00     0.002 C 
HETATM   40  C   UNL     1     -39.968  50.000 -53.518  1.00  0.00     0.000 C 
HETATM   41  C   UNL     1     -40.260  51.442 -53.921  1.00  0.00     0.002 C 
HETATM   42  C   UNL     1     -39.429  52.438 -53.113  1.00  0.00     0.026 C 
ENDBRANCH  35  37
ENDBRANCH  32  35
ENDBRANCH  14  32
TORSDOF 8
ENDMDL
MODEL 6
REMARK VINA RESULT:      -8.1      1.779      8.352
REMARK  8 active torsions:
REMARK  status: ('A' for Active; 'I' for Inactive)
REMARK    1  A    between atoms: C_7  and  S_8 
REMARK    2  A    between atoms: S_8  and  N_9 
REMARK    3  A    between atoms: N_9  and  C_10 
REMARK    4  A    between atoms: C_19  and  N_20 
REMARK    5  A    between atoms: C_25  and  N_26 
REMARK    6  A    between atoms: C_30  and  S_31 
REMARK    7  A    between atoms: S_31  and  N_32 
REMARK    8  A    between atoms: N_32  and  C_33 
ROOT
HETATM    1  C   UNL     1     -43.948  57.052 -56.499  1.00  0.00     0.041 A 
HETATM    2  C   UNL     1     -43.303  56.778 -55.304  1.00  0.00     0.030 A 
HETATM    3  C   UNL     1     -42.914  57.738 -54.345  1.00  0.00     0.025 A 
HETATM    4  C   UNL     1     -42.225  57.034 -53.249  1.00  0.00     0.025 C 
HETATM    5  C   UNL     1     -42.396  55.646 -53.444  1.00  0.00     0.030 C 
HETATM    6  C   UNL     1     -41.973  54.658 -52.570  1.00  0.00     0.041 C 
HETATM    7  C   UNL     1     -41.287  55.076 -51.432  1.00  0.00     0.077 C 
HETATM    8  C   UNL     1     -40.956  56.429 -51.255  1.00  0.00     0.061 C 
HETATM    9  C   UNL     1     -41.416  57.399 -52.172  1.00  0.00     0.116 C 
HETATM   10  C   UNL     1     -43.034  55.441 -54.752  1.00  0.00     0.194 C 
HETATM   11  O   UNL     1     -43.308  54.379 -55.265  1.00  0.00    -0.287 OA
HETATM   12  C   UNL     1     -43.347  59.044 -54.583  1.00  0.00     0.116 A 
HETATM   13  C   UNL     1     -44.008  59.377 -55.787  1.00  0.00     0.062 A 
HETATM   14  C   UNL     1     -44.296  58.378 -56.732  1.00  0.00     0.082 A 
ENDROOT
BRANCH   7  15
HETATM   15  S   UNL     1     -40.731  53.865 -50.255  1.00  0.00     0.241 S 
HETATM   16  O   UNL     1     -39.358  54.185 -49.935  1.00  0.00    -0.206 OA
HETATM   17  O   UNL     1     -41.744  53.722 -49.237  1.00  0.00    -0.206 OA
BRANCH  15  18
HETATM   18  N   UNL     1     -40.675  52.473 -51.209  1.00  0.00    -0.211 NA
HETATM   19  H   UNL     1     -41.447  52.512 -51.879  1.00  0.00     0.140 HD
BRANCH  18  20
HETATM   20  C   UNL     1     -39.377  52.042 -51.792  1.00  0.00     0.071 C 
HETATM   21  C   UNL     1     -39.118  50.548 -51.581  1.00  0.00     0.020 C 
HETATM   22  C   UNL     1     -40.091  49.662 -52.357  1.00  0.00     0.002 C 
HETATM   23  C   UNL     1     -40.077  49.996 -53.845  1.00  0.00     0.000 C 
HETATM   24  C   UNL     1     -40.341  51.477 -54.092  1.00  0.00     0.002 C 
HETATM   25  C   UNL     1     -39.386  52.367 -53.296  1.00  0.00     0.020 C 
ENDBRANCH  18  20
ENDBRANCH  15  18
ENDBRANCH   7  15
BRANCH   9  26
HETATM   26  N   UNL     1     -40.863  58.739 -52.040  1.00  0.00    -0.115 N 
HETATM   27  O   UNL     1     -40.063  59.099 -52.915  1.00  0.00    -0.532 OA
HETATM   28  O   UNL     1     -41.191  59.399 -51.047  1.00  0.00    -0.532 OA
ENDBRANCH   9  26
BRANCH  12  29
HETATM   29  N   UNL     1     -43.359  60.055 -53.534  1.00  0.00    -0.115 N 
HETATM   30  O   UNL     1     -42.591  61.015 -53.682  1.00  0.00    -0.532 OA
HETATM   31  O   UNL     1     -44.076  59.852 -52.548  1.00  0.00    -0.532 OA
ENDBRANCH  12  29
BRANCH  14  32
HETATM   32  S   UNL     1     -45.186  58.815 -58.205  1.00  0.00     0.259 S 
HETATM   33  O   UNL     1     -45.033  57.707 -59.120  1.00  0.00    -0.201 OA
HETATM   34  O   UNL     1     -46.480  59.334 -57.830  1.00  0.00    -0.201 OA
BRANCH  32  35
HETATM   35  N   UNL     1     -44.246  60.070 -58.826  1.00  0.00    -0.311 N 
HETATM   36  H   UNL     1     -44.074  60.759 -58.090  1.00  0.00     0.172 HD
BRANCH  35  37
HETATM   37  C   UNL     1     -43.092  59.763 -59.705  1.00  0.00     0.093 C 
HETATM   38  C   UNL     1     -42.767  60.926 -60.647  1.00  0.00     0.026 C 
HETATM   39  C   UNL     1     -42.257  62.161 -59.906  1.00  0.00     0.002 C 
HETATM   40  C   UNL     1     -41.047  61.827 -59.039  1.00  0.00     0.000 C 
HETATM   41  C   UNL     1     -41.335  60.671 -58.086  1.00  0.00     0.002 C 
HETATM   42  C   UNL     1     -41.872  59.444 -58.824  1.00  0.00     0.026 C 
ENDBRANCH  35  37
ENDBRANCH  32  35
ENDBRANCH  14  32
TORSDOF 8
ENDMDL
MODEL 7
REMARK VINA RESULT:      -7.9      3.506      4.674
REMARK  8 active torsions:
REMARK  status: ('A' for Active; 'I' for Inactive)
REMARK    1  A    between atoms: C_7  and  S_8 
REMARK    2  A    between atoms: S_8  and  N_9 
REMARK    3  A    between atoms: N_9  and  C_10 
REMARK    4  A    between atoms: C_19  and  N_20 
REMARK    5  A    between atoms: C_25  and  N_26 
REMARK    6  A    between atoms: C_30  and  S_31 
REMARK    7  A    between atoms: S_31  and  N_32 
REMARK    8  A    between atoms: N_32  and  C_33 
ROOT
HETATM    1  C   UNL     1     -41.965  55.649 -55.830  1.00  0.00     0.041 A 
HETATM    2  C   UNL     1     -42.313  56.951 -56.145  1.00  0.00     0.030 A 
HETATM    3  C   UNL     1     -42.289  58.043 -55.250  1.00  0.00     0.025 A 
HETATM    4  C   UNL     1     -42.771  59.234 -55.971  1.00  0.00     0.025 C 
HETATM    5  C   UNL     1     -42.870  58.907 -57.340  1.00  0.00     0.030 C 
HETATM    6  C   UNL     1     -43.199  59.793 -58.353  1.00  0.00     0.041 C 
HETATM    7  C   UNL     1     -43.495  61.100 -57.973  1.00  0.00     0.077 C 
HETATM    8  C   UNL     1     -43.557  61.452 -56.615  1.00  0.00     0.061 C 
HETATM    9  C   UNL     1     -43.207  60.513 -55.621  1.00  0.00     0.116 C 
HETATM   10  C   UNL     1     -42.631  57.464 -57.486  1.00  0.00     0.194 C 
HETATM   11  O   UNL     1     -42.666  56.824 -58.515  1.00  0.00    -0.287 OA
HETATM   12  C   UNL     1     -41.737  57.786 -53.993  1.00  0.00     0.116 A 
HETATM   13  C   UNL     1     -41.367  56.474 -53.622  1.00  0.00     0.062 A 
HETATM   14  C   UNL     1     -41.489  55.420 -54.543  1.00  0.00     0.082 A 
ENDROOT
BRANCH   7  15
HETATM   15  S   UNL     1     -43.907  62.299 -59.220  1.00  0.00     0.241 S 
HETATM   16  O   UNL     1     -44.317  61.563 -60.395  1.00  0.00    -0.206 OA
HETATM   17  O   UNL     1     -44.740  63.312 -58.619  1.00  0.00    -0.206 OA
BRANCH  15  18
HETATM   18  N   UNL     1     -42.389  62.942 -59.580  1.00  0.00    -0.211 NA
HETATM   19  H   UNL     1     -42.159  63.641 -58.869  1.00  0.00     0.140 HD
BRANCH  18  20
HETATM   20  C   UNL     1     -41.271  62.024 -59.921  1.00  0.00     0.071 C 
HETATM   21  C   UNL     1     -40.812  62.188 -61.372  1.00  0.00     0.020 C 
HETATM   22  C   UNL     1     -40.161  63.544 -61.639  1.00  0.00     0.002 C 
HETATM   23  C   UNL     1     -38.999  63.798 -60.685  1.00  0.00     0.000 C 
HETATM   24  C   UNL     1     -39.425  63.651 -59.229  1.00  0.00     0.002 C 
HETATM   25  C   UNL     1     -40.099  62.305 -58.964  1.00  0.00     0.020 C 
ENDBRANCH  18  20
ENDBRANCH  15  18
ENDBRANCH   7  15
BRANCH   9  26
HETATM   26  N   UNL     1     -43.496  60.880 -54.242  1.00  0.00    -0.115 N 
HETATM   27  O   UNL     1     -44.444  60.298 -53.698  1.00  0.00    -0.532 OA
HETATM   28  O   UNL     1     -42.810  61.774 -53.732  1.00  0.00    -0.532 OA
ENDBRANCH   9  26
BRANCH  12  29
HETATM   29  N   UNL     1     -41.299  58.858 -53.110  1.00  0.00    -0.115 N 
HETATM   30  O   UNL     1     -40.316  59.514 -53.480  1.00  0.00    -0.532 OA
HETATM   31  O   UNL     1     -41.890  58.993 -52.032  1.00  0.00    -0.532 OA
ENDBRANCH  12  29
BRANCH  14  32
HETATM   32  S   UNL     1     -40.955  53.794 -54.071  1.00  0.00     0.259 S 
HETATM   33  O   UNL     1     -42.135  52.961 -54.065  1.00  0.00    -0.201 OA
HETATM   34  O   UNL     1     -39.774  53.455 -54.829  1.00  0.00    -0.201 OA
BRANCH  32  35
HETATM   35  N   UNL     1     -40.529  54.018 -52.455  1.00  0.00    -0.311 N 
HETATM   36  H   UNL     1     -40.389  55.015 -52.278  1.00  0.00     0.172 HD
BRANCH  35  37
HETATM   37  C   UNL     1     -41.242  53.267 -51.393  1.00  0.00     0.093 C 
HETATM   38  C   UNL     1     -40.316  52.912 -50.226  1.00  0.00     0.026 C 
HETATM   39  C   UNL     1     -39.841  54.143 -49.454  1.00  0.00     0.002 C 
HETATM   40  C   UNL     1     -41.020  54.977 -48.962  1.00  0.00     0.000 C 
HETATM   41  C   UNL     1     -41.965  55.350 -50.100  1.00  0.00     0.002 C 
HETATM   42  C   UNL     1     -42.418  54.121 -50.890  1.00  0.00     0.026 C 
ENDBRANCH  35  37
ENDBRANCH  32  35
ENDBRANCH  14  32
TORSDOF 8
ENDMDL
MODEL 8
REMARK VINA RESULT:      -7.9      4.365      9.482
REMARK  8 active torsions:
REMARK  status: ('A' for Active; 'I' for Inactive)
REMARK    1  A    between atoms: C_7  and  S_8 
REMARK    2  A    between atoms: S_8  and  N_9 
REMARK    3  A    between atoms: N_9  and  C_10 
REMARK    4  A    between atoms: C_19  and  N_20 
REMARK    5  A    between atoms: C_25  and  N_26 
REMARK    6  A    between atoms: C_30  and  S_31 
REMARK    7  A    between atoms: S_31  and  N_32 
REMARK    8  A    between atoms: N_32  and  C_33 
ROOT
HETATM    1  C   UNL     1     -46.728  61.519 -51.758  1.00  0.00     0.041 A 
HETATM    2  C   UNL     1     -46.048  60.325 -51.930  1.00  0.00     0.030 A 
HETATM    3  C   UNL     1     -45.331  59.951 -53.087  1.00  0.00     0.025 A 
HETATM    4  C   UNL     1     -44.797  58.595 -52.874  1.00  0.00     0.025 C 
HETATM    5  C   UNL     1     -45.002  58.251 -51.520  1.00  0.00     0.030 C 
HETATM    6  C   UNL     1     -44.550  57.091 -50.912  1.00  0.00     0.041 C 
HETATM    7  C   UNL     1     -43.877  56.178 -51.721  1.00  0.00     0.077 C 
HETATM    8  C   UNL     1     -43.771  56.393 -53.104  1.00  0.00     0.061 C 
HETATM    9  C   UNL     1     -44.243  57.595 -53.675  1.00  0.00     0.116 C 
HETATM   10  C   UNL     1     -45.826  59.298 -50.900  1.00  0.00     0.194 C 
HETATM   11  O   UNL     1     -46.225  59.324 -49.757  1.00  0.00    -0.287 OA
HETATM   12  C   UNL     1     -45.203  60.937 -54.068  1.00  0.00     0.116 A 
HETATM   13  C   UNL     1     -45.878  62.172 -53.942  1.00  0.00     0.062 A 
HETATM   14  C   UNL     1     -46.636  62.447 -52.791  1.00  0.00     0.082 A 
ENDROOT
BRANCH   7  15
HETATM   15  S   UNL     1     -43.252  54.675 -51.005  1.00  0.00     0.241 S 
HETATM   16  O   UNL     1     -42.248  55.054 -50.036  1.00  0.00    -0.206 OA
HETATM   17  O   UNL     1     -44.374  53.835 -50.661  1.00  0.00    -0.206 OA
BRANCH  15  18
HETATM   18  N   UNL     1     -42.413  54.008 -52.308  1.00  0.00    -0.211 NA
HETATM   19  H   UNL     1     -42.898  54.270 -53.170  1.00  0.00     0.140 HD
BRANCH  18  20
HETATM   20  C   UNL     1     -40.934  54.147 -52.370  1.00  0.00     0.071 C 
HETATM   21  C   UNL     1     -40.241  52.815 -52.667  1.00  0.00     0.020 C 
HETATM   22  C   UNL     1     -40.540  52.291 -54.070  1.00  0.00     0.002 C 
HETATM   23  C   UNL     1     -40.180  53.322 -55.134  1.00  0.00     0.000 C 
HETATM   24  C   UNL     1     -40.862  54.661 -54.874  1.00  0.00     0.002 C 
HETATM   25  C   UNL     1     -40.586  55.175 -53.461  1.00  0.00     0.020 C 
ENDBRANCH  18  20
ENDBRANCH  15  18
ENDBRANCH   7  15
BRANCH   9  26
HETATM   26  N   UNL     1     -44.288  57.656 -55.129  1.00  0.00    -0.115 N 
HETATM   27  O   UNL     1     -45.411  57.682 -55.650  1.00  0.00    -0.532 OA
HETATM   28  O   UNL     1     -43.211  57.629 -55.737  1.00  0.00    -0.532 OA
ENDBRANCH   9  26
BRANCH  12  29
HETATM   29  N   UNL     1     -44.205  60.848 -55.124  1.00  0.00    -0.115 N 
HETATM   30  O   UNL     1     -43.018  60.876 -54.769  1.00  0.00    -0.532 OA
HETATM   31  O   UNL     1     -44.605  60.821 -56.293  1.00  0.00    -0.532 OA
ENDBRANCH  12  29
BRANCH  14  32
HETATM   32  S   UNL     1     -47.419  64.032 -52.631  1.00  0.00     0.259 S 
HETATM   33  O   UNL     1     -47.044  64.545 -51.333  1.00  0.00    -0.201 OA
HETATM   34  O   UNL     1     -47.206  64.780 -53.847  1.00  0.00    -0.201 OA
BRANCH  32  35
HETATM   35  N   UNL     1     -49.048  63.612 -52.518  1.00  0.00    -0.311 N 
HETATM   36  H   UNL     1     -49.579  64.412 -52.166  1.00  0.00     0.172 HD
BRANCH  35  37
HETATM   37  C   UNL     1     -49.688  62.843 -53.613  1.00  0.00     0.093 C 
HETATM   38  C   UNL     1     -50.664  61.792 -53.076  1.00  0.00     0.026 C 
HETATM   39  C   UNL     1     -51.883  62.412 -52.393  1.00  0.00     0.002 C 
HETATM   40  C   UNL     1     -52.606  63.381 -53.325  1.00  0.00     0.000 C 
HETATM   41  C   UNL     1     -51.663  64.444 -53.879  1.00  0.00     0.002 C 
HETATM   42  C   UNL     1     -50.429  63.824 -54.537  1.00  0.00     0.026 C 
ENDBRANCH  35  37
ENDBRANCH  32  35
ENDBRANCH  14  32
TORSDOF 8
ENDMDL
MODEL 9
REMARK VINA RESULT:      -7.8      3.987      9.451
REMARK  8 active torsions:
REMARK  status: ('A' for Active; 'I' for Inactive)
REMARK    1  A    between atoms: C_7  and  S_8 
REMARK    2  A    between atoms: S_8  and  N_9 
REMARK    3  A    between atoms: N_9  and  C_10 
REMARK    4  A    between atoms: C_19  and  N_20 
REMARK    5  A    between atoms: C_25  and  N_26 
REMARK    6  A    between atoms: C_30  and  S_31 
REMARK    7  A    between atoms: S_31  and  N_32 
REMARK    8  A    between atoms: N_32  and  C_33 
ROOT
HETATM    1  C   UNL     1     -45.885  60.180 -52.881  1.00  0.00     0.041 A 
HETATM    2  C   UNL     1     -45.030  59.240 -53.431  1.00  0.00     0.030 A 
HETATM    3  C   UNL     1     -44.510  59.275 -54.743  1.00  0.00     0.025 A 
HETATM    4  C   UNL     1     -43.681  58.073 -54.938  1.00  0.00     0.025 C 
HETATM    5  C   UNL     1     -43.527  57.440 -53.686  1.00  0.00     0.030 C 
HETATM    6  C   UNL     1     -42.734  56.330 -53.443  1.00  0.00     0.041 C 
HETATM    7  C   UNL     1     -42.075  55.777 -54.538  1.00  0.00     0.077 C 
HETATM    8  C   UNL     1     -42.304  56.269 -55.833  1.00  0.00     0.061 C 
HETATM    9  C   UNL     1     -43.117  57.407 -56.027  1.00  0.00     0.116 C 
HETATM   10  C   UNL     1     -44.397  58.121 -52.716  1.00  0.00     0.194 C 
HETATM   11  O   UNL     1     -44.546  57.832 -51.549  1.00  0.00    -0.287 OA
HETATM   12  C   UNL     1     -44.790  60.431 -55.476  1.00  0.00     0.116 A 
HETATM   13  C   UNL     1     -45.658  61.420 -54.961  1.00  0.00     0.062 A 
HETATM   14  C   UNL     1     -46.199  61.280 -53.671  1.00  0.00     0.082 A 
ENDROOT
BRANCH   7  15
HETATM   15  S   UNL     1     -41.025  54.362 -54.299  1.00  0.00     0.241 S 
HETATM   16  O   UNL     1     -41.859  53.189 -54.425  1.00  0.00    -0.206 OA
HETATM   17  O   UNL     1     -39.831  54.544 -55.091  1.00  0.00    -0.206 OA
BRANCH  15  18
HETATM   18  N   UNL     1     -40.652  54.495 -52.659  1.00  0.00    -0.211 NA
HETATM   19  H   UNL     1     -40.892  55.440 -52.351  1.00  0.00     0.140 HD
BRANCH  18  20
HETATM   20  C   UNL     1     -41.078  53.419 -51.726  1.00  0.00     0.071 C 
HETATM   21  C   UNL     1     -39.994  53.082 -50.699  1.00  0.00     0.020 C 
HETATM   22  C   UNL     1     -39.730  54.224 -49.719  1.00  0.00     0.002 C 
HETATM   23  C   UNL     1     -41.011  54.656 -49.014  1.00  0.00     0.000 C 
HETATM   24  C   UNL     1     -42.111  55.007 -50.009  1.00  0.00     0.002 C 
HETATM   25  C   UNL     1     -42.360  53.876 -51.007  1.00  0.00     0.020 C 
ENDBRANCH  18  20
ENDBRANCH  15  18
ENDBRANCH   7  15
BRANCH   9  26
HETATM   26  N   UNL     1     -43.475  57.730 -57.400  1.00  0.00    -0.115 N 
HETATM   27  O   UNL     1     -42.570  58.169 -58.122  1.00  0.00    -0.532 OA
HETATM   28  O   UNL     1     -44.658  57.587 -57.732  1.00  0.00    -0.532 OA
ENDBRANCH   9  26
BRANCH  12  29
HETATM   29  N   UNL     1     -44.036  60.787 -56.670  1.00  0.00    -0.115 N 
HETATM   30  O   UNL     1     -42.835  61.044 -56.511  1.00  0.00    -0.532 OA
HETATM   31  O   UNL     1     -44.656  60.875 -57.736  1.00  0.00    -0.532 OA
ENDBRANCH  12  29
BRANCH  14  32
HETATM   32  S   UNL     1     -47.234  62.570 -53.025  1.00  0.00     0.259 S 
HETATM   33  O   UNL     1     -47.074  62.543 -51.590  1.00  0.00    -0.201 OA
HETATM   34  O   UNL     1     -47.023  63.768 -53.803  1.00  0.00    -0.201 OA
BRANCH  32  35
HETATM   35  N   UNL     1     -48.779  61.973 -53.339  1.00  0.00    -0.311 N 
HETATM   36  H   UNL     1     -49.081  61.390 -52.555  1.00  0.00     0.172 HD
BRANCH  35  37
HETATM   37  C   UNL     1     -49.813  62.867 -53.914  1.00  0.00     0.093 C 
HETATM   38  C   UNL     1     -51.014  62.081 -54.447  1.00  0.00     0.026 C 
HETATM   39  C   UNL     1     -51.804  61.386 -53.339  1.00  0.00     0.002 C 
HETATM   40  C   UNL     1     -52.252  62.380 -52.271  1.00  0.00     0.000 C 
HETATM   41  C   UNL     1     -51.079  63.182 -51.716  1.00  0.00     0.002 C 
HETATM   42  C   UNL     1     -50.272  63.854 -52.827  1.00  0.00     0.026 C 
ENDBRANCH  35  37
ENDBRANCH  32  35
ENDBRANCH  14  32
TORSDOF 8
ENDMDL
MODEL 10
REMARK VINA RESULT:      -7.8      4.207      5.776
REMARK  8 active torsions:
REMARK  status: ('A' for Active; 'I' for Inactive)
REMARK    1  A    between atoms: C_7  and  S_8 
REMARK    2  A    between atoms: S_8  and  N_9 
REMARK    3  A    between atoms: N_9  and  C_10 
REMARK    4  A    between atoms: C_19  and  N_20 
REMARK    5  A    between atoms: C_25  and  N_26 
REMARK    6  A    between atoms: C_30  and  S_31 
REMARK    7  A    between atoms: S_31  and  N_32 
REMARK    8  A    between atoms: N_32  and  C_33 
ROOT
HETATM    1  C   UNL     1     -44.263  56.779 -50.986  1.00  0.00     0.041 A 
HETATM    2  C   UNL     1     -44.665  57.933 -51.637  1.00  0.00     0.030 A 
HETATM    3  C   UNL     1     -44.258  58.326 -52.930  1.00  0.00     0.025 A 
HETATM    4  C   UNL     1     -44.879  59.628 -53.227  1.00  0.00     0.025 C 
HETATM    5  C   UNL     1     -45.823  59.905 -52.214  1.00  0.00     0.030 C 
HETATM    6  C   UNL     1     -46.679  60.994 -52.194  1.00  0.00     0.041 C 
HETATM    7  C   UNL     1     -46.561  61.905 -53.240  1.00  0.00     0.077 C 
HETATM    8  C   UNL     1     -45.544  61.766 -54.197  1.00  0.00     0.061 C 
HETATM    9  C   UNL     1     -44.700  60.634 -54.178  1.00  0.00     0.116 C 
HETATM   10  C   UNL     1     -45.688  58.880 -51.169  1.00  0.00     0.194 C 
HETATM   11  O   UNL     1     -46.316  58.813 -50.135  1.00  0.00    -0.287 OA
HETATM   12  C   UNL     1     -43.497  57.393 -53.638  1.00  0.00     0.116 A 
HETATM   13  C   UNL     1     -43.059  56.200 -53.019  1.00  0.00     0.062 A 
HETATM   14  C   UNL     1     -43.444  55.910 -51.699  1.00  0.00     0.082 A 
ENDROOT
BRANCH   7  15
HETATM   15  S   UNL     1     -47.640  63.318 -53.290  1.00  0.00     0.241 S 
HETATM   16  O   UNL     1     -47.661  63.883 -51.960  1.00  0.00    -0.206 OA
HETATM   17  O   UNL     1     -47.304  64.105 -54.453  1.00  0.00    -0.206 OA
BRANCH  15  18
HETATM   18  N   UNL     1     -49.144  62.583 -53.509  1.00  0.00    -0.211 NA
HETATM   19  H   UNL     1     -49.492  62.286 -52.594  1.00  0.00     0.140 HD
BRANCH  18  20
HETATM   20  C   UNL     1     -50.161  63.247 -54.366  1.00  0.00     0.071 C 
HETATM   21  C   UNL     1     -51.106  62.240 -55.025  1.00  0.00     0.020 C 
HETATM   22  C   UNL     1     -52.003  61.521 -54.018  1.00  0.00     0.002 C 
HETATM   23  C   UNL     1     -52.794  62.514 -53.174  1.00  0.00     0.000 C 
HETATM   24  C   UNL     1     -51.881  63.529 -52.495  1.00  0.00     0.002 C 
HETATM   25  C   UNL     1     -50.964  64.231 -53.497  1.00  0.00     0.020 C 
ENDBRANCH  18  20
ENDBRANCH  15  18
ENDBRANCH   7  15
BRANCH   9  26
HETATM   26  N   UNL     1     -43.546  60.663 -55.065  1.00  0.00    -0.115 N 
HETATM   27  O   UNL     1     -43.774  60.566 -56.277  1.00  0.00    -0.532 OA
HETATM   28  O   UNL     1     -42.426  60.733 -54.544  1.00  0.00    -0.532 OA
ENDBRANCH   9  26
BRANCH  12  29
HETATM   29  N   UNL     1     -43.321  57.477 -55.081  1.00  0.00    -0.115 N 
HETATM   30  O   UNL     1     -44.345  57.375 -55.770  1.00  0.00    -0.532 OA
HETATM   31  O   UNL     1     -42.168  57.574 -55.515  1.00  0.00    -0.532 OA
ENDBRANCH  12  29
BRANCH  14  32
HETATM   32  S   UNL     1     -42.933  54.373 -50.970  1.00  0.00     0.259 S 
HETATM   33  O   UNL     1     -41.967  54.705 -49.948  1.00  0.00    -0.201 OA
HETATM   34  O   UNL     1     -44.106  53.578 -50.693  1.00  0.00    -0.201 OA
BRANCH  32  35
HETATM   35  N   UNL     1     -42.064  53.658 -52.225  1.00  0.00    -0.311 N 
HETATM   36  H   UNL     1     -42.615  53.703 -53.086  1.00  0.00     0.172 HD
BRANCH  35  37
HETATM   37  C   UNL     1     -40.615  53.937 -52.372  1.00  0.00     0.093 C 
HETATM   38  C   UNL     1     -39.760  52.941 -51.582  1.00  0.00     0.026 C 
HETATM   39  C   UNL     1     -39.848  51.520 -52.135  1.00  0.00     0.002 C 
HETATM   40  C   UNL     1     -39.481  51.477 -53.615  1.00  0.00     0.000 C 
HETATM   41  C   UNL     1     -40.314  52.457 -54.434  1.00  0.00     0.002 C 
HETATM   42  C   UNL     1     -40.249  53.875 -53.865  1.00  0.00     0.026 C 
ENDBRANCH  35  37
ENDBRANCH  32  35
ENDBRANCH  14  32
TORSDOF 8
ENDMDL
