MODEL 1
REMARK VINA RESULT:     -10.1      0.000      0.000
REMARK  4 active torsions:
REMARK  status: ('A' for Active; 'I' for Inactive)
REMARK    1  A    between atoms: C_2  and  C_3 
REMARK    2  A    between atoms: N_16  and  C_17 
REMARK    3  A    between atoms: C_17  and  C_18 
REMARK       I    between atoms: C_18  and  N_19 
REMARK    4  A    between atoms: N_19  and  C_20 
ROOT
HETATM    1  C   UNL     1     -40.628  56.664 -50.221  1.00  0.00     0.054 C 
HETATM    2  C   UNL     1     -41.571  56.405 -51.396  1.00  0.00     0.140 C 
HETATM    3  N   UNL     1     -42.941  56.437 -50.926  1.00  0.00    -0.321 N 
HETATM    4  C   UNL     1     -43.720  57.310 -51.645  1.00  0.00     0.326 C 
HETATM    5  O   UNL     1     -44.934  57.364 -51.551  1.00  0.00    -0.247 OA
HETATM    6  N   UNL     1     -42.916  58.041 -52.460  1.00  0.00    -0.259 N 
HETATM    7  C   UNL     1     -41.618  57.631 -52.344  1.00  0.00     0.261 C 
HETATM    8  O   UNL     1     -40.663  58.130 -52.926  1.00  0.00    -0.270 OA
HETATM    9  H   UNL     1     -43.367  55.735 -50.334  1.00  0.00     0.165 HD
ENDROOT
BRANCH   6  10
HETATM   10  C   UNL     1     -43.410  59.008 -53.415  1.00  0.00     0.240 C 
BRANCH  10  11
HETATM   11  C   UNL     1     -43.782  58.370 -54.750  1.00  0.00     0.240 C 
HETATM   12  N   UNL     1     -42.703  58.008 -55.533  1.00  0.00    -0.324 N 
HETATM   13  H   UNL     1     -41.774  57.995 -55.111  1.00  0.00     0.169 HD
HETATM   14  O   UNL     1     -44.957  58.101 -54.997  1.00  0.00    -0.271 OA
BRANCH  12  15
HETATM   15  C   UNL     1     -42.753  57.386 -56.809  1.00  0.00     0.064 A 
HETATM   16  C   UNL     1     -42.482  58.201 -57.920  1.00  0.00     0.093 A 
HETATM   17  C   UNL     1     -42.497  57.610 -59.204  1.00  0.00    -0.005 A 
HETATM   18  N   UNL     1     -42.195  59.513 -57.746  1.00  0.00    -0.258 NA
HETATM   19  C   UNL     1     -42.193  58.414 -60.311  1.00  0.00     0.015 A 
HETATM   20  C   UNL     1     -42.801  56.249 -59.360  1.00  0.00     0.014 A 
HETATM   21  C   UNL     1     -41.885  59.756 -60.127  1.00  0.00     0.020 A 
HETATM   22  C   UNL     1     -41.901  60.252 -58.838  1.00  0.00     0.117 A 
HETATM   23  C   UNL     1     -43.088  55.464 -58.250  1.00  0.00     0.003 A 
HETATM   24  C   UNL     1     -43.064  56.031 -56.977  1.00  0.00     0.032 A 
ENDBRANCH  12  15
ENDBRANCH  10  11
ENDBRANCH   6  10
BRANCH   2  25
HETATM   25  C   UNL     1     -41.257  55.128 -52.184  1.00  0.00    -0.020 A 
HETATM   26  C   UNL     1     -40.617  54.020 -51.589  1.00  0.00     0.022 A 
HETATM   27  C   UNL     1     -40.352  52.835 -52.301  1.00  0.00    -0.025 A 
HETATM   28  C   UNL     1     -40.740  52.742 -53.653  1.00  0.00    -0.026 A 
HETATM   29  C   UNL     1     -39.716  51.740 -51.693  1.00  0.00     0.012 A 
HETATM   30  C   UNL     1     -41.389  53.831 -54.250  1.00  0.00     0.013 A 
HETATM   31  C   UNL     1     -40.477  51.559 -54.365  1.00  0.00     0.012 A 
HETATM   32  C   UNL     1     -41.651  54.999 -53.525  1.00  0.00     0.011 A 
HETATM   33  C   UNL     1     -39.842  50.481 -53.747  1.00  0.00     0.001 A 
HETATM   34  C   UNL     1     -39.462  50.570 -52.411  1.00  0.00     0.001 A 
ENDBRANCH   2  25
TORSDOF 4
ENDMDL
MODEL 2
REMARK VINA RESULT:      -9.9      1.277      1.996
REMARK  4 active torsions:
REMARK  status: ('A' for Active; 'I' for Inactive)
REMARK    1  A    between atoms: C_2  and  C_3 
REMARK    2  A    between atoms: N_16  and  C_17 
REMARK    3  A    between atoms: C_17  and  C_18 
REMARK       I    between atoms: C_18  and  N_19 
REMARK    4  A    between atoms: N_19  and  C_20 
ROOT
HETATM    1  C   UNL     1     -40.607  58.933 -50.366  1.00  0.00     0.054 C 
HETATM    2  C   UNL     1     -41.600  58.400 -51.399  1.00  0.00     0.140 C 
HETATM    3  N   UNL     1     -42.950  58.618 -50.922  1.00  0.00    -0.321 N 
HETATM    4  C   UNL     1     -43.725  59.291 -51.835  1.00  0.00     0.326 C 
HETATM    5  O   UNL     1     -44.931  59.421 -51.730  1.00  0.00    -0.247 OA
HETATM    6  N   UNL     1     -42.926  59.735 -52.841  1.00  0.00    -0.259 N 
HETATM    7  C   UNL     1     -41.639  59.318 -52.648  1.00  0.00     0.261 C 
HETATM    8  O   UNL     1     -40.689  59.596 -53.370  1.00  0.00    -0.270 OA
HETATM    9  H   UNL     1     -43.378  58.126 -50.149  1.00  0.00     0.165 HD
ENDROOT
BRANCH   6  10
HETATM   10  C   UNL     1     -43.420  60.420 -54.014  1.00  0.00     0.240 C 
BRANCH  10  11
HETATM   11  C   UNL     1     -43.795  59.458 -55.137  1.00  0.00     0.240 C 
HETATM   12  N   UNL     1     -42.724  58.798 -55.706  1.00  0.00    -0.324 N 
HETATM   13  H   UNL     1     -41.820  58.829 -55.233  1.00  0.00     0.169 HD
HETATM   14  O   UNL     1     -44.979  59.228 -55.381  1.00  0.00    -0.271 OA
BRANCH  12  15
HETATM   15  C   UNL     1     -42.778  57.840 -56.754  1.00  0.00     0.064 A 
HETATM   16  C   UNL     1     -42.527  58.311 -58.053  1.00  0.00     0.093 A 
HETATM   17  C   UNL     1     -42.547  57.381 -59.119  1.00  0.00    -0.005 A 
HETATM   18  N   UNL     1     -42.252  59.621 -58.260  1.00  0.00    -0.258 NA
HETATM   19  C   UNL     1     -42.262  57.843 -60.410  1.00  0.00     0.015 A 
HETATM   20  C   UNL     1     -42.838  56.029 -58.881  1.00  0.00     0.014 A 
HETATM   21  C   UNL     1     -41.967  59.184 -60.616  1.00  0.00     0.020 A 
HETATM   22  C   UNL     1     -41.977  60.024 -59.520  1.00  0.00     0.117 A 
HETATM   23  C   UNL     1     -43.106  55.587 -57.591  1.00  0.00     0.003 A 
HETATM   24  C   UNL     1     -43.076  56.490 -56.530  1.00  0.00     0.032 A 
ENDBRANCH  12  15
ENDBRANCH  10  11
ENDBRANCH   6  10
BRANCH   2  25
HETATM   25  C   UNL     1     -41.358  56.943 -51.810  1.00  0.00    -0.020 A 
HETATM   26  C   UNL     1     -41.039  56.583 -53.137  1.00  0.00     0.022 A 
HETATM   27  C   UNL     1     -40.788  55.249 -53.512  1.00  0.00    -0.025 A 
HETATM   28  C   UNL     1     -40.852  54.234 -52.536  1.00  0.00    -0.026 A 
HETATM   29  C   UNL     1     -40.469  54.908 -54.837  1.00  0.00     0.012 A 
HETATM   30  C   UNL     1     -41.154  54.583 -51.213  1.00  0.00     0.013 A 
HETATM   31  C   UNL     1     -40.601  52.903 -52.910  1.00  0.00     0.012 A 
HETATM   32  C   UNL     1     -41.394  55.914 -50.855  1.00  0.00     0.011 A 
HETATM   33  C   UNL     1     -40.288  52.580 -54.231  1.00  0.00     0.001 A 
HETATM   34  C   UNL     1     -40.221  53.581 -55.194  1.00  0.00     0.001 A 
ENDBRANCH   2  25
TORSDOF 4
ENDMDL
MODEL 3
REMARK VINA RESULT:      -9.7      2.003      2.473
REMARK  4 active torsions:
REMARK  status: ('A' for Active; 'I' for Inactive)
REMARK    1  A    between atoms: C_2  and  C_3 
REMARK    2  A    between atoms: N_16  and  C_17 
REMARK    3  A    between atoms: C_17  and  C_18 
REMARK       I    between atoms: C_18  and  N_19 
REMARK    4  A    between atoms: N_19  and  C_20 
ROOT
HETATM    1  C   UNL     1     -41.342  57.807 -50.830  1.00  0.00     0.054 C 
HETATM    2  C   UNL     1     -41.779  57.641 -52.285  1.00  0.00     0.140 C 
HETATM    3  N   UNL     1     -43.212  57.833 -52.379  1.00  0.00    -0.321 N 
HETATM    4  C   UNL     1     -43.553  58.778 -53.315  1.00  0.00     0.326 C 
HETATM    5  O   UNL     1     -44.694  58.970 -53.695  1.00  0.00    -0.247 OA
HETATM    6  N   UNL     1     -42.422  59.405 -53.733  1.00  0.00    -0.259 N 
HETATM    7  C   UNL     1     -41.323  58.852 -53.138  1.00  0.00     0.261 C 
HETATM    8  O   UNL     1     -40.168  59.233 -53.291  1.00  0.00    -0.270 OA
HETATM    9  H   UNL     1     -43.907  57.191 -52.021  1.00  0.00     0.165 HD
ENDROOT
BRANCH   6  10
HETATM   10  C   UNL     1     -42.399  60.408 -54.774  1.00  0.00     0.240 C 
BRANCH  10  11
HETATM   11  C   UNL     1     -42.222  59.803 -56.163  1.00  0.00     0.240 C 
HETATM   12  N   UNL     1     -43.136  58.817 -56.478  1.00  0.00    -0.324 N 
HETATM   13  H   UNL     1     -43.958  58.702 -55.885  1.00  0.00     0.169 HD
HETATM   14  O   UNL     1     -41.404  60.287 -56.945  1.00  0.00    -0.271 OA
BRANCH  12  15
HETATM   15  C   UNL     1     -43.216  58.096 -57.700  1.00  0.00     0.064 A 
HETATM   16  C   UNL     1     -44.504  57.802 -58.175  1.00  0.00     0.093 A 
HETATM   17  C   UNL     1     -44.624  57.108 -59.402  1.00  0.00    -0.005 A 
HETATM   18  N   UNL     1     -45.594  58.198 -57.475  1.00  0.00    -0.258 NA
HETATM   19  C   UNL     1     -45.908  56.843 -59.895  1.00  0.00     0.015 A 
HETATM   20  C   UNL     1     -43.480  56.704 -60.107  1.00  0.00     0.014 A 
HETATM   21  C   UNL     1     -47.023  57.263 -59.181  1.00  0.00     0.020 A 
HETATM   22  C   UNL     1     -46.815  57.928 -57.988  1.00  0.00     0.117 A 
HETATM   23  C   UNL     1     -42.214  56.986 -59.609  1.00  0.00     0.003 A 
HETATM   24  C   UNL     1     -42.082  57.681 -58.408  1.00  0.00     0.032 A 
ENDBRANCH  12  15
ENDBRANCH  10  11
ENDBRANCH   6  10
BRANCH   2  25
HETATM   25  C   UNL     1     -41.326  56.327 -52.931  1.00  0.00    -0.020 A 
HETATM   26  C   UNL     1     -40.993  55.191 -52.163  1.00  0.00     0.022 A 
HETATM   27  C   UNL     1     -40.603  53.974 -52.753  1.00  0.00    -0.025 A 
HETATM   28  C   UNL     1     -40.545  53.876 -54.158  1.00  0.00    -0.026 A 
HETATM   29  C   UNL     1     -40.277  52.851 -51.973  1.00  0.00     0.012 A 
HETATM   30  C   UNL     1     -40.887  54.994 -54.931  1.00  0.00     0.013 A 
HETATM   31  C   UNL     1     -40.156  52.661 -54.749  1.00  0.00     0.012 A 
HETATM   32  C   UNL     1     -41.279  56.194 -54.328  1.00  0.00     0.011 A 
HETATM   33  C   UNL     1     -39.834  51.556 -53.960  1.00  0.00     0.001 A 
HETATM   34  C   UNL     1     -39.895  51.650 -52.573  1.00  0.00     0.001 A 
ENDBRANCH   2  25
TORSDOF 4
ENDMDL
MODEL 4
REMARK VINA RESULT:      -9.5      1.794      6.843
REMARK  4 active torsions:
REMARK  status: ('A' for Active; 'I' for Inactive)
REMARK    1  A    between atoms: C_2  and  C_3 
REMARK    2  A    between atoms: N_16  and  C_17 
REMARK    3  A    between atoms: C_17  and  C_18 
REMARK       I    between atoms: C_18  and  N_19 
REMARK    4  A    between atoms: N_19  and  C_20 
ROOT
HETATM    1  C   UNL     1     -43.925  60.952 -56.539  1.00  0.00     0.054 C 
HETATM    2  C   UNL     1     -43.387  59.663 -55.917  1.00  0.00     0.140 C 
HETATM    3  N   UNL     1     -42.008  59.862 -55.520  1.00  0.00    -0.321 N 
HETATM    4  C   UNL     1     -41.791  59.538 -54.203  1.00  0.00     0.326 C 
HETATM    5  O   UNL     1     -40.683  59.449 -53.705  1.00  0.00    -0.247 OA
HETATM    6  N   UNL     1     -42.991  59.319 -53.605  1.00  0.00    -0.259 N 
HETATM    7  C   UNL     1     -44.005  59.430 -54.514  1.00  0.00     0.261 C 
HETATM    8  O   UNL     1     -45.199  59.323 -54.260  1.00  0.00    -0.270 OA
HETATM    9  H   UNL     1     -41.230  59.965 -56.158  1.00  0.00     0.165 HD
ENDROOT
BRANCH   6  10
HETATM   10  C   UNL     1     -43.136  58.881 -52.234  1.00  0.00     0.240 C 
BRANCH  10  11
HETATM   11  C   UNL     1     -43.023  57.367 -52.090  1.00  0.00     0.240 C 
HETATM   12  N   UNL     1     -41.761  56.916 -51.756  1.00  0.00    -0.324 N 
HETATM   13  H   UNL     1     -41.067  57.592 -51.437  1.00  0.00     0.169 HD
HETATM   14  O   UNL     1     -44.033  56.666 -52.145  1.00  0.00    -0.271 OA
BRANCH  12  15
HETATM   15  C   UNL     1     -41.373  55.566 -51.545  1.00  0.00     0.064 A 
HETATM   16  C   UNL     1     -40.993  54.833 -52.681  1.00  0.00     0.093 A 
HETATM   17  C   UNL     1     -40.575  53.494 -52.506  1.00  0.00    -0.005 A 
HETATM   18  N   UNL     1     -41.012  55.416 -53.903  1.00  0.00    -0.258 NA
HETATM   19  C   UNL     1     -40.163  52.772 -53.634  1.00  0.00     0.015 A 
HETATM   20  C   UNL     1     -40.567  52.909 -51.230  1.00  0.00     0.014 A 
HETATM   21  C   UNL     1     -40.171  53.377 -54.884  1.00  0.00     0.020 A 
HETATM   22  C   UNL     1     -40.601  54.688 -54.965  1.00  0.00     0.117 A 
HETATM   23  C   UNL     1     -40.967  53.645 -50.121  1.00  0.00     0.003 A 
HETATM   24  C   UNL     1     -41.369  54.970 -50.278  1.00  0.00     0.032 A 
ENDBRANCH  12  15
ENDBRANCH  10  11
ENDBRANCH   6  10
BRANCH   2  25
HETATM   25  C   UNL     1     -43.564  58.420 -56.796  1.00  0.00    -0.020 A 
HETATM   26  C   UNL     1     -44.599  58.320 -57.750  1.00  0.00     0.022 A 
HETATM   27  C   UNL     1     -44.748  57.192 -58.579  1.00  0.00    -0.025 A 
HETATM   28  C   UNL     1     -43.836  56.124 -58.461  1.00  0.00    -0.026 A 
HETATM   29  C   UNL     1     -45.782  57.110 -59.527  1.00  0.00     0.012 A 
HETATM   30  C   UNL     1     -42.797  56.218 -57.526  1.00  0.00     0.013 A 
HETATM   31  C   UNL     1     -43.984  54.997 -59.289  1.00  0.00     0.012 A 
HETATM   32  C   UNL     1     -42.659  57.350 -56.714  1.00  0.00     0.011 A 
HETATM   33  C   UNL     1     -45.018  54.930 -60.223  1.00  0.00     0.001 A 
HETATM   34  C   UNL     1     -45.916  55.985 -60.344  1.00  0.00     0.001 A 
ENDBRANCH   2  25
TORSDOF 4
ENDMDL
MODEL 5
REMARK VINA RESULT:      -9.4      1.964      2.492
REMARK  4 active torsions:
REMARK  status: ('A' for Active; 'I' for Inactive)
REMARK    1  A    between atoms: C_2  and  C_3 
REMARK    2  A    between atoms: N_16  and  C_17 
REMARK    3  A    between atoms: C_17  and  C_18 
REMARK       I    between atoms: C_18  and  N_19 
REMARK    4  A    between atoms: N_19  and  C_20 
ROOT
HETATM    1  C   UNL     1     -40.964  57.622 -50.306  1.00  0.00     0.054 C 
HETATM    2  C   UNL     1     -41.600  56.875 -51.479  1.00  0.00     0.140 C 
HETATM    3  N   UNL     1     -43.043  56.956 -51.372  1.00  0.00    -0.321 N 
HETATM    4  C   UNL     1     -43.625  57.439 -52.518  1.00  0.00     0.326 C 
HETATM    5  O   UNL     1     -44.825  57.419 -52.725  1.00  0.00    -0.247 OA
HETATM    6  N   UNL     1     -42.648  57.893 -53.346  1.00  0.00    -0.259 N 
HETATM    7  C   UNL     1     -41.416  57.666 -52.800  1.00  0.00     0.261 C 
HETATM    8  O   UNL     1     -40.348  58.001 -53.298  1.00  0.00    -0.270 OA
HETATM    9  H   UNL     1     -43.599  56.483 -50.673  1.00  0.00     0.165 HD
ENDROOT
BRANCH   6  10
HETATM   10  C   UNL     1     -42.896  58.402 -54.677  1.00  0.00     0.240 C 
BRANCH  10  11
HETATM   11  C   UNL     1     -43.266  57.298 -55.663  1.00  0.00     0.240 C 
HETATM   12  N   UNL     1     -43.554  57.743 -56.938  1.00  0.00    -0.324 N 
HETATM   13  H   UNL     1     -43.313  58.702 -57.189  1.00  0.00     0.169 HD
HETATM   14  O   UNL     1     -43.168  56.117 -55.331  1.00  0.00    -0.271 OA
BRANCH  12  15
HETATM   15  C   UNL     1     -43.913  56.941 -58.054  1.00  0.00     0.064 A 
HETATM   16  C   UNL     1     -45.072  57.313 -58.753  1.00  0.00     0.093 A 
HETATM   17  C   UNL     1     -45.447  56.554 -59.885  1.00  0.00    -0.005 A 
HETATM   18  N   UNL     1     -45.791  58.389 -58.352  1.00  0.00    -0.258 NA
HETATM   19  C   UNL     1     -46.584  56.944 -60.604  1.00  0.00     0.015 A 
HETATM   20  C   UNL     1     -44.688  55.441 -60.280  1.00  0.00     0.014 A 
HETATM   21  C   UNL     1     -47.310  58.056 -60.197  1.00  0.00     0.020 A 
HETATM   22  C   UNL     1     -46.878  58.737 -59.075  1.00  0.00     0.117 A 
HETATM   23  C   UNL     1     -43.556  55.075 -59.562  1.00  0.00     0.003 A 
HETATM   24  C   UNL     1     -43.168  55.823 -58.452  1.00  0.00     0.032 A 
ENDBRANCH  12  15
ENDBRANCH  10  11
ENDBRANCH   6  10
BRANCH   2  25
HETATM   25  C   UNL     1     -41.111  55.432 -51.644  1.00  0.00    -0.020 A 
HETATM   26  C   UNL     1     -41.146  54.767 -52.888  1.00  0.00     0.022 A 
HETATM   27  C   UNL     1     -40.672  53.451 -53.050  1.00  0.00    -0.025 A 
HETATM   28  C   UNL     1     -40.140  52.769 -51.938  1.00  0.00    -0.026 A 
HETATM   29  C   UNL     1     -40.711  52.805 -54.297  1.00  0.00     0.012 A 
HETATM   30  C   UNL     1     -40.088  53.423 -50.700  1.00  0.00     0.013 A 
HETATM   31  C   UNL     1     -39.665  51.455 -52.098  1.00  0.00     0.012 A 
HETATM   32  C   UNL     1     -40.557  54.734 -50.558  1.00  0.00     0.011 A 
HETATM   33  C   UNL     1     -39.713  50.826 -53.343  1.00  0.00     0.001 A 
HETATM   34  C   UNL     1     -40.235  51.501 -54.443  1.00  0.00     0.001 A 
ENDBRANCH   2  25
TORSDOF 4
ENDMDL
MODEL 6
REMARK VINA RESULT:      -9.4      3.718      7.107
REMARK  4 active torsions:
REMARK  status: ('A' for Active; 'I' for Inactive)
REMARK    1  A    between atoms: C_2  and  C_3 
REMARK    2  A    between atoms: N_16  and  C_17 
REMARK    3  A    between atoms: C_17  and  C_18 
REMARK       I    between atoms: C_18  and  N_19 
REMARK    4  A    between atoms: N_19  and  C_20 
ROOT
HETATM    1  C   UNL     1     -43.059  56.574 -54.177  1.00  0.00     0.054 C 
HETATM    2  C   UNL     1     -41.947  56.620 -53.129  1.00  0.00     0.140 C 
HETATM    3  N   UNL     1     -40.928  57.558 -53.553  1.00  0.00    -0.321 N 
HETATM    4  C   UNL     1     -40.654  58.502 -52.594  1.00  0.00     0.326 C 
HETATM    5  O   UNL     1     -39.712  59.271 -52.654  1.00  0.00    -0.247 OA
HETATM    6  N   UNL     1     -41.576  58.395 -51.602  1.00  0.00    -0.259 N 
HETATM    7  C   UNL     1     -42.426  57.355 -51.850  1.00  0.00     0.261 C 
HETATM    8  O   UNL     1     -43.383  57.039 -51.152  1.00  0.00    -0.270 OA
HETATM    9  H   UNL     1     -40.293  57.413 -54.327  1.00  0.00     0.165 HD
ENDROOT
BRANCH   6  10
HETATM   10  C   UNL     1     -41.547  59.185 -50.391  1.00  0.00     0.240 C 
BRANCH  10  11
HETATM   11  C   UNL     1     -42.515  60.363 -50.439  1.00  0.00     0.240 C 
HETATM   12  N   UNL     1     -43.793  60.072 -50.004  1.00  0.00    -0.324 N 
HETATM   13  H   UNL     1     -43.954  59.196 -49.505  1.00  0.00     0.169 HD
HETATM   14  O   UNL     1     -42.103  61.487 -50.723  1.00  0.00    -0.271 OA
BRANCH  12  15
HETATM   15  C   UNL     1     -44.888  60.974 -49.927  1.00  0.00     0.064 A 
HETATM   16  C   UNL     1     -45.273  61.392 -48.643  1.00  0.00     0.093 A 
HETATM   17  C   UNL     1     -46.342  62.310 -48.529  1.00  0.00    -0.005 A 
HETATM   18  N   UNL     1     -44.613  60.934 -47.553  1.00  0.00    -0.258 NA
HETATM   19  C   UNL     1     -46.706  62.754 -47.252  1.00  0.00     0.015 A 
HETATM   20  C   UNL     1     -47.014  62.768 -49.673  1.00  0.00     0.014 A 
HETATM   21  C   UNL     1     -46.017  62.293 -46.137  1.00  0.00     0.020 A 
HETATM   22  C   UNL     1     -44.990  61.392 -46.339  1.00  0.00     0.117 A 
HETATM   23  C   UNL     1     -46.632  62.326 -50.934  1.00  0.00     0.003 A 
HETATM   24  C   UNL     1     -45.571  61.431 -51.061  1.00  0.00     0.032 A 
ENDBRANCH  12  15
ENDBRANCH  10  11
ENDBRANCH   6  10
BRANCH   2  25
HETATM   25  C   UNL     1     -41.361  55.249 -52.773  1.00  0.00    -0.020 A 
HETATM   26  C   UNL     1     -41.219  54.224 -53.733  1.00  0.00     0.022 A 
HETATM   27  C   UNL     1     -40.656  52.973 -53.417  1.00  0.00    -0.025 A 
HETATM   28  C   UNL     1     -40.213  52.729 -52.102  1.00  0.00    -0.026 A 
HETATM   29  C   UNL     1     -40.519  51.965 -54.386  1.00  0.00     0.012 A 
HETATM   30  C   UNL     1     -40.337  53.744 -51.144  1.00  0.00     0.013 A 
HETATM   31  C   UNL     1     -39.650  51.480 -51.785  1.00  0.00     0.012 A 
HETATM   32  C   UNL     1     -40.893  54.984 -51.476  1.00  0.00     0.011 A 
HETATM   33  C   UNL     1     -39.523  50.488 -52.758  1.00  0.00     0.001 A 
HETATM   34  C   UNL     1     -39.957  50.730 -54.058  1.00  0.00     0.001 A 
ENDBRANCH   2  25
TORSDOF 4
ENDMDL
MODEL 7
REMARK VINA RESULT:      -9.4      1.502      2.722
REMARK  4 active torsions:
REMARK  status: ('A' for Active; 'I' for Inactive)
REMARK    1  A    between atoms: C_2  and  C_3 
REMARK    2  A    between atoms: N_16  and  C_17 
REMARK    3  A    between atoms: C_17  and  C_18 
REMARK       I    between atoms: C_18  and  N_19 
REMARK    4  A    between atoms: N_19  and  C_20 
ROOT
HETATM    1  C   UNL     1     -44.406  56.727 -51.061  1.00  0.00     0.054 C 
HETATM    2  C   UNL     1     -43.899  56.893 -52.494  1.00  0.00     0.140 C 
HETATM    3  N   UNL     1     -45.027  57.100 -53.380  1.00  0.00    -0.321 N 
HETATM    4  C   UNL     1     -44.890  58.232 -54.145  1.00  0.00     0.326 C 
HETATM    5  O   UNL     1     -45.618  58.503 -55.083  1.00  0.00    -0.247 OA
HETATM    6  N   UNL     1     -43.821  58.937 -53.692  1.00  0.00    -0.259 N 
HETATM    7  C   UNL     1     -43.202  58.266 -52.676  1.00  0.00     0.261 C 
HETATM    8  O   UNL     1     -42.234  58.673 -52.045  1.00  0.00    -0.270 OA
HETATM    9  H   UNL     1     -45.709  56.394 -53.625  1.00  0.00     0.165 HD
ENDROOT
BRANCH   6  10
HETATM   10  C   UNL     1     -43.338  60.150 -54.315  1.00  0.00     0.240 C 
BRANCH  10  11
HETATM   11  C   UNL     1     -42.559  59.876 -55.598  1.00  0.00     0.240 C 
HETATM   12  N   UNL     1     -43.332  59.845 -56.742  1.00  0.00    -0.324 N 
HETATM   13  H   UNL     1     -44.289  60.194 -56.696  1.00  0.00     0.169 HD
HETATM   14  O   UNL     1     -41.330  59.829 -55.573  1.00  0.00    -0.271 OA
BRANCH  12  15
HETATM   15  C   UNL     1     -42.873  59.626 -58.068  1.00  0.00     0.064 A 
HETATM   16  C   UNL     1     -42.845  58.296 -58.516  1.00  0.00     0.093 A 
HETATM   17  C   UNL     1     -42.419  58.042 -59.840  1.00  0.00    -0.005 A 
HETATM   18  N   UNL     1     -43.240  57.294 -57.694  1.00  0.00    -0.258 NA
HETATM   19  C   UNL     1     -42.423  56.719 -60.299  1.00  0.00     0.015 A 
HETATM   20  C   UNL     1     -42.011  59.096 -60.672  1.00  0.00     0.014 A 
HETATM   21  C   UNL     1     -42.842  55.696 -59.458  1.00  0.00     0.020 A 
HETATM   22  C   UNL     1     -43.235  56.032 -58.177  1.00  0.00     0.117 A 
HETATM   23  C   UNL     1     -42.025  60.404 -60.203  1.00  0.00     0.003 A 
HETATM   24  C   UNL     1     -42.455  60.669 -58.905  1.00  0.00     0.032 A 
ENDBRANCH  12  15
ENDBRANCH  10  11
ENDBRANCH   6  10
BRANCH   2  25
HETATM   25  C   UNL     1     -42.986  55.759 -52.973  1.00  0.00    -0.020 A 
HETATM   26  C   UNL     1     -42.154  55.044 -52.086  1.00  0.00     0.022 A 
HETATM   27  C   UNL     1     -41.335  53.983 -52.517  1.00  0.00    -0.025 A 
HETATM   28  C   UNL     1     -41.343  53.614 -53.877  1.00  0.00    -0.026 A 
HETATM   29  C   UNL     1     -40.514  53.278 -51.620  1.00  0.00     0.012 A 
HETATM   30  C   UNL     1     -42.175  54.309 -54.764  1.00  0.00     0.013 A 
HETATM   31  C   UNL     1     -40.525  52.554 -54.308  1.00  0.00     0.012 A 
HETATM   32  C   UNL     1     -42.989  55.356 -54.318  1.00  0.00     0.011 A 
HETATM   33  C   UNL     1     -39.714  51.866 -53.405  1.00  0.00     0.001 A 
HETATM   34  C   UNL     1     -39.708  52.227 -52.061  1.00  0.00     0.001 A 
ENDBRANCH   2  25
TORSDOF 4
ENDMDL
MODEL 8
REMARK VINA RESULT:      -9.3      1.563      6.878
REMARK  4 active torsions:
REMARK  status: ('A' for Active; 'I' for Inactive)
REMARK    1  A    between atoms: C_2  and  C_3 
REMARK    2  A    between atoms: N_16  and  C_17 
REMARK    3  A    between atoms: C_17  and  C_18 
REMARK       I    between atoms: C_18  and  N_19 
REMARK    4  A    between atoms: N_19  and  C_20 
ROOT
HETATM    1  C   UNL     1     -44.086  61.213 -54.605  1.00  0.00     0.054 C 
HETATM    2  C   UNL     1     -43.127  60.025 -54.540  1.00  0.00     0.140 C 
HETATM    3  N   UNL     1     -41.943  60.405 -53.798  1.00  0.00    -0.321 N 
HETATM    4  C   UNL     1     -41.673  59.541 -52.765  1.00  0.00     0.326 C 
HETATM    5  O   UNL     1     -40.635  59.555 -52.128  1.00  0.00    -0.247 OA
HETATM    6  N   UNL     1     -42.724  58.692 -52.622  1.00  0.00    -0.259 N 
HETATM    7  C   UNL     1     -43.667  58.934 -53.580  1.00  0.00     0.261 C 
HETATM    8  O   UNL     1     -44.741  58.353 -53.680  1.00  0.00    -0.270 OA
HETATM    9  H   UNL     1     -41.236  61.051 -54.125  1.00  0.00     0.165 HD
ENDROOT
BRANCH   6  10
HETATM   10  C   UNL     1     -42.748  57.598 -51.676  1.00  0.00     0.240 C 
BRANCH  10  11
HETATM   11  C   UNL     1     -42.577  56.240 -52.351  1.00  0.00     0.240 C 
HETATM   12  N   UNL     1     -41.274  55.927 -52.685  1.00  0.00    -0.324 N 
HETATM   13  H   UNL     1     -40.519  56.492 -52.296  1.00  0.00     0.169 HD
HETATM   14  O   UNL     1     -43.535  55.473 -52.441  1.00  0.00    -0.271 OA
BRANCH  12  15
HETATM   15  C   UNL     1     -40.823  54.731 -53.306  1.00  0.00     0.064 A 
HETATM   16  C   UNL     1     -40.504  53.660 -52.456  1.00  0.00     0.093 A 
HETATM   17  C   UNL     1     -40.076  52.446 -53.039  1.00  0.00    -0.005 A 
HETATM   18  N   UNL     1     -40.628  53.797 -51.114  1.00  0.00    -0.258 NA
HETATM   19  C   UNL     1     -39.789  51.365 -52.195  1.00  0.00     0.015 A 
HETATM   20  C   UNL     1     -39.951  52.328 -54.432  1.00  0.00     0.014 A 
HETATM   21  C   UNL     1     -39.932  51.505 -50.820  1.00  0.00     0.020 A 
HETATM   22  C   UNL     1     -40.348  52.729 -50.334  1.00  0.00     0.117 A 
HETATM   23  C   UNL     1     -40.251  53.407 -55.255  1.00  0.00     0.003 A 
HETATM   24  C   UNL     1     -40.686  54.606 -54.694  1.00  0.00     0.032 A 
ENDBRANCH  12  15
ENDBRANCH  10  11
ENDBRANCH   6  10
BRANCH   2  25
HETATM   25  C   UNL     1     -42.785  59.418 -55.906  1.00  0.00    -0.020 A 
HETATM   26  C   UNL     1     -43.156  58.102 -56.254  1.00  0.00     0.022 A 
HETATM   27  C   UNL     1     -42.869  57.551 -57.518  1.00  0.00    -0.025 A 
HETATM   28  C   UNL     1     -42.192  58.335 -58.474  1.00  0.00    -0.026 A 
HETATM   29  C   UNL     1     -43.248  56.239 -57.849  1.00  0.00     0.012 A 
HETATM   30  C   UNL     1     -41.831  59.648 -58.144  1.00  0.00     0.013 A 
HETATM   31  C   UNL     1     -41.905  57.786 -59.736  1.00  0.00     0.012 A 
HETATM   32  C   UNL     1     -42.130  60.182 -56.885  1.00  0.00     0.011 A 
HETATM   33  C   UNL     1     -42.286  56.480 -60.049  1.00  0.00     0.001 A 
HETATM   34  C   UNL     1     -42.958  55.707 -59.107  1.00  0.00     0.001 A 
ENDBRANCH   2  25
TORSDOF 4
ENDMDL
MODEL 9
REMARK VINA RESULT:      -9.2      3.364      5.999
REMARK  4 active torsions:
REMARK  status: ('A' for Active; 'I' for Inactive)
REMARK    1  A    between atoms: C_2  and  C_3 
REMARK    2  A    between atoms: N_16  and  C_17 
REMARK    3  A    between atoms: C_17  and  C_18 
REMARK       I    between atoms: C_18  and  N_19 
REMARK    4  A    between atoms: N_19  and  C_20 
ROOT
HETATM    1  C   UNL     1     -43.473  56.263 -53.793  1.00  0.00     0.054 C 
HETATM    2  C   UNL     1     -42.154  56.361 -53.026  1.00  0.00     0.140 C 
HETATM    3  N   UNL     1     -41.272  57.286 -53.708  1.00  0.00    -0.321 N 
HETATM    4  C   UNL     1     -40.803  58.272 -52.875  1.00  0.00     0.326 C 
HETATM    5  O   UNL     1     -39.911  59.044 -53.178  1.00  0.00    -0.247 OA
HETATM    6  N   UNL     1     -41.476  58.203 -51.696  1.00  0.00    -0.259 N 
HETATM    7  C   UNL     1     -42.344  57.148 -51.704  1.00  0.00     0.261 C 
HETATM    8  O   UNL     1     -43.113  56.857 -50.795  1.00  0.00    -0.270 OA
HETATM    9  H   UNL     1     -40.825  57.112 -54.599  1.00  0.00     0.165 HD
ENDROOT
BRANCH   6  10
HETATM   10  C   UNL     1     -41.186  59.045 -50.557  1.00  0.00     0.240 C 
BRANCH  10  11
HETATM   11  C   UNL     1     -42.133  60.237 -50.457  1.00  0.00     0.240 C 
HETATM   12  N   UNL     1     -43.421  59.915 -50.079  1.00  0.00    -0.324 N 
HETATM   13  H   UNL     1     -43.605  58.983 -49.705  1.00  0.00     0.169 HD
HETATM   14  O   UNL     1     -41.697  61.381 -50.582  1.00  0.00    -0.271 OA
BRANCH  12  15
HETATM   15  C   UNL     1     -44.501  60.819 -49.894  1.00  0.00     0.064 A 
HETATM   16  C   UNL     1     -45.290  61.099 -51.020  1.00  0.00     0.093 A 
HETATM   17  C   UNL     1     -46.390  61.976 -50.868  1.00  0.00    -0.005 A 
HETATM   18  N   UNL     1     -45.005  60.520 -52.211  1.00  0.00    -0.258 NA
HETATM   19  C   UNL     1     -47.199  62.229 -51.983  1.00  0.00     0.015 A 
HETATM   20  C   UNL     1     -46.664  62.567 -49.625  1.00  0.00     0.014 A 
HETATM   21  C   UNL     1     -46.911  61.623 -53.199  1.00  0.00     0.020 A 
HETATM   22  C   UNL     1     -45.813  60.786 -53.261  1.00  0.00     0.117 A 
HETATM   23  C   UNL     1     -45.858  62.294 -48.527  1.00  0.00     0.003 A 
HETATM   24  C   UNL     1     -44.779  61.422 -48.660  1.00  0.00     0.032 A 
ENDBRANCH  12  15
ENDBRANCH  10  11
ENDBRANCH   6  10
BRANCH   2  25
HETATM   25  C   UNL     1     -41.482  55.010 -52.757  1.00  0.00    -0.020 A 
HETATM   26  C   UNL     1     -41.419  53.997 -53.737  1.00  0.00     0.022 A 
HETATM   27  C   UNL     1     -40.778  52.766 -53.503  1.00  0.00    -0.025 A 
HETATM   28  C   UNL     1     -40.174  52.530 -52.252  1.00  0.00    -0.026 A 
HETATM   29  C   UNL     1     -40.721  51.768 -54.492  1.00  0.00     0.012 A 
HETATM   30  C   UNL     1     -40.218  53.534 -51.276  1.00  0.00     0.013 A 
HETATM   31  C   UNL     1     -39.533  51.300 -52.017  1.00  0.00     0.012 A 
HETATM   32  C   UNL     1     -40.854  54.755 -51.527  1.00  0.00     0.011 A 
HETATM   33  C   UNL     1     -39.488  50.319 -53.009  1.00  0.00     0.001 A 
HETATM   34  C   UNL     1     -40.081  50.553 -54.246  1.00  0.00     0.001 A 
ENDBRANCH   2  25
TORSDOF 4
ENDMDL
MODEL 10
REMARK VINA RESULT:      -9.2      3.755      7.127
REMARK  4 active torsions:
REMARK  status: ('A' for Active; 'I' for Inactive)
REMARK    1  A    between atoms: C_2  and  C_3 
REMARK    2  A    between atoms: N_16  and  C_17 
REMARK    3  A    between atoms: C_17  and  C_18 
REMARK       I    between atoms: C_18  and  N_19 
REMARK    4  A    between atoms: N_19  and  C_20 
ROOT
HETATM    1  C   UNL     1     -41.765  57.721 -55.077  1.00  0.00     0.054 C 
HETATM    2  C   UNL     1     -41.814  57.006 -53.726  1.00  0.00     0.140 C 
HETATM    3  N   UNL     1     -41.182  57.837 -52.722  1.00  0.00    -0.321 N 
HETATM    4  C   UNL     1     -41.994  58.053 -51.635  1.00  0.00     0.326 C 
HETATM    5  O   UNL     1     -41.610  58.561 -50.597  1.00  0.00    -0.247 OA
HETATM    6  N   UNL     1     -43.237  57.585 -51.921  1.00  0.00    -0.259 N 
HETATM    7  C   UNL     1     -43.256  57.004 -53.158  1.00  0.00     0.261 C 
HETATM    8  O   UNL     1     -44.246  56.529 -53.702  1.00  0.00    -0.270 OA
HETATM    9  H   UNL     1     -40.190  58.027 -52.668  1.00  0.00     0.165 HD
ENDROOT
BRANCH   6  10
HETATM   10  C   UNL     1     -44.329  57.580 -50.973  1.00  0.00     0.240 C 
BRANCH  10  11
HETATM   11  C   UNL     1     -45.051  58.922 -50.907  1.00  0.00     0.240 C 
HETATM   12  N   UNL     1     -44.535  59.805 -49.979  1.00  0.00    -0.324 N 
HETATM   13  H   UNL     1     -43.625  59.603 -49.563  1.00  0.00     0.169 HD
HETATM   14  O   UNL     1     -45.926  59.192 -51.729  1.00  0.00    -0.271 OA
BRANCH  12  15
HETATM   15  C   UNL     1     -44.996  61.122 -49.714  1.00  0.00     0.064 A 
HETATM   16  C   UNL     1     -45.671  61.323 -48.500  1.00  0.00     0.093 A 
HETATM   17  C   UNL     1     -46.123  62.626 -48.190  1.00  0.00    -0.005 A 
HETATM   18  N   UNL     1     -45.858  60.287 -47.648  1.00  0.00    -0.258 NA
HETATM   19  C   UNL     1     -46.766  62.835 -46.964  1.00  0.00     0.015 A 
HETATM   20  C   UNL     1     -45.920  63.684 -49.091  1.00  0.00     0.014 A 
HETATM   21  C   UNL     1     -46.944  61.773 -46.086  1.00  0.00     0.020 A 
HETATM   22  C   UNL     1     -46.478  60.531 -46.472  1.00  0.00     0.117 A 
HETATM   23  C   UNL     1     -45.269  63.460 -50.298  1.00  0.00     0.003 A 
HETATM   24  C   UNL     1     -44.808  62.183 -50.609  1.00  0.00     0.032 A 
ENDBRANCH  12  15
ENDBRANCH  10  11
ENDBRANCH   6  10
BRANCH   2  25
HETATM   25  C   UNL     1     -41.242  55.584 -53.747  1.00  0.00    -0.020 A 
HETATM   26  C   UNL     1     -41.042  54.841 -52.564  1.00  0.00     0.022 A 
HETATM   27  C   UNL     1     -40.543  53.525 -52.581  1.00  0.00    -0.025 A 
HETATM   28  C   UNL     1     -40.234  52.920 -53.815  1.00  0.00    -0.026 A 
HETATM   29  C   UNL     1     -40.353  52.797 -51.393  1.00  0.00     0.012 A 
HETATM   30  C   UNL     1     -40.442  53.643 -54.997  1.00  0.00     0.013 A 
HETATM   31  C   UNL     1     -39.737  51.605 -53.833  1.00  0.00     0.012 A 
HETATM   32  C   UNL     1     -40.945  54.949 -54.963  1.00  0.00     0.011 A 
HETATM   33  C   UNL     1     -39.551  50.897 -52.645  1.00  0.00     0.001 A 
HETATM   34  C   UNL     1     -39.859  51.492 -51.425  1.00  0.00     0.001 A 
ENDBRANCH   2  25
TORSDOF 4
ENDMDL
