MODEL 1
REMARK VINA RESULT:      -9.6      0.000      0.000
REMARK  6 active torsions:
REMARK  status: ('A' for Active; 'I' for Inactive)
REMARK    1  A    between atoms: C_5  and  N_6 
REMARK       I    between atoms: N_6  and  C_7 
REMARK       I    between atoms: C_7  and  N_8 
REMARK    2  A    between atoms: N_8  and  C_9 
REMARK    3  A    between atoms: C_12  and  C_13 
REMARK    4  A    between atoms: C_13  and  C_14 
REMARK       I    between atoms: C_14  and  N_15 
REMARK    5  A    between atoms: N_18  and  C_19 
REMARK    6  A    between atoms: C_21  and  C_22 
ROOT
HETATM    1  C   UNL     1     -41.738  59.706 -52.301  1.00  0.00     0.162 C 
ENDROOT
BRANCH   1   2
HETATM    2  C   UNL     1     -42.307  60.309 -53.540  1.00  0.00     0.052 A 
HETATM    3  C   UNL     1     -43.307  61.267 -53.581  1.00  0.00     0.081 A 
HETATM    4  S   UNL     1     -43.480  61.868 -55.174  1.00  0.00    -0.062 SA
HETATM    5  C   UNL     1     -42.270  60.787 -55.688  1.00  0.00     0.174 A 
HETATM    6  N   UNL     1     -41.755  59.992 -54.780  1.00  0.00    -0.228 NA
BRANCH   5   7
HETATM    7  N   UNL     1     -41.953  60.888 -57.009  1.00  0.00    -0.287 N 
HETATM    8  C   UNL     1     -42.155  59.951 -57.979  1.00  0.00     0.326 C 
HETATM    9  N   UNL     1     -42.934  58.876 -57.643  1.00  0.00    -0.309 N 
HETATM   10  O   UNL     1     -41.682  60.179 -59.091  1.00  0.00    -0.247 OA
HETATM   11  H   UNL     1     -43.294  58.892 -56.694  1.00  0.00     0.170 HD
HETATM   12  H   UNL     1     -41.492  61.731 -57.318  1.00  0.00     0.172 HD
BRANCH   9  13
HETATM   13  C   UNL     1     -43.400  57.852 -58.492  1.00  0.00     0.036 A 
HETATM   14  C   UNL     1     -42.657  56.726 -58.843  1.00  0.00     0.030 A 
HETATM   15  C   UNL     1     -43.185  55.770 -59.718  1.00  0.00     0.009 A 
HETATM   16  C   UNL     1     -44.467  55.924 -60.255  1.00  0.00    -0.062 A 
HETATM   17  C   UNL     1     -44.998  54.926 -61.242  1.00  0.00     0.048 C 
HETATM   18  C   UNL     1     -45.212  57.054 -59.908  1.00  0.00     0.009 A 
HETATM   19  C   UNL     1     -44.683  58.002 -59.025  1.00  0.00     0.030 A 
ENDBRANCH   9  13
ENDBRANCH   5   7
ENDBRANCH   1   2
BRANCH   1  20
HETATM   20  C   UNL     1     -42.537  58.517 -51.794  1.00  0.00     0.225 C 
HETATM   21  N   UNL     1     -42.115  57.233 -52.134  1.00  0.00    -0.349 N 
HETATM   22  C   UNL     1     -42.515  56.148 -51.224  1.00  0.00     0.145 C 
HETATM   23  C   UNL     1     -40.917  56.977 -52.944  1.00  0.00     0.145 C 
HETATM   24  C   UNL     1     -42.372  54.725 -51.802  1.00  0.00     0.143 C 
HETATM   25  N   UNL     1     -41.053  54.561 -52.451  1.00  0.00    -0.378 N 
HETATM   26  C   UNL     1     -40.861  55.556 -53.526  1.00  0.00     0.143 C 
HETATM   27  O   UNL     1     -43.507  58.705 -51.053  1.00  0.00    -0.273 OA
BRANCH  25  28
HETATM   28  C   UNL     1     -40.600  53.276 -52.773  1.00  0.00     0.030 A 
HETATM   29  C   UNL     1     -40.402  52.339 -51.742  1.00  0.00     0.045 A 
HETATM   30  C   UNL     1     -39.943  51.033 -51.988  1.00  0.00     0.050 A 
HETATM   31  C   UNL     1     -39.703  50.641 -53.308  1.00  0.00     0.016 A 
HETATM   32  C   UNL     1     -39.918  51.540 -54.350  1.00  0.00     0.003 A 
HETATM   33  C   UNL     1     -40.363  52.840 -54.082  1.00  0.00     0.029 A 
BRANCH  30  34
HETATM   34  C   UNL     1     -39.727  50.065 -50.854  1.00  0.00     0.417 C 
HETATM   35  F   UNL     1     -40.115  50.547 -49.640  1.00  0.00    -0.166 F 
HETATM   36  F   UNL     1     -40.407  48.898 -51.025  1.00  0.00    -0.166 F 
HETATM   37  F   UNL     1     -38.417  49.716 -50.709  1.00  0.00    -0.166 F 
ENDBRANCH  30  34
ENDBRANCH  25  28
ENDBRANCH   1  20
TORSDOF 6
ENDMDL
MODEL 2
REMARK VINA RESULT:      -9.4      1.905      2.606
REMARK  6 active torsions:
REMARK  status: ('A' for Active; 'I' for Inactive)
REMARK    1  A    between atoms: C_5  and  N_6 
REMARK       I    between atoms: N_6  and  C_7 
REMARK       I    between atoms: C_7  and  N_8 
REMARK    2  A    between atoms: N_8  and  C_9 
REMARK    3  A    between atoms: C_12  and  C_13 
REMARK    4  A    between atoms: C_13  and  C_14 
REMARK       I    between atoms: C_14  and  N_15 
REMARK    5  A    between atoms: N_18  and  C_19 
REMARK    6  A    between atoms: C_21  and  C_22 
ROOT
HETATM    1  C   UNL     1     -44.281  60.292 -51.742  1.00  0.00     0.162 C 
ENDROOT
BRANCH   1   2
HETATM    2  C   UNL     1     -44.019  60.994 -53.031  1.00  0.00     0.052 A 
HETATM    3  C   UNL     1     -44.400  62.291 -53.332  1.00  0.00     0.081 A 
HETATM    4  S   UNL     1     -43.683  62.789 -54.804  1.00  0.00    -0.062 SA
HETATM    5  C   UNL     1     -42.978  61.246 -54.955  1.00  0.00     0.174 A 
HETATM    6  N   UNL     1     -43.245  60.374 -54.012  1.00  0.00    -0.228 NA
BRANCH   5   7
HETATM    7  N   UNL     1     -42.183  61.099 -56.051  1.00  0.00    -0.287 N 
HETATM    8  C   UNL     1     -42.174  60.054 -56.928  1.00  0.00     0.326 C 
HETATM    9  N   UNL     1     -43.199  59.153 -56.821  1.00  0.00    -0.309 N 
HETATM   10  O   UNL     1     -41.291  60.044 -57.784  1.00  0.00    -0.247 OA
HETATM   11  H   UNL     1     -43.876  59.362 -56.094  1.00  0.00     0.170 HD
HETATM   12  H   UNL     1     -41.499  61.818 -56.234  1.00  0.00     0.172 HD
BRANCH   9  13
HETATM   13  C   UNL     1     -43.491  58.077 -57.682  1.00  0.00     0.036 A 
HETATM   14  C   UNL     1     -44.277  58.182 -58.829  1.00  0.00     0.030 A 
HETATM   15  C   UNL     1     -44.544  57.055 -59.614  1.00  0.00     0.009 A 
HETATM   16  C   UNL     1     -44.026  55.803 -59.266  1.00  0.00    -0.062 A 
HETATM   17  C   UNL     1     -44.371  54.590 -60.080  1.00  0.00     0.048 C 
HETATM   18  C   UNL     1     -43.242  55.695 -58.116  1.00  0.00     0.009 A 
HETATM   19  C   UNL     1     -42.970  56.826 -57.339  1.00  0.00     0.030 A 
ENDBRANCH   9  13
ENDBRANCH   5   7
ENDBRANCH   1   2
BRANCH   1  20
HETATM   20  C   UNL     1     -43.011  59.931 -50.990  1.00  0.00     0.225 C 
HETATM   21  N   UNL     1     -42.585  58.604 -50.996  1.00  0.00    -0.349 N 
HETATM   22  C   UNL     1     -41.147  58.377 -50.779  1.00  0.00     0.145 C 
HETATM   23  C   UNL     1     -43.296  57.542 -51.717  1.00  0.00     0.145 C 
HETATM   24  C   UNL     1     -40.763  56.928 -50.415  1.00  0.00     0.143 C 
HETATM   25  N   UNL     1     -41.431  55.973 -51.325  1.00  0.00    -0.378 N 
HETATM   26  C   UNL     1     -42.900  56.125 -51.274  1.00  0.00     0.143 C 
HETATM   27  O   UNL     1     -42.358  60.820 -50.435  1.00  0.00    -0.273 OA
BRANCH  25  28
HETATM   28  C   UNL     1     -40.995  54.643 -51.365  1.00  0.00     0.030 A 
HETATM   29  C   UNL     1     -40.822  54.013 -52.612  1.00  0.00     0.045 A 
HETATM   30  C   UNL     1     -40.395  52.679 -52.732  1.00  0.00     0.050 A 
HETATM   31  C   UNL     1     -40.102  51.960 -51.569  1.00  0.00     0.016 A 
HETATM   32  C   UNL     1     -40.238  52.567 -50.323  1.00  0.00     0.003 A 
HETATM   33  C   UNL     1     -40.677  53.893 -50.227  1.00  0.00     0.029 A 
BRANCH  30  34
HETATM   34  C   UNL     1     -40.239  52.038 -54.086  1.00  0.00     0.417 C 
HETATM   35  F   UNL     1     -41.336  51.337 -54.491  1.00  0.00    -0.166 F 
HETATM   36  F   UNL     1     -39.994  52.946 -55.070  1.00  0.00    -0.166 F 
HETATM   37  F   UNL     1     -39.202  51.154 -54.127  1.00  0.00    -0.166 F 
ENDBRANCH  30  34
ENDBRANCH  25  28
ENDBRANCH   1  20
TORSDOF 6
ENDMDL
MODEL 3
REMARK VINA RESULT:      -9.2      4.032      8.457
REMARK  6 active torsions:
REMARK  status: ('A' for Active; 'I' for Inactive)
REMARK    1  A    between atoms: C_5  and  N_6 
REMARK       I    between atoms: N_6  and  C_7 
REMARK       I    between atoms: C_7  and  N_8 
REMARK    2  A    between atoms: N_8  and  C_9 
REMARK    3  A    between atoms: C_12  and  C_13 
REMARK    4  A    between atoms: C_13  and  C_14 
REMARK       I    between atoms: C_14  and  N_15 
REMARK    5  A    between atoms: N_18  and  C_19 
REMARK    6  A    between atoms: C_21  and  C_22 
ROOT
HETATM    1  C   UNL     1     -41.485  59.674 -53.332  1.00  0.00     0.162 C 
ENDROOT
BRANCH   1   2
HETATM    2  C   UNL     1     -42.132  58.807 -52.306  1.00  0.00     0.052 A 
HETATM    3  C   UNL     1     -43.497  58.648 -52.134  1.00  0.00     0.081 A 
HETATM    4  S   UNL     1     -43.806  57.378 -51.028  1.00  0.00    -0.062 SA
HETATM    5  C   UNL     1     -42.128  57.178 -50.825  1.00  0.00     0.174 A 
HETATM    6  N   UNL     1     -41.345  57.992 -51.494  1.00  0.00    -0.228 NA
BRANCH   5   7
HETATM    7  N   UNL     1     -41.783  56.160 -49.989  1.00  0.00    -0.287 N 
HETATM    8  C   UNL     1     -41.459  54.881 -50.338  1.00  0.00     0.326 C 
HETATM    9  N   UNL     1     -41.265  54.639 -51.672  1.00  0.00    -0.309 N 
HETATM   10  O   UNL     1     -41.300  54.071 -49.427  1.00  0.00    -0.247 OA
HETATM   11  H   UNL     1     -41.374  55.449 -52.272  1.00  0.00     0.170 HD
HETATM   12  H   UNL     1     -41.788  56.344 -48.997  1.00  0.00     0.172 HD
BRANCH   9  13
HETATM   13  C   UNL     1     -40.796  53.452 -52.270  1.00  0.00     0.036 A 
HETATM   14  C   UNL     1     -39.914  52.562 -51.659  1.00  0.00     0.030 A 
HETATM   15  C   UNL     1     -39.473  51.420 -52.337  1.00  0.00     0.009 A 
HETATM   16  C   UNL     1     -39.910  51.148 -53.638  1.00  0.00    -0.062 A 
HETATM   17  C   UNL     1     -39.382  49.955 -54.379  1.00  0.00     0.048 C 
HETATM   18  C   UNL     1     -40.791  52.040 -54.253  1.00  0.00     0.009 A 
HETATM   19  C   UNL     1     -41.236  53.176 -53.567  1.00  0.00     0.030 A 
ENDBRANCH   9  13
ENDBRANCH   5   7
ENDBRANCH   1   2
BRANCH   1  20
HETATM   20  C   UNL     1     -42.480  60.504 -54.126  1.00  0.00     0.225 C 
HETATM   21  N   UNL     1     -43.087  59.932 -55.243  1.00  0.00    -0.349 N 
HETATM   22  C   UNL     1     -44.393  60.487 -55.636  1.00  0.00     0.145 C 
HETATM   23  C   UNL     1     -42.824  58.554 -55.674  1.00  0.00     0.145 C 
HETATM   24  C   UNL     1     -44.857  60.116 -57.058  1.00  0.00     0.143 C 
HETATM   25  N   UNL     1     -44.680  58.667 -57.298  1.00  0.00    -0.378 N 
HETATM   26  C   UNL     1     -43.270  58.265 -57.115  1.00  0.00     0.143 C 
HETATM   27  O   UNL     1     -42.770  61.641 -53.741  1.00  0.00    -0.273 OA
BRANCH  25  28
HETATM   28  C   UNL     1     -45.307  58.071 -58.399  1.00  0.00     0.030 A 
HETATM   29  C   UNL     1     -44.831  56.835 -58.876  1.00  0.00     0.045 A 
HETATM   30  C   UNL     1     -45.405  56.180 -59.979  1.00  0.00     0.050 A 
HETATM   31  C   UNL     1     -46.508  56.763 -60.609  1.00  0.00     0.016 A 
HETATM   32  C   UNL     1     -47.018  57.972 -60.141  1.00  0.00     0.003 A 
HETATM   33  C   UNL     1     -46.423  58.614 -59.048  1.00  0.00     0.029 A 
BRANCH  30  34
HETATM   34  C   UNL     1     -44.854  54.866 -60.468  1.00  0.00     0.417 C 
HETATM   35  F   UNL     1     -44.920  54.712 -61.820  1.00  0.00    -0.166 F 
HETATM   36  F   UNL     1     -43.544  54.692 -60.137  1.00  0.00    -0.166 F 
HETATM   37  F   UNL     1     -45.515  53.796 -59.943  1.00  0.00    -0.166 F 
ENDBRANCH  30  34
ENDBRANCH  25  28
ENDBRANCH   1  20
TORSDOF 6
ENDMDL
MODEL 4
REMARK VINA RESULT:      -9.0      4.612      8.297
REMARK  6 active torsions:
REMARK  status: ('A' for Active; 'I' for Inactive)
REMARK    1  A    between atoms: C_5  and  N_6 
REMARK       I    between atoms: N_6  and  C_7 
REMARK       I    between atoms: C_7  and  N_8 
REMARK    2  A    between atoms: N_8  and  C_9 
REMARK    3  A    between atoms: C_12  and  C_13 
REMARK    4  A    between atoms: C_13  and  C_14 
REMARK       I    between atoms: C_14  and  N_15 
REMARK    5  A    between atoms: N_18  and  C_19 
REMARK    6  A    between atoms: C_21  and  C_22 
ROOT
HETATM    1  C   UNL     1     -42.676  59.557 -52.355  1.00  0.00     0.162 C 
ENDROOT
BRANCH   1   2
HETATM    2  C   UNL     1     -43.414  60.730 -51.805  1.00  0.00     0.052 A 
HETATM    3  C   UNL     1     -43.237  62.046 -52.197  1.00  0.00     0.081 A 
HETATM    4  S   UNL     1     -44.453  63.034 -51.508  1.00  0.00    -0.062 SA
HETATM    5  C   UNL     1     -45.079  61.666 -50.710  1.00  0.00     0.174 A 
HETATM    6  N   UNL     1     -44.448  60.530 -50.892  1.00  0.00    -0.228 NA
BRANCH   5   7
HETATM    7  N   UNL     1     -46.200  61.910 -49.977  1.00  0.00    -0.287 N 
HETATM    8  C   UNL     1     -46.285  62.045 -48.622  1.00  0.00     0.326 C 
HETATM    9  N   UNL     1     -45.102  62.146 -47.938  1.00  0.00    -0.309 N 
HETATM   10  O   UNL     1     -47.410  62.135 -48.133  1.00  0.00    -0.247 OA
HETATM   11  H   UNL     1     -44.271  62.118 -48.520  1.00  0.00     0.170 HD
HETATM   12  H   UNL     1     -47.078  61.974 -50.469  1.00  0.00     0.172 HD
BRANCH   9  13
HETATM   13  C   UNL     1     -44.921  62.425 -46.569  1.00  0.00     0.036 A 
HETATM   14  C   UNL     1     -45.020  63.699 -46.010  1.00  0.00     0.030 A 
HETATM   15  C   UNL     1     -44.795  63.894 -44.643  1.00  0.00     0.009 A 
HETATM   16  C   UNL     1     -44.470  62.817 -43.811  1.00  0.00    -0.062 A 
HETATM   17  C   UNL     1     -44.169  63.048 -42.359  1.00  0.00     0.048 C 
HETATM   18  C   UNL     1     -44.367  61.541 -44.370  1.00  0.00     0.009 A 
HETATM   19  C   UNL     1     -44.603  61.350 -45.736  1.00  0.00     0.030 A 
ENDBRANCH   9  13
ENDBRANCH   5   7
ENDBRANCH   1   2
BRANCH   1  20
HETATM   20  C   UNL     1     -42.114  58.646 -51.277  1.00  0.00     0.225 C 
HETATM   21  N   UNL     1     -41.826  57.322 -51.603  1.00  0.00    -0.349 N 
HETATM   22  C   UNL     1     -40.806  56.651 -50.782  1.00  0.00     0.145 C 
HETATM   23  C   UNL     1     -42.021  56.773 -52.951  1.00  0.00     0.145 C 
HETATM   24  C   UNL     1     -40.777  55.114 -50.905  1.00  0.00     0.143 C 
HETATM   25  N   UNL     1     -40.821  54.708 -52.326  1.00  0.00    -0.378 N 
HETATM   26  C   UNL     1     -42.027  55.237 -52.995  1.00  0.00     0.143 C 
HETATM   27  O   UNL     1     -41.875  59.104 -50.155  1.00  0.00    -0.273 OA
BRANCH  25  28
HETATM   28  C   UNL     1     -40.505  53.389 -52.675  1.00  0.00     0.030 A 
HETATM   29  C   UNL     1     -40.312  52.436 -51.657  1.00  0.00     0.045 A 
HETATM   30  C   UNL     1     -39.987  51.096 -51.930  1.00  0.00     0.050 A 
HETATM   31  C   UNL     1     -39.881  50.687 -53.263  1.00  0.00     0.016 A 
HETATM   32  C   UNL     1     -40.095  51.603 -54.290  1.00  0.00     0.003 A 
HETATM   33  C   UNL     1     -40.405  52.936 -53.996  1.00  0.00     0.029 A 
BRANCH  30  34
HETATM   34  C   UNL     1     -39.771  50.111 -50.811  1.00  0.00     0.417 C 
HETATM   35  F   UNL     1     -40.179  50.567 -49.593  1.00  0.00    -0.166 F 
HETATM   36  F   UNL     1     -40.433  48.938 -51.010  1.00  0.00    -0.166 F 
HETATM   37  F   UNL     1     -38.458  49.777 -50.657  1.00  0.00    -0.166 F 
ENDBRANCH  30  34
ENDBRANCH  25  28
ENDBRANCH   1  20
TORSDOF 6
ENDMDL
MODEL 5
REMARK VINA RESULT:      -8.9      5.293      7.137
REMARK  6 active torsions:
REMARK  status: ('A' for Active; 'I' for Inactive)
REMARK    1  A    between atoms: C_5  and  N_6 
REMARK       I    between atoms: N_6  and  C_7 
REMARK       I    between atoms: C_7  and  N_8 
REMARK    2  A    between atoms: N_8  and  C_9 
REMARK    3  A    between atoms: C_12  and  C_13 
REMARK    4  A    between atoms: C_13  and  C_14 
REMARK       I    between atoms: C_14  and  N_15 
REMARK    5  A    between atoms: N_18  and  C_19 
REMARK    6  A    between atoms: C_21  and  C_22 
ROOT
HETATM    1  C   UNL     1     -45.426  59.814 -52.179  1.00  0.00     0.162 C 
ENDROOT
BRANCH   1   2
HETATM    2  C   UNL     1     -45.459  61.018 -51.300  1.00  0.00     0.052 A 
HETATM    3  C   UNL     1     -44.379  61.839 -51.020  1.00  0.00     0.081 A 
HETATM    4  S   UNL     1     -44.904  63.238 -50.186  1.00  0.00    -0.062 SA
HETATM    5  C   UNL     1     -46.493  62.628 -50.210  1.00  0.00     0.174 A 
HETATM    6  N   UNL     1     -46.673  61.454 -50.769  1.00  0.00    -0.228 NA
BRANCH   5   7
HETATM    7  N   UNL     1     -47.419  63.456 -49.654  1.00  0.00    -0.287 N 
HETATM    8  C   UNL     1     -48.561  63.925 -50.235  1.00  0.00     0.326 C 
HETATM    9  N   UNL     1     -48.924  63.353 -51.426  1.00  0.00    -0.309 N 
HETATM   10  O   UNL     1     -49.206  64.768 -49.614  1.00  0.00    -0.247 OA
HETATM   11  H   UNL     1     -48.301  62.622 -51.754  1.00  0.00     0.170 HD
HETATM   12  H   UNL     1     -47.246  63.794 -48.719  1.00  0.00     0.172 HD
BRANCH   9  13
HETATM   13  C   UNL     1     -50.114  63.559 -52.151  1.00  0.00     0.036 A 
HETATM   14  C   UNL     1     -51.348  63.011 -51.804  1.00  0.00     0.030 A 
HETATM   15  C   UNL     1     -52.477  63.241 -52.598  1.00  0.00     0.009 A 
HETATM   16  C   UNL     1     -52.391  64.026 -53.752  1.00  0.00    -0.062 A 
HETATM   17  C   UNL     1     -53.593  64.214 -54.630  1.00  0.00     0.048 C 
HETATM   18  C   UNL     1     -51.155  64.574 -54.104  1.00  0.00     0.009 A 
HETATM   19  C   UNL     1     -50.031  64.349 -53.301  1.00  0.00     0.030 A 
ENDBRANCH   9  13
ENDBRANCH   5   7
ENDBRANCH   1   2
BRANCH   1  20
HETATM   20  C   UNL     1     -45.262  58.515 -51.408  1.00  0.00     0.225 C 
HETATM   21  N   UNL     1     -44.437  57.524 -51.936  1.00  0.00    -0.349 N 
HETATM   22  C   UNL     1     -43.855  56.574 -50.974  1.00  0.00     0.145 C 
HETATM   23  C   UNL     1     -43.701  57.687 -53.196  1.00  0.00     0.145 C 
HETATM   24  C   UNL     1     -43.273  55.289 -51.598  1.00  0.00     0.143 C 
HETATM   25  N   UNL     1     -42.425  55.618 -52.764  1.00  0.00    -0.378 N 
HETATM   26  C   UNL     1     -43.189  56.364 -53.785  1.00  0.00     0.143 C 
HETATM   27  O   UNL     1     -45.815  58.383 -50.312  1.00  0.00    -0.273 OA
BRANCH  25  28
HETATM   28  C   UNL     1     -41.569  54.643 -53.289  1.00  0.00     0.030 A 
HETATM   29  C   UNL     1     -41.106  53.611 -52.451  1.00  0.00     0.045 A 
HETATM   30  C   UNL     1     -40.239  52.601 -52.905  1.00  0.00     0.050 A 
HETATM   31  C   UNL     1     -39.846  52.605 -54.246  1.00  0.00     0.016 A 
HETATM   32  C   UNL     1     -40.312  53.598 -55.105  1.00  0.00     0.003 A 
HETATM   33  C   UNL     1     -41.164  54.602 -54.628  1.00  0.00     0.029 A 
BRANCH  30  34
HETATM   34  C   UNL     1     -39.753  51.524 -51.970  1.00  0.00     0.417 C 
HETATM   35  F   UNL     1     -40.306  51.587 -50.726  1.00  0.00    -0.166 F 
HETATM   36  F   UNL     1     -40.019  50.271 -52.433  1.00  0.00    -0.166 F 
HETATM   37  F   UNL     1     -38.405  51.572 -51.777  1.00  0.00    -0.166 F 
ENDBRANCH  30  34
ENDBRANCH  25  28
ENDBRANCH   1  20
TORSDOF 6
ENDMDL
MODEL 6
REMARK VINA RESULT:      -8.8      2.502      4.626
REMARK  6 active torsions:
REMARK  status: ('A' for Active; 'I' for Inactive)
REMARK    1  A    between atoms: C_5  and  N_6 
REMARK       I    between atoms: N_6  and  C_7 
REMARK       I    between atoms: C_7  and  N_8 
REMARK    2  A    between atoms: N_8  and  C_9 
REMARK    3  A    between atoms: C_12  and  C_13 
REMARK    4  A    between atoms: C_13  and  C_14 
REMARK       I    between atoms: C_14  and  N_15 
REMARK    5  A    between atoms: N_18  and  C_19 
REMARK    6  A    between atoms: C_21  and  C_22 
ROOT
HETATM    1  C   UNL     1     -44.359  61.587 -55.127  1.00  0.00     0.162 C 
ENDROOT
BRANCH   1   2
HETATM    2  C   UNL     1     -43.780  60.944 -56.341  1.00  0.00     0.052 A 
HETATM    3  C   UNL     1     -42.770  61.474 -57.127  1.00  0.00     0.081 A 
HETATM    4  S   UNL     1     -42.232  60.308 -58.258  1.00  0.00    -0.062 SA
HETATM    5  C   UNL     1     -43.402  59.224 -57.663  1.00  0.00     0.174 A 
HETATM    6  N   UNL     1     -44.183  59.659 -56.702  1.00  0.00    -0.228 NA
BRANCH   5   7
HETATM    7  N   UNL     1     -43.378  57.996 -58.250  1.00  0.00    -0.287 N 
HETATM    8  C   UNL     1     -42.831  56.852 -57.746  1.00  0.00     0.326 C 
HETATM    9  N   UNL     1     -42.442  56.883 -56.433  1.00  0.00    -0.309 N 
HETATM   10  O   UNL     1     -42.797  55.870 -58.485  1.00  0.00    -0.247 OA
HETATM   11  H   UNL     1     -42.611  57.765 -55.960  1.00  0.00     0.170 HD
HETATM   12  H   UNL     1     -43.778  57.909 -59.172  1.00  0.00     0.172 HD
BRANCH   9  13
HETATM   13  C   UNL     1     -41.983  55.808 -55.647  1.00  0.00     0.036 A 
HETATM   14  C   UNL     1     -40.789  55.818 -54.927  1.00  0.00     0.030 A 
HETATM   15  C   UNL     1     -40.392  54.695 -54.194  1.00  0.00     0.009 A 
HETATM   16  C   UNL     1     -41.184  53.542 -54.167  1.00  0.00    -0.062 A 
HETATM   17  C   UNL     1     -40.717  52.321 -53.429  1.00  0.00     0.048 C 
HETATM   18  C   UNL     1     -42.378  53.529 -54.890  1.00  0.00     0.009 A 
HETATM   19  C   UNL     1     -42.776  54.658 -55.614  1.00  0.00     0.030 A 
ENDBRANCH   9  13
ENDBRANCH   5   7
ENDBRANCH   1   2
BRANCH   1  20
HETATM   20  C   UNL     1     -43.491  61.421 -53.891  1.00  0.00     0.225 C 
HETATM   21  N   UNL     1     -43.405  60.162 -53.299  1.00  0.00    -0.349 N 
HETATM   22  C   UNL     1     -42.190  59.889 -52.513  1.00  0.00     0.145 C 
HETATM   23  C   UNL     1     -44.098  58.982 -53.830  1.00  0.00     0.145 C 
HETATM   24  C   UNL     1     -42.282  58.670 -51.573  1.00  0.00     0.143 C 
HETATM   25  N   UNL     1     -42.855  57.509 -52.288  1.00  0.00    -0.378 N 
HETATM   26  C   UNL     1     -44.194  57.822 -52.828  1.00  0.00     0.143 C 
HETATM   27  O   UNL     1     -42.842  62.383 -53.468  1.00  0.00    -0.273 OA
BRANCH  25  28
HETATM   28  C   UNL     1     -42.750  56.233 -51.722  1.00  0.00     0.030 A 
HETATM   29  C   UNL     1     -41.657  55.938 -50.886  1.00  0.00     0.045 A 
HETATM   30  C   UNL     1     -41.481  54.678 -50.288  1.00  0.00     0.050 A 
HETATM   31  C   UNL     1     -42.445  53.690 -50.507  1.00  0.00     0.016 A 
HETATM   32  C   UNL     1     -43.552  53.962 -51.307  1.00  0.00     0.003 A 
HETATM   33  C   UNL     1     -43.700  55.220 -51.903  1.00  0.00     0.029 A 
BRANCH  30  34
HETATM   34  C   UNL     1     -40.287  54.399 -49.414  1.00  0.00     0.417 C 
HETATM   35  F   UNL     1     -39.164  55.075 -49.787  1.00  0.00    -0.166 F 
HETATM   36  F   UNL     1     -40.504  54.729 -48.110  1.00  0.00    -0.166 F 
HETATM   37  F   UNL     1     -39.939  53.081 -49.412  1.00  0.00    -0.166 F 
ENDBRANCH  30  34
ENDBRANCH  25  28
ENDBRANCH   1  20
TORSDOF 6
ENDMDL
MODEL 7
REMARK VINA RESULT:      -8.8      3.438      6.675
REMARK  6 active torsions:
REMARK  status: ('A' for Active; 'I' for Inactive)
REMARK    1  A    between atoms: C_5  and  N_6 
REMARK       I    between atoms: N_6  and  C_7 
REMARK       I    between atoms: C_7  and  N_8 
REMARK    2  A    between atoms: N_8  and  C_9 
REMARK    3  A    between atoms: C_12  and  C_13 
REMARK    4  A    between atoms: C_13  and  C_14 
REMARK       I    between atoms: C_14  and  N_15 
REMARK    5  A    between atoms: N_18  and  C_19 
REMARK    6  A    between atoms: C_21  and  C_22 
ROOT
HETATM    1  C   UNL     1     -44.952  58.586 -55.276  1.00  0.00     0.162 C 
ENDROOT
BRANCH   1   2
HETATM    2  C   UNL     1     -44.471  59.996 -55.231  1.00  0.00     0.052 A 
HETATM    3  C   UNL     1     -44.757  60.973 -56.170  1.00  0.00     0.081 A 
HETATM    4  S   UNL     1     -44.228  62.501 -55.610  1.00  0.00    -0.062 SA
HETATM    5  C   UNL     1     -43.619  61.750 -54.208  1.00  0.00     0.174 A 
HETATM    6  N   UNL     1     -43.753  60.447 -54.124  1.00  0.00    -0.228 NA
BRANCH   5   7
HETATM    7  N   UNL     1     -43.070  62.609 -53.306  1.00  0.00    -0.287 N 
HETATM    8  C   UNL     1     -43.503  62.859 -52.037  1.00  0.00     0.326 C 
HETATM    9  N   UNL     1     -44.465  62.021 -51.539  1.00  0.00    -0.309 N 
HETATM   10  O   UNL     1     -42.948  63.767 -51.420  1.00  0.00    -0.247 OA
HETATM   11  H   UNL     1     -44.756  61.283 -52.173  1.00  0.00     0.170 HD
HETATM   12  H   UNL     1     -42.271  63.151 -53.600  1.00  0.00     0.172 HD
BRANCH   9  13
HETATM   13  C   UNL     1     -44.975  61.981 -50.227  1.00  0.00     0.036 A 
HETATM   14  C   UNL     1     -44.351  61.329 -49.163  1.00  0.00     0.030 A 
HETATM   15  C   UNL     1     -44.943  61.311 -47.895  1.00  0.00     0.009 A 
HETATM   16  C   UNL     1     -46.167  61.948 -47.669  1.00  0.00    -0.062 A 
HETATM   17  C   UNL     1     -46.823  61.869 -46.321  1.00  0.00     0.048 C 
HETATM   18  C   UNL     1     -46.796  62.598 -48.733  1.00  0.00     0.009 A 
HETATM   19  C   UNL     1     -46.196  62.621 -49.997  1.00  0.00     0.030 A 
ENDBRANCH   9  13
ENDBRANCH   5   7
ENDBRANCH   1   2
BRANCH   1  20
HETATM   20  C   UNL     1     -44.031  57.665 -56.059  1.00  0.00     0.225 C 
HETATM   21  N   UNL     1     -43.236  56.760 -55.358  1.00  0.00    -0.349 N 
HETATM   22  C   UNL     1     -42.814  55.554 -56.089  1.00  0.00     0.145 C 
HETATM   23  C   UNL     1     -43.264  56.641 -53.895  1.00  0.00     0.145 C 
HETATM   24  C   UNL     1     -41.651  54.774 -55.443  1.00  0.00     0.143 C 
HETATM   25  N   UNL     1     -41.891  54.592 -53.995  1.00  0.00    -0.378 N 
HETATM   26  C   UNL     1     -42.055  55.893 -53.314  1.00  0.00     0.143 C 
HETATM   27  O   UNL     1     -44.042  57.697 -57.294  1.00  0.00    -0.273 OA
BRANCH  25  28
HETATM   28  C   UNL     1     -41.121  53.666 -53.281  1.00  0.00     0.030 A 
HETATM   29  C   UNL     1     -40.825  52.421 -53.867  1.00  0.00     0.045 A 
HETATM   30  C   UNL     1     -40.065  51.438 -53.209  1.00  0.00     0.050 A 
HETATM   31  C   UNL     1     -39.558  51.721 -51.937  1.00  0.00     0.016 A 
HETATM   32  C   UNL     1     -39.812  52.955 -51.345  1.00  0.00     0.003 A 
HETATM   33  C   UNL     1     -40.583  53.914 -52.013  1.00  0.00     0.029 A 
BRANCH  30  34
HETATM   34  C   UNL     1     -39.785  50.112 -53.865  1.00  0.00     0.417 C 
HETATM   35  F   UNL     1     -38.688  50.120 -54.673  1.00  0.00    -0.166 F 
HETATM   36  F   UNL     1     -39.574  49.115 -52.961  1.00  0.00    -0.166 F 
HETATM   37  F   UNL     1     -40.817  49.691 -54.650  1.00  0.00    -0.166 F 
ENDBRANCH  30  34
ENDBRANCH  25  28
ENDBRANCH   1  20
TORSDOF 6
ENDMDL
MODEL 8
REMARK VINA RESULT:      -8.8      4.816      6.521
REMARK  6 active torsions:
REMARK  status: ('A' for Active; 'I' for Inactive)
REMARK    1  A    between atoms: C_5  and  N_6 
REMARK       I    between atoms: N_6  and  C_7 
REMARK       I    between atoms: C_7  and  N_8 
REMARK    2  A    between atoms: N_8  and  C_9 
REMARK    3  A    between atoms: C_12  and  C_13 
REMARK    4  A    between atoms: C_13  and  C_14 
REMARK       I    between atoms: C_14  and  N_15 
REMARK    5  A    between atoms: N_18  and  C_19 
REMARK    6  A    between atoms: C_21  and  C_22 
ROOT
HETATM    1  C   UNL     1     -45.259  58.104 -55.508  1.00  0.00     0.162 C 
ENDROOT
BRANCH   1   2
HETATM    2  C   UNL     1     -45.897  59.082 -56.435  1.00  0.00     0.052 A 
HETATM    3  C   UNL     1     -46.492  58.770 -57.646  1.00  0.00     0.081 A 
HETATM    4  S   UNL     1     -47.320  60.134 -58.264  1.00  0.00    -0.062 SA
HETATM    5  C   UNL     1     -46.787  61.036 -56.921  1.00  0.00     0.174 A 
HETATM    6  N   UNL     1     -46.021  60.417 -56.054  1.00  0.00    -0.228 NA
BRANCH   5   7
HETATM    7  N   UNL     1     -47.245  62.318 -56.891  1.00  0.00    -0.287 N 
HETATM    8  C   UNL     1     -48.275  62.807 -56.141  1.00  0.00     0.326 C 
HETATM    9  N   UNL     1     -48.775  61.981 -55.170  1.00  0.00    -0.309 N 
HETATM   10  O   UNL     1     -48.621  63.969 -56.348  1.00  0.00    -0.247 OA
HETATM   11  H   UNL     1     -48.316  61.079 -55.101  1.00  0.00     0.170 HD
HETATM   12  H   UNL     1     -46.806  62.988 -57.504  1.00  0.00     0.172 HD
BRANCH   9  13
HETATM   13  C   UNL     1     -49.732  62.294 -54.184  1.00  0.00     0.036 A 
HETATM   14  C   UNL     1     -49.452  63.002 -53.016  1.00  0.00     0.030 A 
HETATM   15  C   UNL     1     -50.457  63.243 -52.073  1.00  0.00     0.009 A 
HETATM   16  C   UNL     1     -51.761  62.783 -52.284  1.00  0.00    -0.062 A 
HETATM   17  C   UNL     1     -52.815  62.993 -51.237  1.00  0.00     0.048 C 
HETATM   18  C   UNL     1     -52.043  62.071 -53.452  1.00  0.00     0.009 A 
HETATM   19  C   UNL     1     -51.037  61.840 -54.396  1.00  0.00     0.030 A 
ENDBRANCH   9  13
ENDBRANCH   5   7
ENDBRANCH   1   2
BRANCH   1  20
HETATM   20  C   UNL     1     -43.765  57.948 -55.740  1.00  0.00     0.225 C 
HETATM   21  N   UNL     1     -43.074  56.977 -55.017  1.00  0.00    -0.349 N 
HETATM   22  C   UNL     1     -41.836  56.464 -55.626  1.00  0.00     0.145 C 
HETATM   23  C   UNL     1     -43.730  56.082 -54.056  1.00  0.00     0.145 C 
HETATM   24  C   UNL     1     -40.907  55.695 -54.664  1.00  0.00     0.143 C 
HETATM   25  N   UNL     1     -41.681  54.717 -53.870  1.00  0.00    -0.378 N 
HETATM   26  C   UNL     1     -42.752  55.384 -53.099  1.00  0.00     0.143 C 
HETATM   27  O   UNL     1     -43.205  58.641 -56.596  1.00  0.00    -0.273 OA
BRANCH  25  28
HETATM   28  C   UNL     1     -41.004  53.717 -53.161  1.00  0.00     0.030 A 
HETATM   29  C   UNL     1     -40.758  52.480 -53.784  1.00  0.00     0.045 A 
HETATM   30  C   UNL     1     -40.091  51.426 -53.134  1.00  0.00     0.050 A 
HETATM   31  C   UNL     1     -39.629  51.627 -51.830  1.00  0.00     0.016 A 
HETATM   32  C   UNL     1     -39.834  52.851 -51.199  1.00  0.00     0.003 A 
HETATM   33  C   UNL     1     -40.512  53.882 -51.861  1.00  0.00     0.029 A 
BRANCH  30  34
HETATM   34  C   UNL     1     -39.862  50.111 -53.831  1.00  0.00     0.417 C 
HETATM   35  F   UNL     1     -38.790  50.115 -54.672  1.00  0.00    -0.166 F 
HETATM   36  F   UNL     1     -39.648  49.087 -52.959  1.00  0.00    -0.166 F 
HETATM   37  F   UNL     1     -40.927  49.734 -54.594  1.00  0.00    -0.166 F 
ENDBRANCH  30  34
ENDBRANCH  25  28
ENDBRANCH   1  20
TORSDOF 6
ENDMDL
MODEL 9
REMARK VINA RESULT:      -8.5      5.038      6.211
REMARK  6 active torsions:
REMARK  status: ('A' for Active; 'I' for Inactive)
REMARK    1  A    between atoms: C_5  and  N_6 
REMARK       I    between atoms: N_6  and  C_7 
REMARK       I    between atoms: C_7  and  N_8 
REMARK    2  A    between atoms: N_8  and  C_9 
REMARK    3  A    between atoms: C_12  and  C_13 
REMARK    4  A    between atoms: C_13  and  C_14 
REMARK       I    between atoms: C_14  and  N_15 
REMARK    5  A    between atoms: N_18  and  C_19 
REMARK    6  A    between atoms: C_21  and  C_22 
ROOT
HETATM    1  C   UNL     1     -45.462  58.020 -55.697  1.00  0.00     0.162 C 
ENDROOT
BRANCH   1   2
HETATM    2  C   UNL     1     -45.868  58.353 -57.093  1.00  0.00     0.052 A 
HETATM    3  C   UNL     1     -45.600  57.583 -58.213  1.00  0.00     0.081 A 
HETATM    4  S   UNL     1     -46.458  58.190 -59.563  1.00  0.00    -0.062 SA
HETATM    5  C   UNL     1     -47.067  59.442 -58.584  1.00  0.00     0.174 A 
HETATM    6  N   UNL     1     -46.671  59.467 -57.333  1.00  0.00    -0.228 NA
BRANCH   5   7
HETATM    7  N   UNL     1     -47.931  60.281 -59.220  1.00  0.00    -0.287 N 
HETATM    8  C   UNL     1     -49.153  60.695 -58.776  1.00  0.00     0.326 C 
HETATM    9  N   UNL     1     -49.466  60.406 -57.475  1.00  0.00    -0.309 N 
HETATM   10  O   UNL     1     -49.842  61.352 -59.555  1.00  0.00    -0.247 OA
HETATM   11  H   UNL     1     -48.741  59.913 -56.963  1.00  0.00     0.170 HD
HETATM   12  H   UNL     1     -47.670  60.620 -60.133  1.00  0.00     0.172 HD
BRANCH   9  13
HETATM   13  C   UNL     1     -50.591  60.837 -56.744  1.00  0.00     0.036 A 
HETATM   14  C   UNL     1     -51.753  60.084 -56.579  1.00  0.00     0.030 A 
HETATM   15  C   UNL     1     -52.838  60.600 -55.863  1.00  0.00     0.009 A 
HETATM   16  C   UNL     1     -52.778  61.878 -55.296  1.00  0.00    -0.062 A 
HETATM   17  C   UNL     1     -53.971  62.446 -54.585  1.00  0.00     0.048 C 
HETATM   18  C   UNL     1     -51.616  62.635 -55.464  1.00  0.00     0.009 A 
HETATM   19  C   UNL     1     -50.530  62.111 -56.173  1.00  0.00     0.030 A 
ENDBRANCH   9  13
ENDBRANCH   5   7
ENDBRANCH   1   2
BRANCH   1  20
HETATM   20  C   UNL     1     -43.971  58.185 -55.453  1.00  0.00     0.225 C 
HETATM   21  N   UNL     1     -43.283  57.162 -54.803  1.00  0.00    -0.349 N 
HETATM   22  C   UNL     1     -41.839  57.068 -55.073  1.00  0.00     0.145 C 
HETATM   23  C   UNL     1     -43.932  55.921 -54.361  1.00  0.00     0.145 C 
HETATM   24  C   UNL     1     -41.045  56.198 -54.077  1.00  0.00     0.143 C 
HETATM   25  N   UNL     1     -41.738  54.912 -53.847  1.00  0.00    -0.378 N 
HETATM   26  C   UNL     1     -43.107  55.127 -53.336  1.00  0.00     0.143 C 
HETATM   27  O   UNL     1     -43.391  59.188 -55.879  1.00  0.00    -0.273 OA
BRANCH  25  28
HETATM   28  C   UNL     1     -41.052  53.864 -53.222  1.00  0.00     0.030 A 
HETATM   29  C   UNL     1     -40.880  52.647 -53.908  1.00  0.00     0.045 A 
HETATM   30  C   UNL     1     -40.209  51.549 -53.342  1.00  0.00     0.050 A 
HETATM   31  C   UNL     1     -39.666  51.680 -52.061  1.00  0.00     0.016 A 
HETATM   32  C   UNL     1     -39.798  52.882 -51.369  1.00  0.00     0.003 A 
HETATM   33  C   UNL     1     -40.481  53.959 -51.947  1.00  0.00     0.029 A 
BRANCH  30  34
HETATM   34  C   UNL     1     -40.061  50.259 -54.105  1.00  0.00     0.417 C 
HETATM   35  F   UNL     1     -41.228  49.801 -54.641  1.00  0.00    -0.166 F 
HETATM   36  F   UNL     1     -39.190  50.363 -55.147  1.00  0.00    -0.166 F 
HETATM   37  F   UNL     1     -39.591  49.244 -53.326  1.00  0.00    -0.166 F 
ENDBRANCH  30  34
ENDBRANCH  25  28
ENDBRANCH   1  20
TORSDOF 6
ENDMDL
MODEL 10
REMARK VINA RESULT:      -8.5      2.458      3.007
REMARK  6 active torsions:
REMARK  status: ('A' for Active; 'I' for Inactive)
REMARK    1  A    between atoms: C_5  and  N_6 
REMARK       I    between atoms: N_6  and  C_7 
REMARK       I    between atoms: C_7  and  N_8 
REMARK    2  A    between atoms: N_8  and  C_9 
REMARK    3  A    between atoms: C_12  and  C_13 
REMARK    4  A    between atoms: C_13  and  C_14 
REMARK       I    between atoms: C_14  and  N_15 
REMARK    5  A    between atoms: N_18  and  C_19 
REMARK    6  A    between atoms: C_21  and  C_22 
ROOT
HETATM    1  C   UNL     1     -44.619  60.251 -51.311  1.00  0.00     0.162 C 
ENDROOT
BRANCH   1   2
HETATM    2  C   UNL     1     -45.595  60.839 -52.271  1.00  0.00     0.052 A 
HETATM    3  C   UNL     1     -46.804  61.424 -51.932  1.00  0.00     0.081 A 
HETATM    4  S   UNL     1     -47.489  62.195 -53.297  1.00  0.00    -0.062 SA
HETATM    5  C   UNL     1     -46.174  61.653 -54.233  1.00  0.00     0.174 A 
HETATM    6  N   UNL     1     -45.269  60.924 -53.625  1.00  0.00    -0.228 NA
BRANCH   5   7
HETATM    7  N   UNL     1     -46.202  62.067 -55.531  1.00  0.00    -0.287 N 
HETATM    8  C   UNL     1     -46.017  61.302 -56.644  1.00  0.00     0.326 C 
HETATM    9  N   UNL     1     -45.998  59.944 -56.461  1.00  0.00    -0.309 N 
HETATM   10  O   UNL     1     -45.952  61.884 -57.725  1.00  0.00    -0.247 OA
HETATM   11  H   UNL     1     -46.135  59.643 -55.502  1.00  0.00     0.170 HD
HETATM   12  H   UNL     1     -46.347  63.050 -55.706  1.00  0.00     0.172 HD
BRANCH   9  13
HETATM   13  C   UNL     1     -45.959  58.944 -57.452  1.00  0.00     0.036 A 
HETATM   14  C   UNL     1     -47.089  58.317 -57.977  1.00  0.00     0.030 A 
HETATM   15  C   UNL     1     -46.959  57.308 -58.938  1.00  0.00     0.009 A 
HETATM   16  C   UNL     1     -45.698  56.912 -59.394  1.00  0.00    -0.062 A 
HETATM   17  C   UNL     1     -45.568  55.787 -60.378  1.00  0.00     0.048 C 
HETATM   18  C   UNL     1     -44.565  57.537 -58.867  1.00  0.00     0.009 A 
HETATM   19  C   UNL     1     -44.699  58.551 -57.912  1.00  0.00     0.030 A 
ENDBRANCH   9  13
ENDBRANCH   5   7
ENDBRANCH   1   2
BRANCH   1  20
HETATM   20  C   UNL     1     -44.900  58.792 -50.991  1.00  0.00     0.225 C 
HETATM   21  N   UNL     1     -44.142  57.810 -51.625  1.00  0.00    -0.349 N 
HETATM   22  C   UNL     1     -44.023  56.520 -50.926  1.00  0.00     0.145 C 
HETATM   23  C   UNL     1     -43.066  58.123 -52.574  1.00  0.00     0.145 C 
HETATM   24  C   UNL     1     -43.517  55.352 -51.796  1.00  0.00     0.143 C 
HETATM   25  N   UNL     1     -42.333  55.765 -52.580  1.00  0.00    -0.378 N 
HETATM   26  C   UNL     1     -42.642  56.927 -53.440  1.00  0.00     0.143 C 
HETATM   27  O   UNL     1     -45.752  58.507 -50.143  1.00  0.00    -0.273 OA
BRANCH  25  28
HETATM   28  C   UNL     1     -41.543  54.790 -53.200  1.00  0.00     0.030 A 
HETATM   29  C   UNL     1     -41.059  53.710 -52.437  1.00  0.00     0.045 A 
HETATM   30  C   UNL     1     -40.255  52.697 -52.988  1.00  0.00     0.050 A 
HETATM   31  C   UNL     1     -39.950  52.747 -54.351  1.00  0.00     0.016 A 
HETATM   32  C   UNL     1     -40.439  53.789 -55.136  1.00  0.00     0.003 A 
HETATM   33  C   UNL     1     -41.227  54.794 -54.564  1.00  0.00     0.029 A 
BRANCH  30  34
HETATM   34  C   UNL     1     -39.743  51.568 -52.132  1.00  0.00     0.417 C 
HETATM   35  F   UNL     1     -39.894  50.338 -52.698  1.00  0.00    -0.166 F 
HETATM   36  F   UNL     1     -38.416  51.687 -51.848  1.00  0.00    -0.166 F 
HETATM   37  F   UNL     1     -40.377  51.499 -50.927  1.00  0.00    -0.166 F 
ENDBRANCH  30  34
ENDBRANCH  25  28
ENDBRANCH   1  20
TORSDOF 6
ENDMDL
