MODEL 1
REMARK VINA RESULT:      -8.4      0.000      0.000
REMARK  5 active torsions:
REMARK  status: ('A' for Active; 'I' for Inactive)
REMARK    1  A    between atoms: C_3  and  N_4 
REMARK       I    between atoms: N_4  and  C_5 
REMARK       I    between atoms: C_5  and  N_6 
REMARK    2  A    between atoms: N_6  and  C_7 
REMARK    3  A    between atoms: C_7  and  C_8 
REMARK       I    between atoms: C_8  and  N_9 
REMARK    4  A    between atoms: N_9  and  C_10 
REMARK    5  A    between atoms: C_19  and  C_20 
ROOT
HETATM    1  N   UNL     1     -41.270  55.304 -55.535  1.00  0.00    -0.309 N 
HETATM    2  C   UNL     1     -42.432  55.011 -56.209  1.00  0.00     0.321 C 
HETATM    3  N   UNL     1     -42.546  55.732 -57.368  1.00  0.00    -0.334 N 
HETATM    4  O   UNL     1     -43.275  54.193 -55.864  1.00  0.00    -0.247 OA
HETATM    5  H   UNL     1     -40.473  55.440 -56.137  1.00  0.00     0.170 HD
HETATM    6  H   UNL     1     -41.895  56.491 -57.506  1.00  0.00     0.164 HD
ENDROOT
BRANCH   1   7
HETATM    7  C   UNL     1     -41.007  54.891 -54.208  1.00  0.00     0.043 A 
HETATM    8  C   UNL     1     -41.256  55.765 -53.134  1.00  0.00    -0.035 A 
HETATM    9  C   UNL     1     -41.691  57.190 -53.335  1.00  0.00     0.050 C 
HETATM   10  C   UNL     1     -41.019  55.313 -51.826  1.00  0.00     0.010 A 
HETATM   11  C   UNL     1     -40.586  54.006 -51.588  1.00  0.00     0.016 A 
HETATM   12  C   UNL     1     -40.367  53.119 -52.647  1.00  0.00     0.019 A 
HETATM   13  C   UNL     1     -40.563  53.583 -53.957  1.00  0.00     0.046 A 
BRANCH  12  14
HETATM   14  C   UNL     1     -39.980  51.740 -52.363  1.00  0.00     0.179 A 
HETATM   15  O   UNL     1     -39.903  50.881 -53.431  1.00  0.00    -0.302 OA
HETATM   16  C   UNL     1     -39.578  49.682 -52.875  1.00  0.00     0.163 A 
HETATM   17  C   UNL     1     -39.472  49.859 -51.520  1.00  0.00     0.144 A 
HETATM   18  N   UNL     1     -39.729  51.168 -51.198  1.00  0.00    -0.234 NA
ENDBRANCH  12  14
ENDBRANCH   1   7
BRANCH   3  19
HETATM   19  C   UNL     1     -43.297  55.275 -58.531  1.00  0.00     0.227 C 
BRANCH  19  20
HETATM   20  C   UNL     1     -43.968  56.277 -59.492  1.00  0.00     0.239 C 
HETATM   21  N   UNL     1     -45.286  56.541 -59.188  1.00  0.00    -0.326 N 
HETATM   22  H   UNL     1     -45.613  56.199 -58.282  1.00  0.00     0.169 HD
HETATM   23  O   UNL     1     -43.377  56.632 -60.512  1.00  0.00    -0.271 OA
BRANCH  21  24
HETATM   24  C   UNL     1     -46.275  57.121 -60.005  1.00  0.00     0.034 A 
HETATM   25  C   UNL     1     -46.512  58.492 -60.097  1.00  0.00     0.029 A 
HETATM   26  C   UNL     1     -47.466  58.986 -60.993  1.00  0.00     0.002 A 
HETATM   27  C   UNL     1     -48.196  58.113 -61.796  1.00  0.00     0.000 A 
HETATM   28  C   UNL     1     -47.977  56.741 -61.701  1.00  0.00     0.002 A 
HETATM   29  C   UNL     1     -47.020  56.248 -60.812  1.00  0.00     0.029 A 
ENDBRANCH  21  24
ENDBRANCH  19  20
ENDBRANCH   3  19
TORSDOF 5
ENDMDL
MODEL 2
REMARK VINA RESULT:      -8.4      3.066      3.620
REMARK  5 active torsions:
REMARK  status: ('A' for Active; 'I' for Inactive)
REMARK    1  A    between atoms: C_3  and  N_4 
REMARK       I    between atoms: N_4  and  C_5 
REMARK       I    between atoms: C_5  and  N_6 
REMARK    2  A    between atoms: N_6  and  C_7 
REMARK    3  A    between atoms: C_7  and  C_8 
REMARK       I    between atoms: C_8  and  N_9 
REMARK    4  A    between atoms: N_9  and  C_10 
REMARK    5  A    between atoms: C_19  and  C_20 
ROOT
HETATM    1  N   UNL     1     -43.039  55.252 -52.123  1.00  0.00    -0.309 N 
HETATM    2  C   UNL     1     -43.116  56.106 -53.197  1.00  0.00     0.321 C 
HETATM    3  N   UNL     1     -44.412  56.414 -53.515  1.00  0.00    -0.334 N 
HETATM    4  O   UNL     1     -42.165  56.578 -53.808  1.00  0.00    -0.247 OA
HETATM    5  H   UNL     1     -43.713  55.445 -51.400  1.00  0.00     0.170 HD
HETATM    6  H   UNL     1     -45.137  55.871 -53.070  1.00  0.00     0.164 HD
ENDROOT
BRANCH   1   7
HETATM    7  C   UNL     1     -41.854  54.587 -51.732  1.00  0.00     0.043 A 
HETATM    8  C   UNL     1     -41.111  55.055 -50.632  1.00  0.00    -0.035 A 
HETATM    9  C   UNL     1     -41.457  56.325 -49.905  1.00  0.00     0.050 C 
HETATM   10  C   UNL     1     -39.959  54.352 -50.246  1.00  0.00     0.010 A 
HETATM   11  C   UNL     1     -39.578  53.183 -50.908  1.00  0.00     0.016 A 
HETATM   12  C   UNL     1     -40.329  52.689 -51.980  1.00  0.00     0.019 A 
HETATM   13  C   UNL     1     -41.457  53.414 -52.395  1.00  0.00     0.046 A 
BRANCH  12  14
HETATM   14  C   UNL     1     -39.944  51.429 -52.609  1.00  0.00     0.179 A 
HETATM   15  O   UNL     1     -40.022  51.366 -53.978  1.00  0.00    -0.302 OA
HETATM   16  C   UNL     1     -39.659  50.088 -54.276  1.00  0.00     0.163 A 
HETATM   17  C   UNL     1     -39.381  49.441 -53.100  1.00  0.00     0.144 A 
HETATM   18  N   UNL     1     -39.564  50.296 -52.042  1.00  0.00    -0.234 NA
ENDBRANCH  12  14
ENDBRANCH   1   7
BRANCH   3  19
HETATM   19  C   UNL     1     -44.809  57.657 -54.164  1.00  0.00     0.227 C 
BRANCH  19  20
HETATM   20  C   UNL     1     -44.730  57.816 -55.697  1.00  0.00     0.239 C 
HETATM   21  N   UNL     1     -43.838  56.956 -56.300  1.00  0.00    -0.326 N 
HETATM   22  H   UNL     1     -43.473  56.206 -55.709  1.00  0.00     0.169 HD
HETATM   23  O   UNL     1     -45.306  58.758 -56.241  1.00  0.00    -0.271 OA
BRANCH  21  24
HETATM   24  C   UNL     1     -43.274  57.039 -57.587  1.00  0.00     0.034 A 
HETATM   25  C   UNL     1     -42.509  58.114 -58.040  1.00  0.00     0.029 A 
HETATM   26  C   UNL     1     -41.924  58.078 -59.310  1.00  0.00     0.002 A 
HETATM   27  C   UNL     1     -42.107  56.973 -60.139  1.00  0.00     0.000 A 
HETATM   28  C   UNL     1     -42.881  55.902 -59.701  1.00  0.00     0.002 A 
HETATM   29  C   UNL     1     -43.460  55.934 -58.431  1.00  0.00     0.029 A 
ENDBRANCH  21  24
ENDBRANCH  19  20
ENDBRANCH   3  19
TORSDOF 5
ENDMDL
MODEL 3
REMARK VINA RESULT:      -8.2      3.457      9.567
REMARK  5 active torsions:
REMARK  status: ('A' for Active; 'I' for Inactive)
REMARK    1  A    between atoms: C_3  and  N_4 
REMARK       I    between atoms: N_4  and  C_5 
REMARK       I    between atoms: C_5  and  N_6 
REMARK    2  A    between atoms: N_6  and  C_7 
REMARK    3  A    between atoms: C_7  and  C_8 
REMARK       I    between atoms: C_8  and  N_9 
REMARK    4  A    between atoms: N_9  and  C_10 
REMARK    5  A    between atoms: C_19  and  C_20 
ROOT
HETATM    1  N   UNL     1     -42.599  56.934 -54.158  1.00  0.00    -0.309 N 
HETATM    2  C   UNL     1     -41.542  56.447 -53.426  1.00  0.00     0.321 C 
HETATM    3  N   UNL     1     -41.757  56.563 -52.078  1.00  0.00    -0.334 N 
HETATM    4  O   UNL     1     -40.526  55.940 -53.883  1.00  0.00    -0.247 OA
HETATM    5  H   UNL     1     -43.500  56.723 -53.761  1.00  0.00     0.170 HD
HETATM    6  H   UNL     1     -42.541  57.126 -51.782  1.00  0.00     0.164 HD
ENDROOT
BRANCH   1   7
HETATM    7  C   UNL     1     -42.550  57.158 -55.553  1.00  0.00     0.043 A 
HETATM    8  C   UNL     1     -42.836  56.110 -56.448  1.00  0.00    -0.035 A 
HETATM    9  C   UNL     1     -43.082  54.699 -55.988  1.00  0.00     0.050 C 
HETATM   10  C   UNL     1     -42.815  56.373 -57.826  1.00  0.00     0.010 A 
HETATM   11  C   UNL     1     -42.562  57.660 -58.306  1.00  0.00     0.016 A 
HETATM   12  C   UNL     1     -42.311  58.717 -57.424  1.00  0.00     0.019 A 
HETATM   13  C   UNL     1     -42.289  58.446 -56.047  1.00  0.00     0.046 A 
BRANCH  12  14
HETATM   14  C   UNL     1     -42.117  60.064 -57.953  1.00  0.00     0.179 A 
HETATM   15  O   UNL     1     -40.903  60.659 -57.712  1.00  0.00    -0.302 OA
HETATM   16  C   UNL     1     -41.021  61.898 -58.264  1.00  0.00     0.163 A 
HETATM   17  C   UNL     1     -42.275  62.002 -58.806  1.00  0.00     0.144 A 
HETATM   18  N   UNL     1     -42.969  60.835 -58.606  1.00  0.00    -0.234 NA
ENDBRANCH  12  14
ENDBRANCH   1   7
BRANCH   3  19
HETATM   19  C   UNL     1     -41.157  55.678 -51.088  1.00  0.00     0.227 C 
BRANCH  19  20
HETATM   20  C   UNL     1     -41.242  54.145 -51.233  1.00  0.00     0.239 C 
HETATM   21  N   UNL     1     -40.101  53.571 -51.749  1.00  0.00    -0.326 N 
HETATM   22  H   UNL     1     -39.282  54.180 -51.806  1.00  0.00     0.169 HD
HETATM   23  O   UNL     1     -42.318  53.575 -51.050  1.00  0.00    -0.271 OA
BRANCH  21  24
HETATM   24  C   UNL     1     -39.941  52.292 -52.314  1.00  0.00     0.034 A 
HETATM   25  C   UNL     1     -39.626  51.146 -51.584  1.00  0.00     0.029 A 
HETATM   26  C   UNL     1     -39.561  49.900 -52.217  1.00  0.00     0.002 A 
HETATM   27  C   UNL     1     -39.801  49.793 -53.585  1.00  0.00     0.000 A 
HETATM   28  C   UNL     1     -40.101  50.933 -54.325  1.00  0.00     0.002 A 
HETATM   29  C   UNL     1     -40.173  52.175 -53.692  1.00  0.00     0.029 A 
ENDBRANCH  21  24
ENDBRANCH  19  20
ENDBRANCH   3  19
TORSDOF 5
ENDMDL
MODEL 4
REMARK VINA RESULT:      -8.1      1.946      2.795
REMARK  5 active torsions:
REMARK  status: ('A' for Active; 'I' for Inactive)
REMARK    1  A    between atoms: C_3  and  N_4 
REMARK       I    between atoms: N_4  and  C_5 
REMARK       I    between atoms: C_5  and  N_6 
REMARK    2  A    between atoms: N_6  and  C_7 
REMARK    3  A    between atoms: C_7  and  C_8 
REMARK       I    between atoms: C_8  and  N_9 
REMARK    4  A    between atoms: N_9  and  C_10 
REMARK    5  A    between atoms: C_19  and  C_20 
ROOT
HETATM    1  N   UNL     1     -41.419  56.396 -53.283  1.00  0.00    -0.309 N 
HETATM    2  C   UNL     1     -42.687  56.577 -53.783  1.00  0.00     0.321 C 
HETATM    3  N   UNL     1     -42.875  57.851 -54.250  1.00  0.00    -0.334 N 
HETATM    4  O   UNL     1     -43.562  55.723 -53.845  1.00  0.00    -0.247 OA
HETATM    5  H   UNL     1     -40.701  56.859 -53.817  1.00  0.00     0.170 HD
HETATM    6  H   UNL     1     -42.168  58.534 -54.026  1.00  0.00     0.164 HD
ENDROOT
BRANCH   1   7
HETATM    7  C   UNL     1     -41.026  55.267 -52.527  1.00  0.00     0.043 A 
HETATM    8  C   UNL     1     -41.032  55.321 -51.121  1.00  0.00    -0.035 A 
HETATM    9  C   UNL     1     -41.331  56.584 -50.361  1.00  0.00     0.050 C 
HETATM   10  C   UNL     1     -40.672  54.172 -50.399  1.00  0.00     0.010 A 
HETATM   11  C   UNL     1     -40.356  52.982 -51.059  1.00  0.00     0.016 A 
HETATM   12  C   UNL     1     -40.381  52.908 -52.455  1.00  0.00     0.019 A 
HETATM   13  C   UNL     1     -40.699  54.067 -53.179  1.00  0.00     0.046 A 
BRANCH  12  14
HETATM   14  C   UNL     1     -40.112  51.632 -53.113  1.00  0.00     0.179 A 
HETATM   15  O   UNL     1     -39.712  50.590 -52.313  1.00  0.00    -0.302 OA
HETATM   16  C   UNL     1     -39.490  49.567 -53.183  1.00  0.00     0.163 A 
HETATM   17  C   UNL     1     -39.759  50.020 -54.448  1.00  0.00     0.144 A 
HETATM   18  N   UNL     1     -40.153  51.333 -54.400  1.00  0.00    -0.234 NA
ENDBRANCH  12  14
ENDBRANCH   1   7
BRANCH   3  19
HETATM   19  C   UNL     1     -43.824  58.190 -55.304  1.00  0.00     0.227 C 
BRANCH  19  20
HETATM   20  C   UNL     1     -43.562  57.790 -56.771  1.00  0.00     0.239 C 
HETATM   21  N   UNL     1     -44.686  57.347 -57.434  1.00  0.00    -0.326 N 
HETATM   22  H   UNL     1     -45.576  57.500 -56.956  1.00  0.00     0.169 HD
HETATM   23  O   UNL     1     -42.407  57.731 -57.189  1.00  0.00    -0.271 OA
BRANCH  21  24
HETATM   24  C   UNL     1     -44.764  56.610 -58.631  1.00  0.00     0.034 A 
HETATM   25  C   UNL     1     -43.874  55.597 -58.988  1.00  0.00     0.029 A 
HETATM   26  C   UNL     1     -44.072  54.865 -60.163  1.00  0.00     0.002 A 
HETATM   27  C   UNL     1     -45.154  55.146 -60.994  1.00  0.00     0.000 A 
HETATM   28  C   UNL     1     -46.039  56.165 -60.654  1.00  0.00     0.002 A 
HETATM   29  C   UNL     1     -45.846  56.892 -59.478  1.00  0.00     0.029 A 
ENDBRANCH  21  24
ENDBRANCH  19  20
ENDBRANCH   3  19
TORSDOF 5
ENDMDL
MODEL 5
REMARK VINA RESULT:      -8.0      1.918      2.407
REMARK  5 active torsions:
REMARK  status: ('A' for Active; 'I' for Inactive)
REMARK    1  A    between atoms: C_3  and  N_4 
REMARK       I    between atoms: N_4  and  C_5 
REMARK       I    between atoms: C_5  and  N_6 
REMARK    2  A    between atoms: N_6  and  C_7 
REMARK    3  A    between atoms: C_7  and  C_8 
REMARK       I    between atoms: C_8  and  N_9 
REMARK    4  A    between atoms: N_9  and  C_10 
REMARK    5  A    between atoms: C_19  and  C_20 
ROOT
HETATM    1  N   UNL     1     -41.162  55.362 -55.469  1.00  0.00    -0.309 N 
HETATM    2  C   UNL     1     -42.331  55.157 -56.162  1.00  0.00     0.321 C 
HETATM    3  N   UNL     1     -42.394  55.922 -57.297  1.00  0.00    -0.334 N 
HETATM    4  O   UNL     1     -43.223  54.377 -55.851  1.00  0.00    -0.247 OA
HETATM    5  H   UNL     1     -40.353  55.473 -56.059  1.00  0.00     0.170 HD
HETATM    6  H   UNL     1     -41.700  56.646 -57.404  1.00  0.00     0.164 HD
ENDROOT
BRANCH   1   7
HETATM    7  C   UNL     1     -40.935  54.892 -54.155  1.00  0.00     0.043 A 
HETATM    8  C   UNL     1     -41.213  55.719 -53.050  1.00  0.00    -0.035 A 
HETATM    9  C   UNL     1     -41.640  57.153 -53.201  1.00  0.00     0.050 C 
HETATM   10  C   UNL     1     -41.011  55.210 -51.758  1.00  0.00     0.010 A 
HETATM   11  C   UNL     1     -40.587  53.893 -51.564  1.00  0.00     0.016 A 
HETATM   12  C   UNL     1     -40.341  53.052 -52.654  1.00  0.00     0.019 A 
HETATM   13  C   UNL     1     -40.501  53.572 -53.948  1.00  0.00     0.046 A 
BRANCH  12  14
HETATM   14  C   UNL     1     -39.964  51.661 -52.420  1.00  0.00     0.179 A 
HETATM   15  O   UNL     1     -39.902  50.838 -53.517  1.00  0.00    -0.302 OA
HETATM   16  C   UNL     1     -39.583  49.619 -53.004  1.00  0.00     0.163 A 
HETATM   17  C   UNL     1     -39.466  49.749 -51.645  1.00  0.00     0.144 A 
HETATM   18  N   UNL     1     -39.709  51.047 -51.277  1.00  0.00    -0.234 NA
ENDBRANCH  12  14
ENDBRANCH   1   7
BRANCH   3  19
HETATM   19  C   UNL     1     -43.158  55.546 -58.480  1.00  0.00     0.227 C 
BRANCH  19  20
HETATM   20  C   UNL     1     -43.149  56.424 -59.748  1.00  0.00     0.239 C 
HETATM   21  N   UNL     1     -42.750  57.724 -59.520  1.00  0.00    -0.326 N 
HETATM   22  H   UNL     1     -42.342  57.911 -58.603  1.00  0.00     0.169 HD
HETATM   23  O   UNL     1     -43.629  55.989 -60.794  1.00  0.00    -0.271 OA
BRANCH  21  24
HETATM   24  C   UNL     1     -42.934  58.853 -60.340  1.00  0.00     0.034 A 
HETATM   25  C   UNL     1     -41.899  59.531 -60.984  1.00  0.00     0.029 A 
HETATM   26  C   UNL     1     -42.180  60.599 -61.842  1.00  0.00     0.002 A 
HETATM   27  C   UNL     1     -43.497  61.003 -62.055  1.00  0.00     0.000 A 
HETATM   28  C   UNL     1     -44.535  60.343 -61.405  1.00  0.00     0.002 A 
HETATM   29  C   UNL     1     -44.255  59.272 -60.554  1.00  0.00     0.029 A 
ENDBRANCH  21  24
ENDBRANCH  19  20
ENDBRANCH   3  19
TORSDOF 5
ENDMDL
MODEL 6
REMARK VINA RESULT:      -7.9      3.499      9.817
REMARK  5 active torsions:
REMARK  status: ('A' for Active; 'I' for Inactive)
REMARK    1  A    between atoms: C_3  and  N_4 
REMARK       I    between atoms: N_4  and  C_5 
REMARK       I    between atoms: C_5  and  N_6 
REMARK    2  A    between atoms: N_6  and  C_7 
REMARK    3  A    between atoms: C_7  and  C_8 
REMARK       I    between atoms: C_8  and  N_9 
REMARK    4  A    between atoms: N_9  and  C_10 
REMARK    5  A    between atoms: C_19  and  C_20 
ROOT
HETATM    1  N   UNL     1     -42.448  56.563 -57.491  1.00  0.00    -0.309 N 
HETATM    2  C   UNL     1     -43.374  56.516 -56.476  1.00  0.00     0.321 C 
HETATM    3  N   UNL     1     -43.276  55.361 -55.746  1.00  0.00    -0.334 N 
HETATM    4  O   UNL     1     -44.188  57.390 -56.206  1.00  0.00    -0.247 OA
HETATM    5  H   UNL     1     -41.547  56.190 -57.237  1.00  0.00     0.170 HD
HETATM    6  H   UNL     1     -42.691  54.628 -56.119  1.00  0.00     0.164 HD
ENDROOT
BRANCH   1   7
HETATM    7  C   UNL     1     -42.476  57.515 -58.536  1.00  0.00     0.043 A 
HETATM    8  C   UNL     1     -43.171  57.237 -59.727  1.00  0.00    -0.035 A 
HETATM    9  C   UNL     1     -43.806  55.902 -60.000  1.00  0.00     0.050 C 
HETATM   10  C   UNL     1     -43.210  58.218 -60.731  1.00  0.00     0.010 A 
HETATM   11  C   UNL     1     -42.610  59.464 -60.538  1.00  0.00     0.016 A 
HETATM   12  C   UNL     1     -41.946  59.763 -59.344  1.00  0.00     0.019 A 
HETATM   13  C   UNL     1     -41.869  58.769 -58.357  1.00  0.00     0.046 A 
BRANCH  12  14
HETATM   14  C   UNL     1     -41.387  61.097 -59.146  1.00  0.00     0.179 A 
HETATM   15  O   UNL     1     -41.507  61.984 -60.187  1.00  0.00    -0.302 OA
HETATM   16  C   UNL     1     -40.867  63.103 -59.749  1.00  0.00     0.163 A 
HETATM   17  C   UNL     1     -40.395  62.855 -58.487  1.00  0.00     0.144 A 
HETATM   18  N   UNL     1     -40.727  61.579 -58.107  1.00  0.00    -0.234 NA
ENDBRANCH  12  14
ENDBRANCH   1   7
BRANCH   3  19
HETATM   19  C   UNL     1     -43.669  55.256 -54.347  1.00  0.00     0.227 C 
BRANCH  19  20
HETATM   20  C   UNL     1     -42.851  54.411 -53.349  1.00  0.00     0.239 C 
HETATM   21  N   UNL     1     -41.673  53.922 -53.871  1.00  0.00    -0.326 N 
HETATM   22  H   UNL     1     -41.389  54.310 -54.772  1.00  0.00     0.169 HD
HETATM   23  O   UNL     1     -43.345  54.100 -52.265  1.00  0.00    -0.271 OA
BRANCH  21  24
HETATM   24  C   UNL     1     -40.866  52.877 -53.383  1.00  0.00     0.034 A 
HETATM   25  C   UNL     1     -40.329  52.836 -52.096  1.00  0.00     0.029 A 
HETATM   26  C   UNL     1     -39.599  51.721 -51.671  1.00  0.00     0.002 A 
HETATM   27  C   UNL     1     -39.394  50.644 -52.530  1.00  0.00     0.000 A 
HETATM   28  C   UNL     1     -39.914  50.682 -53.821  1.00  0.00     0.002 A 
HETATM   29  C   UNL     1     -40.647  51.792 -54.244  1.00  0.00     0.029 A 
ENDBRANCH  21  24
ENDBRANCH  19  20
ENDBRANCH   3  19
TORSDOF 5
ENDMDL
MODEL 7
REMARK VINA RESULT:      -7.7      2.464      9.009
REMARK  5 active torsions:
REMARK  status: ('A' for Active; 'I' for Inactive)
REMARK    1  A    between atoms: C_3  and  N_4 
REMARK       I    between atoms: N_4  and  C_5 
REMARK       I    between atoms: C_5  and  N_6 
REMARK    2  A    between atoms: N_6  and  C_7 
REMARK    3  A    between atoms: C_7  and  C_8 
REMARK       I    between atoms: C_8  and  N_9 
REMARK    4  A    between atoms: N_9  and  C_10 
REMARK    5  A    between atoms: C_19  and  C_20 
ROOT
HETATM    1  N   UNL     1     -42.808  57.410 -53.260  1.00  0.00    -0.309 N 
HETATM    2  C   UNL     1     -41.671  56.810 -52.775  1.00  0.00     0.321 C 
HETATM    3  N   UNL     1     -41.756  56.564 -51.430  1.00  0.00    -0.334 N 
HETATM    4  O   UNL     1     -40.689  56.495 -53.434  1.00  0.00    -0.247 OA
HETATM    5  H   UNL     1     -43.660  57.055 -52.855  1.00  0.00     0.170 HD
HETATM    6  H   UNL     1     -42.523  56.988 -50.931  1.00  0.00     0.164 HD
ENDROOT
BRANCH   1   7
HETATM    7  C   UNL     1     -42.904  57.987 -54.547  1.00  0.00     0.043 A 
HETATM    8  C   UNL     1     -42.455  59.302 -54.767  1.00  0.00    -0.035 A 
HETATM    9  C   UNL     1     -41.972  60.189 -53.653  1.00  0.00     0.050 C 
HETATM   10  C   UNL     1     -42.530  59.834 -56.064  1.00  0.00     0.010 A 
HETATM   11  C   UNL     1     -42.999  59.061 -57.129  1.00  0.00     0.016 A 
HETATM   12  C   UNL     1     -43.416  57.741 -56.928  1.00  0.00     0.019 A 
HETATM   13  C   UNL     1     -43.381  57.222 -55.624  1.00  0.00     0.046 A 
BRANCH  12  14
HETATM   14  C   UNL     1     -43.837  56.937 -58.071  1.00  0.00     0.179 A 
HETATM   15  O   UNL     1     -43.366  55.649 -58.135  1.00  0.00    -0.302 OA
HETATM   16  C   UNL     1     -43.868  55.166 -59.304  1.00  0.00     0.163 A 
HETATM   17  C   UNL     1     -44.609  56.159 -59.889  1.00  0.00     0.144 A 
HETATM   18  N   UNL     1     -44.586  57.283 -59.103  1.00  0.00    -0.234 NA
ENDBRANCH  12  14
ENDBRANCH   1   7
BRANCH   3  19
HETATM   19  C   UNL     1     -41.034  55.489 -50.761  1.00  0.00     0.227 C 
BRANCH  19  20
HETATM   20  C   UNL     1     -41.245  54.015 -51.165  1.00  0.00     0.239 C 
HETATM   21  N   UNL     1     -40.079  53.356 -51.489  1.00  0.00    -0.326 N 
HETATM   22  H   UNL     1     -39.212  53.843 -51.257  1.00  0.00     0.169 HD
HETATM   23  O   UNL     1     -42.387  53.586 -51.330  1.00  0.00    -0.271 OA
BRANCH  21  24
HETATM   24  C   UNL     1     -39.922  52.150 -52.199  1.00  0.00     0.034 A 
HETATM   25  C   UNL     1     -39.613  50.926 -51.607  1.00  0.00     0.029 A 
HETATM   26  C   UNL     1     -39.550  49.762 -52.381  1.00  0.00     0.002 A 
HETATM   27  C   UNL     1     -39.786  49.817 -53.753  1.00  0.00     0.000 A 
HETATM   28  C   UNL     1     -40.081  51.036 -54.356  1.00  0.00     0.002 A 
HETATM   29  C   UNL     1     -40.150  52.196 -53.582  1.00  0.00     0.029 A 
ENDBRANCH  21  24
ENDBRANCH  19  20
ENDBRANCH   3  19
TORSDOF 5
ENDMDL
MODEL 8
REMARK VINA RESULT:      -7.6      5.059     10.014
REMARK  5 active torsions:
REMARK  status: ('A' for Active; 'I' for Inactive)
REMARK    1  A    between atoms: C_3  and  N_4 
REMARK       I    between atoms: N_4  and  C_5 
REMARK       I    between atoms: C_5  and  N_6 
REMARK    2  A    between atoms: N_6  and  C_7 
REMARK    3  A    between atoms: C_7  and  C_8 
REMARK       I    between atoms: C_8  and  N_9 
REMARK    4  A    between atoms: N_9  and  C_10 
REMARK    5  A    between atoms: C_19  and  C_20 
ROOT
HETATM    1  N   UNL     1     -43.384  56.245 -51.265  1.00  0.00    -0.309 N 
HETATM    2  C   UNL     1     -42.067  56.266 -50.869  1.00  0.00     0.321 C 
HETATM    3  N   UNL     1     -41.833  55.408 -49.827  1.00  0.00    -0.334 N 
HETATM    4  O   UNL     1     -41.176  56.935 -51.376  1.00  0.00    -0.247 OA
HETATM    5  H   UNL     1     -43.798  55.327 -51.252  1.00  0.00     0.170 HD
HETATM    6  H   UNL     1     -42.638  55.011 -49.367  1.00  0.00     0.164 HD
ENDROOT
BRANCH   1   7
HETATM    7  C   UNL     1     -43.953  57.191 -52.148  1.00  0.00     0.043 A 
HETATM    8  C   UNL     1     -44.128  56.873 -53.508  1.00  0.00    -0.035 A 
HETATM    9  C   UNL     1     -43.622  55.591 -54.110  1.00  0.00     0.050 C 
HETATM   10  C   UNL     1     -44.729  57.820 -54.352  1.00  0.00     0.010 A 
HETATM   11  C   UNL     1     -45.189  59.039 -53.847  1.00  0.00     0.016 A 
HETATM   12  C   UNL     1     -45.052  59.351 -52.491  1.00  0.00     0.019 A 
HETATM   13  C   UNL     1     -44.412  58.423 -51.654  1.00  0.00     0.046 A 
BRANCH  12  14
HETATM   14  C   UNL     1     -45.603  60.603 -51.981  1.00  0.00     0.179 A 
HETATM   15  O   UNL     1     -46.847  60.967 -52.433  1.00  0.00    -0.302 OA
HETATM   16  C   UNL     1     -47.079  62.171 -51.844  1.00  0.00     0.163 A 
HETATM   17  C   UNL     1     -45.990  62.483 -51.073  1.00  0.00     0.144 A 
HETATM   18  N   UNL     1     -45.053  61.485 -51.163  1.00  0.00    -0.234 NA
ENDBRANCH  12  14
ENDBRANCH   1   7
BRANCH   3  19
HETATM   19  C   UNL     1     -40.540  54.786 -49.571  1.00  0.00     0.227 C 
BRANCH  19  20
HETATM   20  C   UNL     1     -40.246  53.342 -50.028  1.00  0.00     0.239 C 
HETATM   21  N   UNL     1     -39.844  53.247 -51.343  1.00  0.00    -0.326 N 
HETATM   22  H   UNL     1     -39.614  54.129 -51.804  1.00  0.00     0.169 HD
HETATM   23  O   UNL     1     -40.532  52.400 -49.290  1.00  0.00    -0.271 OA
BRANCH  21  24
HETATM   24  C   UNL     1     -39.815  52.108 -52.170  1.00  0.00     0.034 A 
HETATM   25  C   UNL     1     -39.492  50.825 -51.727  1.00  0.00     0.029 A 
HETATM   26  C   UNL     1     -39.563  49.737 -52.603  1.00  0.00     0.002 A 
HETATM   27  C   UNL     1     -39.946  49.925 -53.929  1.00  0.00     0.000 A 
HETATM   28  C   UNL     1     -40.255  51.203 -54.384  1.00  0.00     0.002 A 
HETATM   29  C   UNL     1     -40.192  52.289 -53.508  1.00  0.00     0.029 A 
ENDBRANCH  21  24
ENDBRANCH  19  20
ENDBRANCH   3  19
TORSDOF 5
ENDMDL
MODEL 9
REMARK VINA RESULT:      -7.6      3.562      4.246
REMARK  5 active torsions:
REMARK  status: ('A' for Active; 'I' for Inactive)
REMARK    1  A    between atoms: C_3  and  N_4 
REMARK       I    between atoms: N_4  and  C_5 
REMARK       I    between atoms: C_5  and  N_6 
REMARK    2  A    between atoms: N_6  and  C_7 
REMARK    3  A    between atoms: C_7  and  C_8 
REMARK       I    between atoms: C_8  and  N_9 
REMARK    4  A    between atoms: N_9  and  C_10 
REMARK    5  A    between atoms: C_19  and  C_20 
ROOT
HETATM    1  N   UNL     1     -43.653  55.430 -56.205  1.00  0.00    -0.309 N 
HETATM    2  C   UNL     1     -43.099  56.325 -57.089  1.00  0.00     0.321 C 
HETATM    3  N   UNL     1     -43.665  56.234 -58.333  1.00  0.00    -0.334 N 
HETATM    4  O   UNL     1     -42.223  57.140 -56.829  1.00  0.00    -0.247 OA
HETATM    5  H   UNL     1     -44.649  55.318 -56.310  1.00  0.00     0.170 HD
HETATM    6  H   UNL     1     -44.265  55.442 -58.509  1.00  0.00     0.164 HD
ENDROOT
BRANCH   1   7
HETATM    7  C   UNL     1     -43.108  55.142 -54.933  1.00  0.00     0.043 A 
HETATM    8  C   UNL     1     -43.561  55.836 -53.796  1.00  0.00    -0.035 A 
HETATM    9  C   UNL     1     -44.537  56.978 -53.881  1.00  0.00     0.050 C 
HETATM   10  C   UNL     1     -43.027  55.502 -52.542  1.00  0.00     0.010 A 
HETATM   11  C   UNL     1     -42.095  54.469 -52.413  1.00  0.00     0.016 A 
HETATM   12  C   UNL     1     -41.664  53.749 -53.532  1.00  0.00     0.019 A 
HETATM   13  C   UNL     1     -42.165  54.111 -54.792  1.00  0.00     0.046 A 
BRANCH  12  14
HETATM   14  C   UNL     1     -40.741  52.631 -53.356  1.00  0.00     0.179 A 
HETATM   15  O   UNL     1     -40.248  52.422 -52.092  1.00  0.00    -0.302 OA
HETATM   16  C   UNL     1     -39.395  51.371 -52.234  1.00  0.00     0.163 A 
HETATM   17  C   UNL     1     -39.406  50.992 -53.552  1.00  0.00     0.144 A 
HETATM   18  N   UNL     1     -40.261  51.796 -54.262  1.00  0.00    -0.234 NA
ENDBRANCH  12  14
ENDBRANCH   1   7
BRANCH   3  19
HETATM   19  C   UNL     1     -43.729  57.346 -59.272  1.00  0.00     0.227 C 
BRANCH  19  20
HETATM   20  C   UNL     1     -42.491  58.220 -59.559  1.00  0.00     0.239 C 
HETATM   21  N   UNL     1     -42.574  59.491 -59.033  1.00  0.00    -0.326 N 
HETATM   22  H   UNL     1     -43.340  59.653 -58.376  1.00  0.00     0.169 HD
HETATM   23  O   UNL     1     -41.627  57.816 -60.337  1.00  0.00    -0.271 OA
BRANCH  21  24
HETATM   24  C   UNL     1     -41.815  60.629 -59.366  1.00  0.00     0.034 A 
HETATM   25  C   UNL     1     -40.999  61.317 -58.468  1.00  0.00     0.029 A 
HETATM   26  C   UNL     1     -40.220  62.394 -58.904  1.00  0.00     0.002 A 
HETATM   27  C   UNL     1     -40.258  62.796 -60.237  1.00  0.00     0.000 A 
HETATM   28  C   UNL     1     -41.080  62.125 -61.138  1.00  0.00     0.002 A 
HETATM   29  C   UNL     1     -41.853  61.046 -60.704  1.00  0.00     0.029 A 
ENDBRANCH  21  24
ENDBRANCH  19  20
ENDBRANCH   3  19
TORSDOF 5
ENDMDL
MODEL 10
REMARK VINA RESULT:      -7.6      1.814      1.889
REMARK  5 active torsions:
REMARK  status: ('A' for Active; 'I' for Inactive)
REMARK    1  A    between atoms: C_3  and  N_4 
REMARK       I    between atoms: N_4  and  C_5 
REMARK       I    between atoms: C_5  and  N_6 
REMARK    2  A    between atoms: N_6  and  C_7 
REMARK    3  A    between atoms: C_7  and  C_8 
REMARK       I    between atoms: C_8  and  N_9 
REMARK    4  A    between atoms: N_9  and  C_10 
REMARK    5  A    between atoms: C_19  and  C_20 
ROOT
HETATM    1  N   UNL     1     -43.052  55.638 -53.661  1.00  0.00    -0.309 N 
HETATM    2  C   UNL     1     -42.830  56.157 -54.914  1.00  0.00     0.321 C 
HETATM    3  N   UNL     1     -43.994  56.546 -55.521  1.00  0.00    -0.334 N 
HETATM    4  O   UNL     1     -41.737  56.295 -55.449  1.00  0.00    -0.247 OA
HETATM    5  H   UNL     1     -43.766  56.123 -53.140  1.00  0.00     0.170 HD
HETATM    6  H   UNL     1     -44.859  56.261 -55.086  1.00  0.00     0.164 HD
ENDROOT
BRANCH   1   7
HETATM    7  C   UNL     1     -42.072  54.946 -52.911  1.00  0.00     0.043 A 
HETATM    8  C   UNL     1     -41.640  55.456 -51.673  1.00  0.00    -0.035 A 
HETATM    9  C   UNL     1     -42.092  56.789 -51.145  1.00  0.00     0.050 C 
HETATM   10  C   UNL     1     -40.693  54.727 -50.936  1.00  0.00     0.010 A 
HETATM   11  C   UNL     1     -40.219  53.497 -51.397  1.00  0.00     0.016 A 
HETATM   12  C   UNL     1     -40.668  52.965 -52.610  1.00  0.00     0.019 A 
HETATM   13  C   UNL     1     -41.583  53.712 -53.369  1.00  0.00     0.046 A 
BRANCH  12  14
HETATM   14  C   UNL     1     -40.206  51.646 -53.033  1.00  0.00     0.179 A 
HETATM   15  O   UNL     1     -40.462  51.282 -54.332  1.00  0.00    -0.302 OA
HETATM   16  C   UNL     1     -39.974  50.015 -54.427  1.00  0.00     0.163 A 
HETATM   17  C   UNL     1     -39.452  49.669 -53.208  1.00  0.00     0.144 A 
HETATM   18  N   UNL     1     -39.602  50.707 -52.324  1.00  0.00    -0.234 NA
ENDBRANCH  12  14
ENDBRANCH   1   7
BRANCH   3  19
HETATM   19  C   UNL     1     -44.066  57.600 -56.525  1.00  0.00     0.227 C 
BRANCH  19  20
HETATM   20  C   UNL     1     -45.382  57.903 -57.271  1.00  0.00     0.239 C 
HETATM   21  N   UNL     1     -45.518  57.216 -58.458  1.00  0.00    -0.326 N 
HETATM   22  H   UNL     1     -44.842  56.467 -58.621  1.00  0.00     0.169 HD
HETATM   23  O   UNL     1     -46.112  58.810 -56.874  1.00  0.00    -0.271 OA
BRANCH  21  24
HETATM   24  C   UNL     1     -46.393  57.481 -59.529  1.00  0.00     0.034 A 
HETATM   25  C   UNL     1     -46.719  58.761 -59.976  1.00  0.00     0.029 A 
HETATM   26  C   UNL     1     -47.539  58.930 -61.097  1.00  0.00     0.002 A 
HETATM   27  C   UNL     1     -48.046  57.822 -61.771  1.00  0.00     0.000 A 
HETATM   28  C   UNL     1     -47.738  56.540 -61.324  1.00  0.00     0.002 A 
HETATM   29  C   UNL     1     -46.914  56.371 -60.210  1.00  0.00     0.029 A 
ENDBRANCH  21  24
ENDBRANCH  19  20
ENDBRANCH   3  19
TORSDOF 5
ENDMDL
