MODEL 1
REMARK VINA RESULT:      -8.3      0.000      0.000
REMARK  6 active torsions:
REMARK  status: ('A' for Active; 'I' for Inactive)
REMARK    1  A    between atoms: C_2  and  O_3 
REMARK    2  A    between atoms: C_2  and  C_4 
REMARK    3  A    between atoms: C_2  and  C_11 
REMARK    4  A    between atoms: C_11  and  N_12 
REMARK       I    between atoms: N_12  and  C_13 
REMARK    5  A    between atoms: C_13  and  C_14 
REMARK    6  A    between atoms: C_18  and  C_19 
ROOT
HETATM    1  N   UNL     1     -42.168  56.534 -57.113  1.00  0.00    -0.352 N 
HETATM    2  C   UNL     1     -42.187  56.975 -55.809  1.00  0.00     0.272 C 
HETATM    3  O   UNL     1     -42.592  58.084 -55.473  1.00  0.00    -0.266 OA
HETATM    4  H   UNL     1     -41.925  55.555 -57.243  1.00  0.00     0.162 HD
ENDROOT
BRANCH   2   5
HETATM    5  C   UNL     1     -41.685  55.982 -54.847  1.00  0.00     0.146 A 
HETATM    6  N   UNL     1     -41.470  56.279 -53.550  1.00  0.00    -0.169 NA
HETATM    7  N   UNL     1     -41.015  55.128 -53.026  1.00  0.00    -0.277 N 
HETATM    8  H   UNL     1     -40.754  55.121 -52.046  1.00  0.00     0.189 HD
HETATM    9  C   UNL     1     -40.944  54.085 -53.914  1.00  0.00     0.063 A 
HETATM   10  C   UNL     1     -41.362  54.627 -55.114  1.00  0.00     0.071 A 
BRANCH   9  11
HETATM   11  C   UNL     1     -40.483  52.742 -53.567  1.00  0.00    -0.008 A 
HETATM   12  C   UNL     1     -40.002  52.447 -52.280  1.00  0.00     0.017 A 
HETATM   13  C   UNL     1     -39.568  51.157 -51.962  1.00  0.00     0.043 A 
HETATM   14  C   UNL     1     -39.614  50.159 -52.926  1.00  0.00     0.116 A 
HETATM   15  F   UNL     1     -39.198  48.924 -52.618  1.00  0.00    -0.206 F 
HETATM   16  C   UNL     1     -40.090  50.425 -54.203  1.00  0.00     0.043 A 
HETATM   17  C   UNL     1     -40.525  51.713 -54.521  1.00  0.00     0.017 A 
ENDBRANCH   9  11
ENDBRANCH   2   5
BRANCH   1  18
HETATM   18  C   UNL     1     -42.727  57.290 -58.219  1.00  0.00     0.165 C 
BRANCH  18  19
HETATM   19  C   UNL     1     -43.425  56.401 -59.289  1.00  0.00     0.097 C 
HETATM   20  C   UNL     1     -43.657  54.981 -58.753  1.00  0.00     0.053 C 
BRANCH  19  21
HETATM   21  O   UNL     1     -42.511  56.297 -60.401  1.00  0.00    -0.384 OA
HETATM   22  H   UNL     1     -42.047  57.149 -60.470  1.00  0.00     0.211 HD
ENDBRANCH  19  21
BRANCH  19  23
HETATM   23  C   UNL     1     -44.745  56.977 -59.820  1.00  0.00    -0.023 A 
HETATM   24  C   UNL     1     -44.951  58.353 -60.028  1.00  0.00     0.013 A 
HETATM   25  C   UNL     1     -46.176  58.832 -60.505  1.00  0.00     0.043 A 
HETATM   26  C   UNL     1     -47.208  57.943 -60.771  1.00  0.00     0.116 A 
HETATM   27  F   UNL     1     -48.379  58.407 -61.225  1.00  0.00    -0.206 F 
HETATM   28  C   UNL     1     -47.042  56.582 -60.569  1.00  0.00     0.043 A 
HETATM   29  C   UNL     1     -45.819  56.102 -60.095  1.00  0.00     0.013 A 
ENDBRANCH  19  23
ENDBRANCH  18  19
ENDBRANCH   1  18
TORSDOF 6
ENDMDL
MODEL 2
REMARK VINA RESULT:      -8.3      1.734      2.480
REMARK  6 active torsions:
REMARK  status: ('A' for Active; 'I' for Inactive)
REMARK    1  A    between atoms: C_2  and  O_3 
REMARK    2  A    between atoms: C_2  and  C_4 
REMARK    3  A    between atoms: C_2  and  C_11 
REMARK    4  A    between atoms: C_11  and  N_12 
REMARK       I    between atoms: N_12  and  C_13 
REMARK    5  A    between atoms: C_13  and  C_14 
REMARK    6  A    between atoms: C_18  and  C_19 
ROOT
HETATM    1  N   UNL     1     -42.143  57.104 -55.898  1.00  0.00    -0.352 N 
HETATM    2  C   UNL     1     -41.768  57.379 -54.603  1.00  0.00     0.272 C 
HETATM    3  O   UNL     1     -41.749  58.511 -54.128  1.00  0.00    -0.266 OA
HETATM    4  H   UNL     1     -42.233  56.117 -56.130  1.00  0.00     0.162 HD
ENDROOT
BRANCH   2   5
HETATM    5  C   UNL     1     -41.401  56.182 -53.831  1.00  0.00     0.146 A 
HETATM    6  N   UNL     1     -41.373  56.174 -52.483  1.00  0.00    -0.169 NA
HETATM    7  N   UNL     1     -40.990  54.921 -52.176  1.00  0.00    -0.277 N 
HETATM    8  H   UNL     1     -40.870  54.687 -51.197  1.00  0.00     0.189 HD
HETATM    9  C   UNL     1     -40.790  54.104 -53.260  1.00  0.00     0.063 A 
HETATM   10  C   UNL     1     -41.037  54.913 -54.351  1.00  0.00     0.071 A 
BRANCH   9  11
HETATM   11  C   UNL     1     -40.375  52.706 -53.165  1.00  0.00    -0.008 A 
HETATM   12  C   UNL     1     -40.423  51.854 -54.281  1.00  0.00     0.017 A 
HETATM   13  C   UNL     1     -40.020  50.520 -54.176  1.00  0.00     0.043 A 
HETATM   14  C   UNL     1     -39.566  50.033 -52.957  1.00  0.00     0.116 A 
HETATM   15  F   UNL     1     -39.180  48.755 -52.859  1.00  0.00    -0.206 F 
HETATM   16  C   UNL     1     -39.505  50.856 -51.841  1.00  0.00     0.043 A 
HETATM   17  C   UNL     1     -39.906  52.190 -51.946  1.00  0.00     0.017 A 
ENDBRANCH   9  11
ENDBRANCH   2   5
BRANCH   1  18
HETATM   18  C   UNL     1     -42.662  58.107 -56.809  1.00  0.00     0.165 C 
BRANCH  18  19
HETATM   19  C   UNL     1     -44.159  57.896 -57.179  1.00  0.00     0.097 C 
HETATM   20  C   UNL     1     -44.875  59.244 -57.343  1.00  0.00     0.053 C 
BRANCH  19  21
HETATM   21  O   UNL     1     -44.769  57.216 -56.063  1.00  0.00    -0.384 OA
HETATM   22  H   UNL     1     -45.098  56.362 -56.394  1.00  0.00     0.211 HD
ENDBRANCH  19  21
BRANCH  19  23
HETATM   23  C   UNL     1     -44.381  57.036 -58.431  1.00  0.00    -0.023 A 
HETATM   24  C   UNL     1     -43.484  56.032 -58.840  1.00  0.00     0.013 A 
HETATM   25  C   UNL     1     -43.725  55.280 -59.994  1.00  0.00     0.043 A 
HETATM   26  C   UNL     1     -44.859  55.527 -60.755  1.00  0.00     0.116 A 
HETATM   27  F   UNL     1     -45.083  54.805 -61.860  1.00  0.00    -0.206 F 
HETATM   28  C   UNL     1     -45.760  56.515 -60.386  1.00  0.00     0.043 A 
HETATM   29  C   UNL     1     -45.521  57.265 -59.233  1.00  0.00     0.013 A 
ENDBRANCH  19  23
ENDBRANCH  18  19
ENDBRANCH   1  18
TORSDOF 6
ENDMDL
MODEL 3
REMARK VINA RESULT:      -8.3      2.258      8.709
REMARK  6 active torsions:
REMARK  status: ('A' for Active; 'I' for Inactive)
REMARK    1  A    between atoms: C_2  and  O_3 
REMARK    2  A    between atoms: C_2  and  C_4 
REMARK    3  A    between atoms: C_2  and  C_11 
REMARK    4  A    between atoms: C_11  and  N_12 
REMARK       I    between atoms: N_12  and  C_13 
REMARK    5  A    between atoms: C_13  and  C_14 
REMARK    6  A    between atoms: C_18  and  C_19 
ROOT
HETATM    1  N   UNL     1     -41.917  56.346 -53.012  1.00  0.00    -0.352 N 
HETATM    2  C   UNL     1     -41.396  57.402 -53.723  1.00  0.00     0.272 C 
HETATM    3  O   UNL     1     -40.471  58.101 -53.320  1.00  0.00    -0.266 OA
HETATM    4  H   UNL     1     -42.597  55.773 -53.508  1.00  0.00     0.162 HD
ENDROOT
BRANCH   2   5
HETATM    5  C   UNL     1     -42.046  57.610 -55.026  1.00  0.00     0.146 A 
HETATM    6  N   UNL     1     -42.158  58.830 -55.589  1.00  0.00    -0.169 NA
HETATM    7  N   UNL     1     -42.807  58.594 -56.743  1.00  0.00    -0.277 N 
HETATM    8  H   UNL     1     -43.032  59.388 -57.333  1.00  0.00     0.189 HD
HETATM    9  C   UNL     1     -43.104  57.275 -56.972  1.00  0.00     0.063 A 
HETATM   10  C   UNL     1     -42.629  56.617 -55.854  1.00  0.00     0.071 A 
BRANCH   9  11
HETATM   11  C   UNL     1     -43.800  56.786 -58.160  1.00  0.00    -0.008 A 
HETATM   12  C   UNL     1     -43.355  55.645 -58.849  1.00  0.00     0.017 A 
HETATM   13  C   UNL     1     -44.034  55.188 -59.981  1.00  0.00     0.043 A 
HETATM   14  C   UNL     1     -45.160  55.867 -60.429  1.00  0.00     0.116 A 
HETATM   15  F   UNL     1     -45.809  55.426 -61.514  1.00  0.00    -0.206 F 
HETATM   16  C   UNL     1     -45.622  56.994 -59.763  1.00  0.00     0.043 A 
HETATM   17  C   UNL     1     -44.945  57.450 -58.630  1.00  0.00     0.017 A 
ENDBRANCH   9  11
ENDBRANCH   2   5
BRANCH   1  18
HETATM   18  C   UNL     1     -41.359  55.874 -51.758  1.00  0.00     0.165 C 
BRANCH  18  19
HETATM   19  C   UNL     1     -41.775  54.417 -51.402  1.00  0.00     0.097 C 
HETATM   20  C   UNL     1     -43.288  54.224 -51.571  1.00  0.00     0.053 C 
BRANCH  19  21
HETATM   21  O   UNL     1     -41.470  54.230 -50.004  1.00  0.00    -0.384 OA
HETATM   22  H   UNL     1     -42.248  53.810 -49.596  1.00  0.00     0.211 HD
ENDBRANCH  19  21
BRANCH  19  23
HETATM   23  C   UNL     1     -41.023  53.338 -52.194  1.00  0.00    -0.023 A 
HETATM   24  C   UNL     1     -41.261  53.083 -53.557  1.00  0.00     0.013 A 
HETATM   25  C   UNL     1     -40.557  52.082 -54.235  1.00  0.00     0.043 A 
HETATM   26  C   UNL     1     -39.614  51.321 -53.557  1.00  0.00     0.116 A 
HETATM   27  F   UNL     1     -38.945  50.363 -54.209  1.00  0.00    -0.206 F 
HETATM   28  C   UNL     1     -39.361  51.540 -52.211  1.00  0.00     0.043 A 
HETATM   29  C   UNL     1     -40.062  52.540 -51.534  1.00  0.00     0.013 A 
ENDBRANCH  19  23
ENDBRANCH  18  19
ENDBRANCH   1  18
TORSDOF 6
ENDMDL
MODEL 4
REMARK VINA RESULT:      -8.1      1.505      1.744
REMARK  6 active torsions:
REMARK  status: ('A' for Active; 'I' for Inactive)
REMARK    1  A    between atoms: C_2  and  O_3 
REMARK    2  A    between atoms: C_2  and  C_4 
REMARK    3  A    between atoms: C_2  and  C_11 
REMARK    4  A    between atoms: C_11  and  N_12 
REMARK       I    between atoms: N_12  and  C_13 
REMARK    5  A    between atoms: C_13  and  C_14 
REMARK    6  A    between atoms: C_18  and  C_19 
ROOT
HETATM    1  N   UNL     1     -42.101  57.382 -57.381  1.00  0.00    -0.352 N 
HETATM    2  C   UNL     1     -42.223  57.312 -56.012  1.00  0.00     0.272 C 
HETATM    3  O   UNL     1     -42.413  58.292 -55.297  1.00  0.00    -0.266 OA
HETATM    4  H   UNL     1     -42.068  56.487 -57.866  1.00  0.00     0.162 HD
ENDROOT
BRANCH   2   5
HETATM    5  C   UNL     1     -42.113  55.944 -55.481  1.00  0.00     0.146 A 
HETATM    6  N   UNL     1     -42.995  54.976 -55.799  1.00  0.00    -0.169 NA
HETATM    7  N   UNL     1     -42.556  53.903 -55.117  1.00  0.00    -0.277 N 
HETATM    8  H   UNL     1     -43.093  53.046 -55.182  1.00  0.00     0.189 HD
HETATM    9  C   UNL     1     -41.415  54.120 -54.387  1.00  0.00     0.063 A 
HETATM   10  C   UNL     1     -41.119  55.452 -54.599  1.00  0.00     0.071 A 
BRANCH   9  11
HETATM   11  C   UNL     1     -40.757  53.099 -53.573  1.00  0.00    -0.008 A 
HETATM   12  C   UNL     1     -40.580  53.271 -52.190  1.00  0.00     0.017 A 
HETATM   13  C   UNL     1     -39.952  52.284 -51.425  1.00  0.00     0.043 A 
HETATM   14  C   UNL     1     -39.502  51.122 -52.038  1.00  0.00     0.116 A 
HETATM   15  F   UNL     1     -38.902  50.178 -51.302  1.00  0.00    -0.206 F 
HETATM   16  C   UNL     1     -39.670  50.926 -53.402  1.00  0.00     0.043 A 
HETATM   17  C   UNL     1     -40.298  51.912 -54.167  1.00  0.00     0.017 A 
ENDBRANCH   9  11
ENDBRANCH   2   5
BRANCH   1  18
HETATM   18  C   UNL     1     -42.296  58.603 -58.139  1.00  0.00     0.165 C 
BRANCH  18  19
HETATM   19  C   UNL     1     -42.684  58.357 -59.626  1.00  0.00     0.097 C 
HETATM   20  C   UNL     1     -41.636  57.481 -60.327  1.00  0.00     0.053 C 
BRANCH  19  21
HETATM   21  O   UNL     1     -42.672  59.646 -60.276  1.00  0.00    -0.384 OA
HETATM   22  H   UNL     1     -43.293  60.216 -59.790  1.00  0.00     0.211 HD
ENDBRANCH  19  21
BRANCH  19  23
HETATM   23  C   UNL     1     -44.080  57.749 -59.818  1.00  0.00    -0.023 A 
HETATM   24  C   UNL     1     -45.265  58.433 -59.491  1.00  0.00     0.013 A 
HETATM   25  C   UNL     1     -46.516  57.833 -59.675  1.00  0.00     0.043 A 
HETATM   26  C   UNL     1     -46.594  56.542 -60.179  1.00  0.00     0.116 A 
HETATM   27  F   UNL     1     -47.793  55.971 -60.351  1.00  0.00    -0.206 F 
HETATM   28  C   UNL     1     -45.446  55.835 -60.503  1.00  0.00     0.043 A 
HETATM   29  C   UNL     1     -44.198  56.434 -60.321  1.00  0.00     0.013 A 
ENDBRANCH  19  23
ENDBRANCH  18  19
ENDBRANCH   1  18
TORSDOF 6
ENDMDL
MODEL 5
REMARK VINA RESULT:      -8.1      3.265      9.429
REMARK  6 active torsions:
REMARK  status: ('A' for Active; 'I' for Inactive)
REMARK    1  A    between atoms: C_2  and  O_3 
REMARK    2  A    between atoms: C_2  and  C_4 
REMARK    3  A    between atoms: C_2  and  C_11 
REMARK    4  A    between atoms: C_11  and  N_12 
REMARK       I    between atoms: N_12  and  C_13 
REMARK    5  A    between atoms: C_13  and  C_14 
REMARK    6  A    between atoms: C_18  and  C_19 
ROOT
HETATM    1  N   UNL     1     -42.567  54.444 -51.325  1.00  0.00    -0.352 N 
HETATM    2  C   UNL     1     -42.793  55.657 -51.934  1.00  0.00     0.272 C 
HETATM    3  O   UNL     1     -42.811  56.726 -51.331  1.00  0.00    -0.266 OA
HETATM    4  H   UNL     1     -42.456  53.651 -51.953  1.00  0.00     0.162 HD
ENDROOT
BRANCH   2   5
HETATM    5  C   UNL     1     -43.002  55.555 -53.387  1.00  0.00     0.146 A 
HETATM    6  N   UNL     1     -43.729  54.565 -53.942  1.00  0.00    -0.169 NA
HETATM    7  N   UNL     1     -43.671  54.823 -55.261  1.00  0.00    -0.277 N 
HETATM    8  H   UNL     1     -44.133  54.179 -55.893  1.00  0.00     0.189 HD
HETATM    9  C   UNL     1     -42.959  55.948 -55.591  1.00  0.00     0.063 A 
HETATM   10  C   UNL     1     -42.500  56.432 -54.382  1.00  0.00     0.071 A 
BRANCH   9  11
HETATM   11  C   UNL     1     -42.766  56.423 -56.960  1.00  0.00    -0.008 A 
HETATM   12  C   UNL     1     -43.052  55.603 -58.064  1.00  0.00     0.017 A 
HETATM   13  C   UNL     1     -42.866  56.072 -59.367  1.00  0.00     0.043 A 
HETATM   14  C   UNL     1     -42.396  57.363 -59.572  1.00  0.00     0.116 A 
HETATM   15  F   UNL     1     -42.219  57.811 -60.821  1.00  0.00    -0.206 F 
HETATM   16  C   UNL     1     -42.111  58.195 -58.497  1.00  0.00     0.043 A 
HETATM   17  C   UNL     1     -42.298  57.726 -57.195  1.00  0.00     0.017 A 
ENDBRANCH   9  11
ENDBRANCH   2   5
BRANCH   1  18
HETATM   18  C   UNL     1     -42.214  54.306 -49.925  1.00  0.00     0.165 C 
BRANCH  18  19
HETATM   19  C   UNL     1     -40.741  53.861 -49.695  1.00  0.00     0.097 C 
HETATM   20  C   UNL     1     -40.446  53.700 -48.197  1.00  0.00     0.053 C 
BRANCH  19  21
HETATM   21  O   UNL     1     -39.904  54.928 -50.186  1.00  0.00    -0.384 OA
HETATM   22  H   UNL     1     -40.477  55.704 -50.315  1.00  0.00     0.211 HD
ENDBRANCH  19  21
BRANCH  19  23
HETATM   23  C   UNL     1     -40.350  52.577 -50.440  1.00  0.00    -0.023 A 
HETATM   24  C   UNL     1     -40.412  51.301 -49.852  1.00  0.00     0.013 A 
HETATM   25  C   UNL     1     -40.036  50.160 -50.569  1.00  0.00     0.043 A 
HETATM   26  C   UNL     1     -39.587  50.282 -51.876  1.00  0.00     0.116 A 
HETATM   27  F   UNL     1     -39.227  49.188 -52.557  1.00  0.00    -0.206 F 
HETATM   28  C   UNL     1     -39.505  51.526 -52.484  1.00  0.00     0.043 A 
HETATM   29  C   UNL     1     -39.882  52.665 -51.770  1.00  0.00     0.013 A 
ENDBRANCH  19  23
ENDBRANCH  18  19
ENDBRANCH   1  18
TORSDOF 6
ENDMDL
MODEL 6
REMARK VINA RESULT:      -8.0      3.182      9.817
REMARK  6 active torsions:
REMARK  status: ('A' for Active; 'I' for Inactive)
REMARK    1  A    between atoms: C_2  and  O_3 
REMARK    2  A    between atoms: C_2  and  C_4 
REMARK    3  A    between atoms: C_2  and  C_11 
REMARK    4  A    between atoms: C_11  and  N_12 
REMARK       I    between atoms: N_12  and  C_13 
REMARK    5  A    between atoms: C_13  and  C_14 
REMARK    6  A    between atoms: C_18  and  C_19 
ROOT
HETATM    1  N   UNL     1     -42.228  55.052 -56.245  1.00  0.00    -0.352 N 
HETATM    2  C   UNL     1     -43.020  56.176 -56.302  1.00  0.00     0.272 C 
HETATM    3  O   UNL     1     -43.818  56.489 -55.423  1.00  0.00    -0.266 OA
HETATM    4  H   UNL     1     -41.524  54.972 -56.976  1.00  0.00     0.162 HD
ENDROOT
BRANCH   2   5
HETATM    5  C   UNL     1     -42.812  56.979 -57.517  1.00  0.00     0.146 A 
HETATM    6  N   UNL     1     -43.050  56.494 -58.751  1.00  0.00    -0.169 NA
HETATM    7  N   UNL     1     -42.736  57.516 -59.566  1.00  0.00    -0.277 N 
HETATM    8  H   UNL     1     -42.811  57.368 -60.566  1.00  0.00     0.189 HD
HETATM    9  C   UNL     1     -42.325  58.655 -58.920  1.00  0.00     0.063 A 
HETATM   10  C   UNL     1     -42.353  58.319 -57.581  1.00  0.00     0.071 A 
BRANCH   9  11
HETATM   11  C   UNL     1     -41.937  59.888 -59.602  1.00  0.00    -0.008 A 
HETATM   12  C   UNL     1     -41.475  61.004 -58.884  1.00  0.00     0.017 A 
HETATM   13  C   UNL     1     -41.105  62.175 -59.551  1.00  0.00     0.043 A 
HETATM   14  C   UNL     1     -41.193  62.236 -60.935  1.00  0.00     0.116 A 
HETATM   15  F   UNL     1     -40.837  63.359 -61.571  1.00  0.00    -0.206 F 
HETATM   16  C   UNL     1     -41.641  61.145 -61.667  1.00  0.00     0.043 A 
HETATM   17  C   UNL     1     -42.010  59.973 -61.002  1.00  0.00     0.017 A 
ENDBRANCH   9  11
ENDBRANCH   2   5
BRANCH   1  18
HETATM   18  C   UNL     1     -42.169  54.174 -55.091  1.00  0.00     0.165 C 
BRANCH  18  19
HETATM   19  C   UNL     1     -40.881  54.356 -54.237  1.00  0.00     0.097 C 
HETATM   20  C   UNL     1     -41.066  55.474 -53.201  1.00  0.00     0.053 C 
BRANCH  19  21
HETATM   21  O   UNL     1     -39.839  54.777 -55.142  1.00  0.00    -0.384 OA
HETATM   22  H   UNL     1     -39.334  55.476 -54.691  1.00  0.00     0.211 HD
ENDBRANCH  19  21
BRANCH  19  23
HETATM   23  C   UNL     1     -40.405  53.076 -53.537  1.00  0.00    -0.023 A 
HETATM   24  C   UNL     1     -40.141  51.879 -54.227  1.00  0.00     0.013 A 
HETATM   25  C   UNL     1     -39.717  50.734 -53.544  1.00  0.00     0.043 A 
HETATM   26  C   UNL     1     -39.562  50.770 -52.166  1.00  0.00     0.116 A 
HETATM   27  F   UNL     1     -39.159  49.670 -51.517  1.00  0.00    -0.206 F 
HETATM   28  C   UNL     1     -39.823  51.930 -51.453  1.00  0.00     0.043 A 
HETATM   29  C   UNL     1     -40.243  53.074 -52.134  1.00  0.00     0.013 A 
ENDBRANCH  19  23
ENDBRANCH  18  19
ENDBRANCH   1  18
TORSDOF 6
ENDMDL
MODEL 7
REMARK VINA RESULT:      -7.9      7.421      9.385
REMARK  6 active torsions:
REMARK  status: ('A' for Active; 'I' for Inactive)
REMARK    1  A    between atoms: C_2  and  O_3 
REMARK    2  A    between atoms: C_2  and  C_4 
REMARK    3  A    between atoms: C_2  and  C_11 
REMARK    4  A    between atoms: C_11  and  N_12 
REMARK       I    between atoms: N_12  and  C_13 
REMARK    5  A    between atoms: C_13  and  C_14 
REMARK    6  A    between atoms: C_18  and  C_19 
ROOT
HETATM    1  N   UNL     1     -45.072  59.018 -50.202  1.00  0.00    -0.352 N 
HETATM    2  C   UNL     1     -44.901  58.474 -51.454  1.00  0.00     0.272 C 
HETATM    3  O   UNL     1     -45.209  59.052 -52.493  1.00  0.00    -0.266 OA
HETATM    4  H   UNL     1     -44.665  58.489 -49.434  1.00  0.00     0.162 HD
ENDROOT
BRANCH   2   5
HETATM    5  C   UNL     1     -44.301  57.131 -51.434  1.00  0.00     0.146 A 
HETATM    6  N   UNL     1     -44.702  56.175 -50.573  1.00  0.00    -0.169 NA
HETATM    7  N   UNL     1     -43.916  55.124 -50.868  1.00  0.00    -0.277 N 
HETATM    8  H   UNL     1     -44.022  54.281 -50.316  1.00  0.00     0.189 HD
HETATM    9  C   UNL     1     -43.036  55.342 -51.898  1.00  0.00     0.063 A 
HETATM   10  C   UNL     1     -43.260  56.652 -52.271  1.00  0.00     0.071 A 
BRANCH   9  11
HETATM   11  C   UNL     1     -42.090  54.343 -52.391  1.00  0.00    -0.008 A 
HETATM   12  C   UNL     1     -41.140  53.754 -51.540  1.00  0.00     0.017 A 
HETATM   13  C   UNL     1     -40.245  52.797 -52.026  1.00  0.00     0.043 A 
HETATM   14  C   UNL     1     -40.296  52.424 -53.363  1.00  0.00     0.116 A 
HETATM   15  F   UNL     1     -39.438  51.507 -53.826  1.00  0.00    -0.206 F 
HETATM   16  C   UNL     1     -41.229  52.988 -54.223  1.00  0.00     0.043 A 
HETATM   17  C   UNL     1     -42.125  53.943 -53.737  1.00  0.00     0.017 A 
ENDBRANCH   9  11
ENDBRANCH   2   5
BRANCH   1  18
HETATM   18  C   UNL     1     -45.530  60.376 -49.977  1.00  0.00     0.165 C 
BRANCH  18  19
HETATM   19  C   UNL     1     -44.420  61.327 -49.443  1.00  0.00     0.097 C 
HETATM   20  C   UNL     1     -44.129  62.446 -50.451  1.00  0.00     0.053 C 
BRANCH  19  21
HETATM   21  O   UNL     1     -43.220  60.534 -49.319  1.00  0.00    -0.384 OA
HETATM   22  H   UNL     1     -42.823  60.751 -48.458  1.00  0.00     0.211 HD
ENDBRANCH  19  21
BRANCH  19  23
HETATM   23  C   UNL     1     -44.724  61.935 -48.067  1.00  0.00    -0.023 A 
HETATM   24  C   UNL     1     -44.869  63.319 -47.856  1.00  0.00     0.013 A 
HETATM   25  C   UNL     1     -45.136  63.828 -46.581  1.00  0.00     0.043 A 
HETATM   26  C   UNL     1     -45.253  62.962 -45.503  1.00  0.00     0.116 A 
HETATM   27  F   UNL     1     -45.507  63.455 -44.284  1.00  0.00    -0.206 F 
HETATM   28  C   UNL     1     -45.107  61.594 -45.672  1.00  0.00     0.043 A 
HETATM   29  C   UNL     1     -44.842  61.084 -46.945  1.00  0.00     0.013 A 
ENDBRANCH  19  23
ENDBRANCH  18  19
ENDBRANCH   1  18
TORSDOF 6
ENDMDL
MODEL 8
REMARK VINA RESULT:      -7.8      2.592      3.246
REMARK  6 active torsions:
REMARK  status: ('A' for Active; 'I' for Inactive)
REMARK    1  A    between atoms: C_2  and  O_3 
REMARK    2  A    between atoms: C_2  and  C_4 
REMARK    3  A    between atoms: C_2  and  C_11 
REMARK    4  A    between atoms: C_11  and  N_12 
REMARK       I    between atoms: N_12  and  C_13 
REMARK    5  A    between atoms: C_13  and  C_14 
REMARK    6  A    between atoms: C_18  and  C_19 
ROOT
HETATM    1  N   UNL     1     -43.621  57.894 -54.269  1.00  0.00    -0.352 N 
HETATM    2  C   UNL     1     -42.267  57.863 -54.024  1.00  0.00     0.272 C 
HETATM    3  O   UNL     1     -41.505  58.784 -54.306  1.00  0.00    -0.266 OA
HETATM    4  H   UNL     1     -44.156  57.122 -53.878  1.00  0.00     0.162 HD
ENDROOT
BRANCH   2   5
HETATM    5  C   UNL     1     -41.815  56.621 -53.377  1.00  0.00     0.146 A 
HETATM    6  N   UNL     1     -41.763  56.484 -52.038  1.00  0.00    -0.169 NA
HETATM    7  N   UNL     1     -41.300  55.234 -51.859  1.00  0.00    -0.277 N 
HETATM    8  H   UNL     1     -41.149  54.913 -50.909  1.00  0.00     0.189 HD
HETATM    9  C   UNL     1     -41.070  54.540 -53.020  1.00  0.00     0.063 A 
HETATM   10  C   UNL     1     -41.385  55.435 -54.023  1.00  0.00     0.071 A 
BRANCH   9  11
HETATM   11  C   UNL     1     -40.570  53.167 -53.068  1.00  0.00    -0.008 A 
HETATM   12  C   UNL     1     -39.987  52.563 -51.941  1.00  0.00     0.017 A 
HETATM   13  C   UNL     1     -39.517  51.249 -52.002  1.00  0.00     0.043 A 
HETATM   14  C   UNL     1     -39.630  50.532 -53.186  1.00  0.00     0.116 A 
HETATM   15  F   UNL     1     -39.181  49.272 -53.241  1.00  0.00    -0.206 F 
HETATM   16  C   UNL     1     -40.208  51.105 -54.311  1.00  0.00     0.043 A 
HETATM   17  C   UNL     1     -40.679  52.418 -54.251  1.00  0.00     0.017 A 
ENDBRANCH   9  11
ENDBRANCH   2   5
BRANCH   1  18
HETATM   18  C   UNL     1     -44.313  59.059 -54.786  1.00  0.00     0.165 C 
BRANCH  18  19
HETATM   19  C   UNL     1     -44.995  58.818 -56.163  1.00  0.00     0.097 C 
HETATM   20  C   UNL     1     -45.705  60.089 -56.651  1.00  0.00     0.053 C 
BRANCH  19  21
HETATM   21  O   UNL     1     -46.008  57.812 -55.954  1.00  0.00    -0.384 OA
HETATM   22  H   UNL     1     -46.316  57.905 -55.035  1.00  0.00     0.211 HD
ENDBRANCH  19  21
BRANCH  19  23
HETATM   23  C   UNL     1     -44.044  58.306 -57.254  1.00  0.00    -0.023 A 
HETATM   24  C   UNL     1     -42.836  58.949 -57.581  1.00  0.00     0.013 A 
HETATM   25  C   UNL     1     -42.006  58.449 -58.590  1.00  0.00     0.043 A 
HETATM   26  C   UNL     1     -42.376  57.308 -59.286  1.00  0.00     0.116 A 
HETATM   27  F   UNL     1     -41.579  56.835 -60.252  1.00  0.00    -0.206 F 
HETATM   28  C   UNL     1     -43.564  56.654 -58.996  1.00  0.00     0.043 A 
HETATM   29  C   UNL     1     -44.393  57.150 -57.988  1.00  0.00     0.013 A 
ENDBRANCH  19  23
ENDBRANCH  18  19
ENDBRANCH   1  18
TORSDOF 6
ENDMDL
MODEL 9
REMARK VINA RESULT:      -7.5      2.067      2.660
REMARK  6 active torsions:
REMARK  status: ('A' for Active; 'I' for Inactive)
REMARK    1  A    between atoms: C_2  and  O_3 
REMARK    2  A    between atoms: C_2  and  C_4 
REMARK    3  A    between atoms: C_2  and  C_11 
REMARK    4  A    between atoms: C_11  and  N_12 
REMARK       I    between atoms: N_12  and  C_13 
REMARK    5  A    between atoms: C_13  and  C_14 
REMARK    6  A    between atoms: C_18  and  C_19 
ROOT
HETATM    1  N   UNL     1     -43.573  58.049 -56.433  1.00  0.00    -0.352 N 
HETATM    2  C   UNL     1     -43.852  57.193 -55.392  1.00  0.00     0.272 C 
HETATM    3  O   UNL     1     -44.824  57.318 -54.652  1.00  0.00    -0.266 OA
HETATM    4  H   UNL     1     -42.810  57.765 -57.043  1.00  0.00     0.162 HD
ENDROOT
BRANCH   2   5
HETATM    5  C   UNL     1     -42.878  56.099 -55.254  1.00  0.00     0.146 A 
HETATM    6  N   UNL     1     -42.132  55.664 -56.288  1.00  0.00    -0.169 NA
HETATM    7  N   UNL     1     -41.393  54.673 -55.759  1.00  0.00    -0.277 N 
HETATM    8  H   UNL     1     -40.763  54.169 -56.372  1.00  0.00     0.189 HD
HETATM    9  C   UNL     1     -41.605  54.456 -54.421  1.00  0.00     0.063 A 
HETATM   10  C   UNL     1     -42.583  55.367 -54.076  1.00  0.00     0.071 A 
BRANCH   9  11
HETATM   11  C   UNL     1     -40.911  53.435 -53.637  1.00  0.00    -0.008 A 
HETATM   12  C   UNL     1     -40.826  53.524 -52.237  1.00  0.00     0.017 A 
HETATM   13  C   UNL     1     -40.163  52.538 -51.502  1.00  0.00     0.043 A 
HETATM   14  C   UNL     1     -39.585  51.460 -52.160  1.00  0.00     0.116 A 
HETATM   15  F   UNL     1     -38.951  50.517 -51.452  1.00  0.00    -0.206 F 
HETATM   16  C   UNL     1     -39.661  51.347 -53.542  1.00  0.00     0.043 A 
HETATM   17  C   UNL     1     -40.325  52.332 -54.278  1.00  0.00     0.017 A 
ENDBRANCH   9  11
ENDBRANCH   2   5
BRANCH   1  18
HETATM   18  C   UNL     1     -44.456  59.126 -56.839  1.00  0.00     0.165 C 
BRANCH  18  19
HETATM   19  C   UNL     1     -44.609  59.257 -58.382  1.00  0.00     0.097 C 
HETATM   20  C   UNL     1     -43.482  60.117 -58.971  1.00  0.00     0.053 C 
BRANCH  19  21
HETATM   21  O   UNL     1     -45.851  59.953 -58.618  1.00  0.00    -0.384 OA
HETATM   22  H   UNL     1     -46.522  59.539 -58.049  1.00  0.00     0.211 HD
ENDBRANCH  19  21
BRANCH  19  23
HETATM   23  C   UNL     1     -44.676  57.914 -59.122  1.00  0.00    -0.023 A 
HETATM   24  C   UNL     1     -43.536  57.251 -59.611  1.00  0.00     0.013 A 
HETATM   25  C   UNL     1     -43.648  56.032 -60.288  1.00  0.00     0.043 A 
HETATM   26  C   UNL     1     -44.900  55.468 -60.491  1.00  0.00     0.116 A 
HETATM   27  F   UNL     1     -45.002  54.302 -61.141  1.00  0.00    -0.206 F 
HETATM   28  C   UNL     1     -46.046  56.099 -60.030  1.00  0.00     0.043 A 
HETATM   29  C   UNL     1     -45.934  57.314 -59.352  1.00  0.00     0.013 A 
ENDBRANCH  19  23
ENDBRANCH  18  19
ENDBRANCH   1  18
TORSDOF 6
ENDMDL
MODEL 10
REMARK VINA RESULT:      -7.5     15.467     17.355
REMARK  6 active torsions:
REMARK  status: ('A' for Active; 'I' for Inactive)
REMARK    1  A    between atoms: C_2  and  O_3 
REMARK    2  A    between atoms: C_2  and  C_4 
REMARK    3  A    between atoms: C_2  and  C_11 
REMARK    4  A    between atoms: C_11  and  N_12 
REMARK       I    between atoms: N_12  and  C_13 
REMARK    5  A    between atoms: C_13  and  C_14 
REMARK    6  A    between atoms: C_18  and  C_19 
ROOT
HETATM    1  N   UNL     1     -35.745  40.894 -54.345  1.00  0.00    -0.352 N 
HETATM    2  C   UNL     1     -35.562  41.479 -53.113  1.00  0.00     0.272 C 
HETATM    3  O   UNL     1     -35.771  42.667 -52.888  1.00  0.00    -0.266 OA
HETATM    4  H   UNL     1     -35.655  39.881 -54.369  1.00  0.00     0.162 HD
ENDROOT
BRANCH   2   5
HETATM    5  C   UNL     1     -35.101  40.539 -52.080  1.00  0.00     0.146 A 
HETATM    6  N   UNL     1     -35.553  39.271 -52.005  1.00  0.00    -0.169 NA
HETATM    7  N   UNL     1     -34.905  38.760 -50.943  1.00  0.00    -0.277 N 
HETATM    8  H   UNL     1     -35.113  37.805 -50.674  1.00  0.00     0.189 HD
HETATM    9  C   UNL     1     -34.034  39.627 -50.334  1.00  0.00     0.063 A 
HETATM   10  C   UNL     1     -34.160  40.800 -51.052  1.00  0.00     0.071 A 
BRANCH   9  11
HETATM   11  C   UNL     1     -33.222  39.288 -49.167  1.00  0.00    -0.008 A 
HETATM   12  C   UNL     1     -31.999  39.931 -48.918  1.00  0.00     0.017 A 
HETATM   13  C   UNL     1     -31.236  39.598 -47.796  1.00  0.00     0.043 A 
HETATM   14  C   UNL     1     -31.693  38.624 -46.918  1.00  0.00     0.116 A 
HETATM   15  F   UNL     1     -30.960  38.307 -45.843  1.00  0.00    -0.206 F 
HETATM   16  C   UNL     1     -32.901  37.978 -47.139  1.00  0.00     0.043 A 
HETATM   17  C   UNL     1     -33.665  38.311 -48.260  1.00  0.00     0.017 A 
ENDBRANCH   9  11
ENDBRANCH   2   5
BRANCH   1  18
HETATM   18  C   UNL     1     -36.310  41.592 -55.485  1.00  0.00     0.165 C 
BRANCH  18  19
HETATM   19  C   UNL     1     -35.383  41.594 -56.735  1.00  0.00     0.097 C 
HETATM   20  C   UNL     1     -34.131  40.741 -56.488  1.00  0.00     0.053 C 
BRANCH  19  21
HETATM   21  O   UNL     1     -34.946  42.956 -56.924  1.00  0.00    -0.384 OA
HETATM   22  H   UNL     1     -34.272  42.944 -57.627  1.00  0.00     0.211 HD
ENDBRANCH  19  21
BRANCH  19  23
HETATM   23  C   UNL     1     -36.073  41.139 -58.028  1.00  0.00    -0.023 A 
HETATM   24  C   UNL     1     -36.860  41.996 -58.819  1.00  0.00     0.013 A 
HETATM   25  C   UNL     1     -37.476  41.533 -59.987  1.00  0.00     0.043 A 
HETATM   26  C   UNL     1     -37.321  40.209 -60.371  1.00  0.00     0.116 A 
HETATM   27  F   UNL     1     -37.915  39.770 -61.487  1.00  0.00    -0.206 F 
HETATM   28  C   UNL     1     -36.560  39.334 -59.610  1.00  0.00     0.043 A 
HETATM   29  C   UNL     1     -35.942  39.796 -58.446  1.00  0.00     0.013 A 
ENDBRANCH  19  23
ENDBRANCH  18  19
ENDBRANCH   1  18
TORSDOF 6
ENDMDL
