MODEL 1
REMARK VINA RESULT:      -9.1      0.000      0.000
REMARK  2 active torsions:
REMARK  status: ('A' for Active; 'I' for Inactive)
REMARK       I    between atoms: N_4  and  C_5 
REMARK       I    between atoms: C_5  and  N_6 
REMARK    1  A    between atoms: N_6  and  C_7 
REMARK    2  A    between atoms: C_20  and  C_21 
ROOT
HETATM    1  C   UNL     1     -45.463  60.098 -55.204  1.00  0.00     0.011 C 
HETATM    2  C   UNL     1     -44.290  59.217 -55.598  1.00  0.00     0.002 C 
HETATM    3  C   UNL     1     -44.480  57.757 -55.200  1.00  0.00     0.132 C 
HETATM    4  N   UNL     1     -43.645  57.035 -56.142  1.00  0.00    -0.325 N 
HETATM    5  C   UNL     1     -42.749  56.025 -55.844  1.00  0.00     0.323 C 
HETATM    6  N   UNL     1     -43.013  55.383 -54.655  1.00  0.00    -0.309 N 
HETATM    7  O   UNL     1     -41.817  55.745 -56.593  1.00  0.00    -0.247 OA
HETATM    8  C   UNL     1     -43.571  57.744 -57.415  1.00  0.00     0.125 C 
HETATM    9  C   UNL     1     -44.049  59.177 -57.113  1.00  0.00     0.036 C 
HETATM   10  H   UNL     1     -43.988  55.370 -54.395  1.00  0.00     0.170 HD
ENDROOT
BRANCH   6  11
HETATM   11  C   UNL     1     -42.149  54.514 -53.961  1.00  0.00     0.038 A 
HETATM   12  C   UNL     1     -41.801  53.247 -54.440  1.00  0.00     0.062 A 
HETATM   13  C   UNL     1     -40.903  52.450 -53.725  1.00  0.00     0.070 A 
HETATM   14  C   UNL     1     -40.349  52.906 -52.529  1.00  0.00     0.096 A 
HETATM   15  N   UNL     1     -40.526  51.212 -54.243  1.00  0.00    -0.323 N 
HETATM   16  O   UNL     1     -39.444  52.199 -51.790  1.00  0.00    -0.335 OA
HETATM   17  C   UNL     1     -40.681  54.174 -52.056  1.00  0.00     0.041 A 
HETATM   18  C   UNL     1     -39.305  50.826 -52.150  1.00  0.00     0.217 C 
HETATM   19  C   UNL     1     -39.667  50.386 -53.577  1.00  0.00     0.251 C 
HETATM   20  C   UNL     1     -40.110  49.990 -51.159  1.00  0.00     0.050 C 
HETATM   21  O   UNL     1     -39.282  49.329 -54.073  1.00  0.00    -0.270 OA
HETATM   22  C   UNL     1     -41.574  54.978 -52.773  1.00  0.00     0.032 A 
HETATM   23  H   UNL     1     -40.846  50.911 -55.154  1.00  0.00     0.169 HD
ENDBRANCH   6  11
BRANCH   8  24
HETATM   24  C   UNL     1     -44.367  57.011 -58.481  1.00  0.00     0.003 A 
HETATM   25  C   UNL     1     -43.791  56.086 -59.361  1.00  0.00     0.124 A 
HETATM   26  F   UNL     1     -42.481  55.806 -59.296  1.00  0.00    -0.205 F 
HETATM   27  C   UNL     1     -44.544  55.439 -60.338  1.00  0.00     0.043 A 
HETATM   28  C   UNL     1     -45.900  55.725 -60.472  1.00  0.00     0.003 A 
HETATM   29  C   UNL     1     -46.491  56.666 -59.631  1.00  0.00     0.001 A 
HETATM   30  C   UNL     1     -45.731  57.304 -58.646  1.00  0.00     0.012 A 
ENDBRANCH   8  24
TORSDOF 2
ENDMDL
MODEL 2
REMARK VINA RESULT:      -8.8      2.768      4.459
REMARK  2 active torsions:
REMARK  status: ('A' for Active; 'I' for Inactive)
REMARK       I    between atoms: N_4  and  C_5 
REMARK       I    between atoms: C_5  and  N_6 
REMARK    1  A    between atoms: N_6  and  C_7 
REMARK    2  A    between atoms: C_20  and  C_21 
ROOT
HETATM    1  C   UNL     1     -45.035  55.006 -61.471  1.00  0.00     0.011 C 
HETATM    2  C   UNL     1     -45.010  55.682 -60.110  1.00  0.00     0.002 C 
HETATM    3  C   UNL     1     -43.668  55.547 -59.401  1.00  0.00     0.132 C 
HETATM    4  N   UNL     1     -43.635  56.692 -58.510  1.00  0.00    -0.325 N 
HETATM    5  C   UNL     1     -43.283  56.687 -57.173  1.00  0.00     0.323 C 
HETATM    6  N   UNL     1     -42.494  55.618 -56.812  1.00  0.00    -0.309 N 
HETATM    7  O   UNL     1     -43.650  57.571 -56.404  1.00  0.00    -0.247 OA
HETATM    8  C   UNL     1     -44.380  57.810 -59.079  1.00  0.00     0.125 C 
HETATM    9  C   UNL     1     -45.258  57.195 -60.186  1.00  0.00     0.036 C 
HETATM   10  H   UNL     1     -41.908  55.262 -57.553  1.00  0.00     0.170 HD
ENDROOT
BRANCH   6  11
HETATM   11  C   UNL     1     -42.201  55.197 -55.500  1.00  0.00     0.038 A 
HETATM   12  C   UNL     1     -43.137  55.237 -54.462  1.00  0.00     0.062 A 
HETATM   13  C   UNL     1     -42.797  54.762 -53.193  1.00  0.00     0.070 A 
HETATM   14  C   UNL     1     -41.523  54.250 -52.947  1.00  0.00     0.096 A 
HETATM   15  N   UNL     1     -43.758  54.760 -52.184  1.00  0.00    -0.323 N 
HETATM   16  O   UNL     1     -41.126  53.742 -51.743  1.00  0.00    -0.335 OA
HETATM   17  C   UNL     1     -40.592  54.193 -53.982  1.00  0.00     0.041 A 
HETATM   18  C   UNL     1     -41.992  54.028 -50.646  1.00  0.00     0.217 C 
HETATM   19  C   UNL     1     -43.473  54.326 -50.921  1.00  0.00     0.251 C 
HETATM   20  C   UNL     1     -41.394  55.191 -49.858  1.00  0.00     0.050 C 
HETATM   21  O   UNL     1     -44.345  54.258 -50.056  1.00  0.00    -0.270 OA
HETATM   22  C   UNL     1     -40.931  54.660 -55.256  1.00  0.00     0.032 A 
HETATM   23  H   UNL     1     -44.712  55.040 -52.373  1.00  0.00     0.169 HD
ENDBRANCH   6  11
BRANCH   8  24
HETATM   24  C   UNL     1     -43.432  58.902 -59.542  1.00  0.00     0.003 A 
HETATM   25  C   UNL     1     -43.290  60.124 -58.872  1.00  0.00     0.124 A 
HETATM   26  F   UNL     1     -44.007  60.383 -57.767  1.00  0.00    -0.205 F 
HETATM   27  C   UNL     1     -42.422  61.113 -59.328  1.00  0.00     0.043 A 
HETATM   28  C   UNL     1     -41.686  60.907 -60.492  1.00  0.00     0.003 A 
HETATM   29  C   UNL     1     -41.832  59.714 -61.196  1.00  0.00     0.001 A 
HETATM   30  C   UNL     1     -42.698  58.721 -60.727  1.00  0.00     0.012 A 
ENDBRANCH   8  24
TORSDOF 2
ENDMDL
MODEL 3
REMARK VINA RESULT:      -8.7      3.156      8.543
REMARK  2 active torsions:
REMARK  status: ('A' for Active; 'I' for Inactive)
REMARK       I    between atoms: N_4  and  C_5 
REMARK       I    between atoms: C_5  and  N_6 
REMARK    1  A    between atoms: N_6  and  C_7 
REMARK    2  A    between atoms: C_20  and  C_21 
ROOT
HETATM    1  C   UNL     1     -40.258  58.630 -50.962  1.00  0.00     0.011 C 
HETATM    2  C   UNL     1     -41.378  57.816 -51.588  1.00  0.00     0.002 C 
HETATM    3  C   UNL     1     -41.045  57.324 -52.992  1.00  0.00     0.132 C 
HETATM    4  N   UNL     1     -41.876  56.144 -53.146  1.00  0.00    -0.325 N 
HETATM    5  C   UNL     1     -42.666  55.827 -54.236  1.00  0.00     0.323 C 
HETATM    6  N   UNL     1     -42.276  56.449 -55.401  1.00  0.00    -0.309 N 
HETATM    7  O   UNL     1     -43.616  55.056 -54.143  1.00  0.00    -0.247 OA
HETATM    8  C   UNL     1     -42.086  55.489 -51.859  1.00  0.00     0.125 C 
HETATM    9  C   UNL     1     -41.709  56.542 -50.799  1.00  0.00     0.036 C 
HETATM   10  H   UNL     1     -41.289  56.650 -55.457  1.00  0.00     0.170 HD
ENDROOT
BRANCH   6  11
HETATM   11  C   UNL     1     -43.021  56.539 -56.593  1.00  0.00     0.038 A 
HETATM   12  C   UNL     1     -44.043  57.474 -56.782  1.00  0.00     0.062 A 
HETATM   13  C   UNL     1     -44.715  57.541 -58.005  1.00  0.00     0.070 A 
HETATM   14  C   UNL     1     -44.377  56.676 -59.046  1.00  0.00     0.096 A 
HETATM   15  N   UNL     1     -45.694  58.515 -58.194  1.00  0.00    -0.323 N 
HETATM   16  O   UNL     1     -44.967  56.700 -60.278  1.00  0.00    -0.335 OA
HETATM   17  C   UNL     1     -43.349  55.753 -58.868  1.00  0.00     0.041 A 
HETATM   18  C   UNL     1     -46.165  57.469 -60.364  1.00  0.00     0.217 C 
HETATM   19  C   UNL     1     -46.394  58.612 -59.363  1.00  0.00     0.251 C 
HETATM   20  C   UNL     1     -47.352  56.512 -60.297  1.00  0.00     0.050 C 
HETATM   21  O   UNL     1     -47.204  59.518 -59.549  1.00  0.00    -0.270 OA
HETATM   22  C   UNL     1     -42.669  55.688 -57.647  1.00  0.00     0.032 A 
HETATM   23  H   UNL     1     -45.882  59.209 -57.483  1.00  0.00     0.169 HD
ENDBRANCH   6  11
BRANCH   8  24
HETATM   24  C   UNL     1     -41.302  54.191 -51.785  1.00  0.00     0.003 A 
HETATM   25  C   UNL     1     -41.102  53.488 -50.591  1.00  0.00     0.124 A 
HETATM   26  F   UNL     1     -41.608  53.947 -49.436  1.00  0.00    -0.205 F 
HETATM   27  C   UNL     1     -40.365  52.306 -50.552  1.00  0.00     0.043 A 
HETATM   28  C   UNL     1     -39.786  51.810 -51.716  1.00  0.00     0.003 A 
HETATM   29  C   UNL     1     -39.942  52.508 -52.913  1.00  0.00     0.001 A 
HETATM   30  C   UNL     1     -40.691  53.688 -52.947  1.00  0.00     0.012 A 
ENDBRANCH   8  24
TORSDOF 2
ENDMDL
MODEL 4
REMARK VINA RESULT:      -8.5      2.913      3.781
REMARK  2 active torsions:
REMARK  status: ('A' for Active; 'I' for Inactive)
REMARK       I    between atoms: N_4  and  C_5 
REMARK       I    between atoms: C_5  and  N_6 
REMARK    1  A    between atoms: N_6  and  C_7 
REMARK    2  A    between atoms: C_20  and  C_21 
ROOT
HETATM    1  C   UNL     1     -41.754  60.760 -60.054  1.00  0.00     0.011 C 
HETATM    2  C   UNL     1     -41.778  59.300 -59.633  1.00  0.00     0.002 C 
HETATM    3  C   UNL     1     -42.579  59.059 -58.359  1.00  0.00     0.132 C 
HETATM    4  N   UNL     1     -42.990  57.672 -58.472  1.00  0.00    -0.325 N 
HETATM    5  C   UNL     1     -42.909  56.704 -57.487  1.00  0.00     0.323 C 
HETATM    6  N   UNL     1     -42.854  57.217 -56.211  1.00  0.00    -0.309 N 
HETATM    7  O   UNL     1     -42.893  55.506 -57.757  1.00  0.00    -0.247 OA
HETATM    8  C   UNL     1     -43.163  57.296 -59.871  1.00  0.00     0.125 C 
HETATM    9  C   UNL     1     -42.427  58.383 -60.679  1.00  0.00     0.036 C 
HETATM   10  H   UNL     1     -43.323  58.103 -56.096  1.00  0.00     0.170 HD
ENDROOT
BRANCH   6  11
HETATM   11  C   UNL     1     -42.505  56.516 -55.040  1.00  0.00     0.038 A 
HETATM   12  C   UNL     1     -43.392  56.321 -53.978  1.00  0.00     0.062 A 
HETATM   13  C   UNL     1     -42.997  55.577 -52.862  1.00  0.00     0.070 A 
HETATM   14  C   UNL     1     -41.717  55.028 -52.795  1.00  0.00     0.096 A 
HETATM   15  N   UNL     1     -43.912  55.348 -51.836  1.00  0.00    -0.323 N 
HETATM   16  O   UNL     1     -41.269  54.267 -51.753  1.00  0.00    -0.335 OA
HETATM   17  C   UNL     1     -40.834  55.208 -53.858  1.00  0.00     0.041 A 
HETATM   18  C   UNL     1     -42.082  54.299 -50.582  1.00  0.00     0.217 C 
HETATM   19  C   UNL     1     -43.573  54.644 -50.715  1.00  0.00     0.251 C 
HETATM   20  C   UNL     1     -41.442  55.260 -49.583  1.00  0.00     0.050 C 
HETATM   21  O   UNL     1     -44.404  54.383 -49.849  1.00  0.00    -0.270 OA
HETATM   22  C   UNL     1     -41.228  55.944 -54.979  1.00  0.00     0.032 A 
HETATM   23  H   UNL     1     -44.872  55.658 -51.915  1.00  0.00     0.169 HD
ENDBRANCH   6  11
BRANCH   8  24
HETATM   24  C   UNL     1     -44.635  57.133 -60.203  1.00  0.00     0.003 A 
HETATM   25  C   UNL     1     -45.200  55.911 -60.587  1.00  0.00     0.124 A 
HETATM   26  F   UNL     1     -44.441  54.808 -60.681  1.00  0.00    -0.205 F 
HETATM   27  C   UNL     1     -46.553  55.795 -60.899  1.00  0.00     0.043 A 
HETATM   28  C   UNL     1     -47.374  56.919 -60.855  1.00  0.00     0.003 A 
HETATM   29  C   UNL     1     -46.830  58.154 -60.508  1.00  0.00     0.001 A 
HETATM   30  C   UNL     1     -45.474  58.261 -60.187  1.00  0.00     0.012 A 
ENDBRANCH   8  24
TORSDOF 2
ENDMDL
MODEL 5
REMARK VINA RESULT:      -8.4      2.190      2.923
REMARK  2 active torsions:
REMARK  status: ('A' for Active; 'I' for Inactive)
REMARK       I    between atoms: N_4  and  C_5 
REMARK       I    between atoms: C_5  and  N_6 
REMARK    1  A    between atoms: N_6  and  C_7 
REMARK    2  A    between atoms: C_20  and  C_21 
ROOT
HETATM    1  C   UNL     1     -46.052  60.860 -56.548  1.00  0.00     0.011 C 
HETATM    2  C   UNL     1     -44.885  59.891 -56.624  1.00  0.00     0.002 C 
HETATM    3  C   UNL     1     -45.187  58.540 -55.986  1.00  0.00     0.132 C 
HETATM    4  N   UNL     1     -44.285  57.631 -56.667  1.00  0.00    -0.325 N 
HETATM    5  C   UNL     1     -43.477  56.674 -56.079  1.00  0.00     0.323 C 
HETATM    6  N   UNL     1     -43.905  56.280 -54.831  1.00  0.00    -0.309 N 
HETATM    7  O   UNL     1     -42.480  56.233 -56.644  1.00  0.00    -0.247 OA
HETATM    8  C   UNL     1     -44.033  58.079 -58.033  1.00  0.00     0.125 C 
HETATM    9  C   UNL     1     -44.475  59.555 -58.065  1.00  0.00     0.036 C 
HETATM   10  H   UNL     1     -44.903  56.340 -54.693  1.00  0.00     0.170 HD
ENDROOT
BRANCH   6  11
HETATM   11  C   UNL     1     -43.168  55.539 -53.888  1.00  0.00     0.038 A 
HETATM   12  C   UNL     1     -42.934  55.986 -52.584  1.00  0.00     0.062 A 
HETATM   13  C   UNL     1     -42.232  55.183 -51.682  1.00  0.00     0.070 A 
HETATM   14  C   UNL     1     -41.755  53.932 -52.072  1.00  0.00     0.096 A 
HETATM   15  N   UNL     1     -42.055  55.622 -50.371  1.00  0.00    -0.323 N 
HETATM   16  O   UNL     1     -41.087  53.078 -51.240  1.00  0.00    -0.335 OA
HETATM   17  C   UNL     1     -41.998  53.475 -53.365  1.00  0.00     0.041 A 
HETATM   18  C   UNL     1     -40.636  53.651 -50.015  1.00  0.00     0.217 C 
HETATM   19  C   UNL     1     -41.360  54.885 -49.454  1.00  0.00     0.251 C 
HETATM   20  C   UNL     1     -39.151  53.976 -50.158  1.00  0.00     0.050 C 
HETATM   21  O   UNL     1     -41.270  55.243 -48.282  1.00  0.00    -0.270 OA
HETATM   22  C   UNL     1     -42.707  54.273 -54.269  1.00  0.00     0.032 A 
HETATM   23  H   UNL     1     -42.477  56.482 -50.049  1.00  0.00     0.169 HD
ENDBRANCH   6  11
BRANCH   8  24
HETATM   24  C   UNL     1     -44.736  57.175 -59.030  1.00  0.00     0.003 A 
HETATM   25  C   UNL     1     -44.054  56.264 -59.845  1.00  0.00     0.124 A 
HETATM   26  F   UNL     1     -42.718  56.153 -59.776  1.00  0.00    -0.205 F 
HETATM   27  C   UNL     1     -44.724  55.456 -60.761  1.00  0.00     0.043 A 
HETATM   28  C   UNL     1     -46.105  55.563 -60.899  1.00  0.00     0.003 A 
HETATM   29  C   UNL     1     -46.805  56.485 -60.123  1.00  0.00     0.001 A 
HETATM   30  C   UNL     1     -46.127  57.285 -59.199  1.00  0.00     0.012 A 
ENDBRANCH   8  24
TORSDOF 2
ENDMDL
MODEL 6
REMARK VINA RESULT:      -8.3      2.926      8.604
REMARK  2 active torsions:
REMARK  status: ('A' for Active; 'I' for Inactive)
REMARK       I    between atoms: N_4  and  C_5 
REMARK       I    between atoms: C_5  and  N_6 
REMARK    1  A    between atoms: N_6  and  C_7 
REMARK    2  A    between atoms: C_20  and  C_21 
ROOT
HETATM    1  C   UNL     1     -41.242  56.901 -50.340  1.00  0.00     0.011 C 
HETATM    2  C   UNL     1     -42.107  56.206 -51.378  1.00  0.00     0.002 C 
HETATM    3  C   UNL     1     -41.569  56.350 -52.797  1.00  0.00     0.132 C 
HETATM    4  N   UNL     1     -42.109  55.194 -53.487  1.00  0.00    -0.325 N 
HETATM    5  C   UNL     1     -42.725  55.184 -54.724  1.00  0.00     0.323 C 
HETATM    6  N   UNL     1     -42.392  56.259 -55.517  1.00  0.00    -0.309 N 
HETATM    7  O   UNL     1     -43.490  54.283 -55.059  1.00  0.00    -0.247 OA
HETATM    8  C   UNL     1     -42.270  54.072 -52.567  1.00  0.00     0.125 C 
HETATM    9  C   UNL     1     -42.212  54.691 -51.156  1.00  0.00     0.036 C 
HETATM   10  H   UNL     1     -41.471  56.635 -55.347  1.00  0.00     0.170 HD
ENDROOT
BRANCH   6  11
HETATM   11  C   UNL     1     -43.046  56.665 -56.697  1.00  0.00     0.038 A 
HETATM   12  C   UNL     1     -43.838  57.815 -56.770  1.00  0.00     0.062 A 
HETATM   13  C   UNL     1     -44.423  58.188 -57.983  1.00  0.00     0.070 A 
HETATM   14  C   UNL     1     -44.228  57.417 -59.128  1.00  0.00     0.096 A 
HETATM   15  N   UNL     1     -45.166  59.365 -58.049  1.00  0.00    -0.323 N 
HETATM   16  O   UNL     1     -44.742  57.731 -60.354  1.00  0.00    -0.335 OA
HETATM   17  C   UNL     1     -43.427  56.279 -59.064  1.00  0.00     0.041 A 
HETATM   18  C   UNL     1     -45.745  58.745 -60.352  1.00  0.00     0.217 C 
HETATM   19  C   UNL     1     -45.775  59.766 -59.204  1.00  0.00     0.251 C 
HETATM   20  C   UNL     1     -47.109  58.065 -60.440  1.00  0.00     0.050 C 
HETATM   21  O   UNL     1     -46.366  60.841 -59.276  1.00  0.00    -0.270 OA
HETATM   22  C   UNL     1     -42.833  55.907 -57.854  1.00  0.00     0.032 A 
HETATM   23  H   UNL     1     -45.236  59.982 -57.251  1.00  0.00     0.169 HD
ENDBRANCH   6  11
BRANCH   8  24
HETATM   24  C   UNL     1     -41.230  53.001 -52.843  1.00  0.00     0.003 A 
HETATM   25  C   UNL     1     -40.185  52.707 -51.958  1.00  0.00     0.124 A 
HETATM   26  F   UNL     1     -40.059  53.379 -50.803  1.00  0.00    -0.205 F 
HETATM   27  C   UNL     1     -39.237  51.728 -52.244  1.00  0.00     0.043 A 
HETATM   28  C   UNL     1     -39.301  51.030 -53.447  1.00  0.00     0.003 A 
HETATM   29  C   UNL     1     -40.312  51.326 -54.360  1.00  0.00     0.001 A 
HETATM   30  C   UNL     1     -41.266  52.303 -54.062  1.00  0.00     0.012 A 
ENDBRANCH   8  24
TORSDOF 2
ENDMDL
MODEL 7
REMARK VINA RESULT:      -8.2      2.973      8.903
REMARK  2 active torsions:
REMARK  status: ('A' for Active; 'I' for Inactive)
REMARK       I    between atoms: N_4  and  C_5 
REMARK       I    between atoms: C_5  and  N_6 
REMARK    1  A    between atoms: N_6  and  C_7 
REMARK    2  A    between atoms: C_20  and  C_21 
ROOT
HETATM    1  C   UNL     1     -40.265  49.899 -54.330  1.00  0.00     0.011 C 
HETATM    2  C   UNL     1     -40.103  51.410 -54.307  1.00  0.00     0.002 C 
HETATM    3  C   UNL     1     -41.418  52.149 -54.093  1.00  0.00     0.132 C 
HETATM    4  N   UNL     1     -41.009  53.412 -53.507  1.00  0.00    -0.325 N 
HETATM    5  C   UNL     1     -41.442  54.672 -53.875  1.00  0.00     0.323 C 
HETATM    6  N   UNL     1     -42.657  54.672 -54.523  1.00  0.00    -0.309 N 
HETATM    7  O   UNL     1     -40.785  55.680 -53.630  1.00  0.00    -0.247 OA
HETATM    8  C   UNL     1     -39.793  53.245 -52.718  1.00  0.00     0.125 C 
HETATM    9  C   UNL     1     -39.193  51.900 -53.172  1.00  0.00     0.036 C 
HETATM   10  H   UNL     1     -43.273  53.917 -54.258  1.00  0.00     0.170 HD
ENDROOT
BRANCH   6  11
HETATM   11  C   UNL     1     -43.223  55.741 -55.244  1.00  0.00     0.038 A 
HETATM   12  C   UNL     1     -42.982  55.953 -56.605  1.00  0.00     0.062 A 
HETATM   13  C   UNL     1     -43.610  57.008 -57.272  1.00  0.00     0.070 A 
HETATM   14  C   UNL     1     -44.478  57.860 -56.590  1.00  0.00     0.096 A 
HETATM   15  N   UNL     1     -43.400  57.172 -58.641  1.00  0.00    -0.323 N 
HETATM   16  O   UNL     1     -45.150  58.893 -57.179  1.00  0.00    -0.335 OA
HETATM   17  C   UNL     1     -44.733  57.644 -55.238  1.00  0.00     0.041 A 
HETATM   18  C   UNL     1     -44.697  59.249 -58.484  1.00  0.00     0.217 C 
HETATM   19  C   UNL     1     -43.973  58.197 -59.337  1.00  0.00     0.251 C 
HETATM   20  C   UNL     1     -43.802  60.480 -58.358  1.00  0.00     0.050 C 
HETATM   21  O   UNL     1     -43.843  58.293 -60.556  1.00  0.00    -0.270 OA
HETATM   22  C   UNL     1     -44.113  56.585 -54.568  1.00  0.00     0.032 A 
HETATM   23  H   UNL     1     -42.849  56.506 -59.166  1.00  0.00     0.169 HD
ENDBRANCH   6  11
BRANCH   8  24
HETATM   24  C   UNL     1     -40.101  53.344 -51.234  1.00  0.00     0.003 A 
HETATM   25  C   UNL     1     -40.343  52.223 -50.430  1.00  0.00     0.124 A 
HETATM   26  F   UNL     1     -40.312  50.988 -50.953  1.00  0.00    -0.205 F 
HETATM   27  C   UNL     1     -40.637  52.345 -49.073  1.00  0.00     0.043 A 
HETATM   28  C   UNL     1     -40.719  53.608 -48.492  1.00  0.00     0.003 A 
HETATM   29  C   UNL     1     -40.516  54.741 -49.277  1.00  0.00     0.001 A 
HETATM   30  C   UNL     1     -40.211  54.611 -50.636  1.00  0.00     0.012 A 
ENDBRANCH   8  24
TORSDOF 2
ENDMDL
MODEL 8
REMARK VINA RESULT:      -8.1      2.999      4.929
REMARK  2 active torsions:
REMARK  status: ('A' for Active; 'I' for Inactive)
REMARK       I    between atoms: N_4  and  C_5 
REMARK       I    between atoms: C_5  and  N_6 
REMARK    1  A    between atoms: N_6  and  C_7 
REMARK    2  A    between atoms: C_20  and  C_21 
ROOT
HETATM    1  C   UNL     1     -43.550  59.226 -56.989  1.00  0.00     0.011 C 
HETATM    2  C   UNL     1     -43.877  58.210 -55.907  1.00  0.00     0.002 C 
HETATM    3  C   UNL     1     -42.716  57.961 -54.951  1.00  0.00     0.132 C 
HETATM    4  N   UNL     1     -43.367  57.508 -53.735  1.00  0.00    -0.325 N 
HETATM    5  C   UNL     1     -43.009  56.417 -52.965  1.00  0.00     0.323 C 
HETATM    6  N   UNL     1     -41.698  56.029 -53.130  1.00  0.00    -0.309 N 
HETATM    7  O   UNL     1     -43.806  55.869 -52.210  1.00  0.00    -0.247 OA
HETATM    8  C   UNL     1     -44.688  58.113 -53.600  1.00  0.00     0.125 C 
HETATM    9  C   UNL     1     -45.038  58.645 -55.003  1.00  0.00     0.036 C 
HETATM   10  H   UNL     1     -41.068  56.778 -53.378  1.00  0.00     0.170 HD
ENDROOT
BRANCH   6  11
HETATM   11  C   UNL     1     -41.122  54.818 -52.701  1.00  0.00     0.038 A 
HETATM   12  C   UNL     1     -41.013  53.693 -53.524  1.00  0.00     0.062 A 
HETATM   13  C   UNL     1     -40.390  52.536 -53.051  1.00  0.00     0.070 A 
HETATM   14  C   UNL     1     -39.875  52.488 -51.756  1.00  0.00     0.096 A 
HETATM   15  N   UNL     1     -40.243  51.442 -53.903  1.00  0.00    -0.323 N 
HETATM   16  O   UNL     1     -39.228  51.405 -51.233  1.00  0.00    -0.335 OA
HETATM   17  C   UNL     1     -39.967  53.611 -50.937  1.00  0.00     0.041 A 
HETATM   18  C   UNL     1     -39.357  50.198 -51.982  1.00  0.00     0.217 C 
HETATM   19  C   UNL     1     -39.659  50.280 -53.486  1.00  0.00     0.251 C 
HETATM   20  C   UNL     1     -40.424  49.334 -51.313  1.00  0.00     0.050 C 
HETATM   21  O   UNL     1     -39.467  49.347 -54.262  1.00  0.00    -0.270 OA
HETATM   22  C   UNL     1     -40.583  54.775 -51.409  1.00  0.00     0.032 A 
HETATM   23  H   UNL     1     -40.526  51.496 -54.873  1.00  0.00     0.169 HD
ENDBRANCH   6  11
BRANCH   8  24
HETATM   24  C   UNL     1     -44.688  59.156 -52.497  1.00  0.00     0.003 A 
HETATM   25  C   UNL     1     -45.245  58.929 -51.233  1.00  0.00     0.124 A 
HETATM   26  F   UNL     1     -45.817  57.751 -50.941  1.00  0.00    -0.205 F 
HETATM   27  C   UNL     1     -45.243  59.911 -50.244  1.00  0.00     0.043 A 
HETATM   28  C   UNL     1     -44.697  61.163 -50.512  1.00  0.00     0.003 A 
HETATM   29  C   UNL     1     -44.165  61.426 -51.772  1.00  0.00     0.001 A 
HETATM   30  C   UNL     1     -44.162  60.433 -52.756  1.00  0.00     0.012 A 
ENDBRANCH   8  24
TORSDOF 2
ENDMDL
MODEL 9
REMARK VINA RESULT:      -8.1      3.123      8.850
REMARK  2 active torsions:
REMARK  status: ('A' for Active; 'I' for Inactive)
REMARK       I    between atoms: N_4  and  C_5 
REMARK       I    between atoms: C_5  and  N_6 
REMARK    1  A    between atoms: N_6  and  C_7 
REMARK    2  A    between atoms: C_20  and  C_21 
ROOT
HETATM    1  C   UNL     1     -40.561  50.008 -54.189  1.00  0.00     0.011 C 
HETATM    2  C   UNL     1     -40.289  51.489 -54.396  1.00  0.00     0.002 C 
HETATM    3  C   UNL     1     -41.551  52.293 -54.686  1.00  0.00     0.132 C 
HETATM    4  N   UNL     1     -41.209  53.634 -54.248  1.00  0.00    -0.325 N 
HETATM    5  C   UNL     1     -41.428  54.810 -54.942  1.00  0.00     0.323 C 
HETATM    6  N   UNL     1     -42.427  54.717 -55.886  1.00  0.00    -0.309 N 
HETATM    7  O   UNL     1     -40.780  55.826 -54.713  1.00  0.00    -0.247 OA
HETATM    8  C   UNL     1     -40.260  53.590 -53.141  1.00  0.00     0.125 C 
HETATM    9  C   UNL     1     -39.672  52.165 -53.164  1.00  0.00     0.036 C 
HETATM   10  H   UNL     1     -43.149  54.047 -55.667  1.00  0.00     0.170 HD
ENDROOT
BRANCH   6  11
HETATM   11  C   UNL     1     -42.696  55.641 -56.915  1.00  0.00     0.038 A 
HETATM   12  C   UNL     1     -42.504  57.018 -56.769  1.00  0.00     0.062 A 
HETATM   13  C   UNL     1     -42.748  57.877 -57.844  1.00  0.00     0.070 A 
HETATM   14  C   UNL     1     -43.188  57.373 -59.067  1.00  0.00     0.096 A 
HETATM   15  N   UNL     1     -42.501  59.241 -57.697  1.00  0.00    -0.323 N 
HETATM   16  O   UNL     1     -43.419  58.145 -60.170  1.00  0.00    -0.335 OA
HETATM   17  C   UNL     1     -43.366  56.000 -59.222  1.00  0.00     0.041 A 
HETATM   18  C   UNL     1     -43.471  59.550 -59.930  1.00  0.00     0.217 C 
HETATM   19  C   UNL     1     -42.740  60.127 -58.709  1.00  0.00     0.251 C 
HETATM   20  C   UNL     1     -44.937  59.969 -59.869  1.00  0.00     0.050 C 
HETATM   21  O   UNL     1     -42.451  61.317 -58.598  1.00  0.00    -0.270 OA
HETATM   22  C   UNL     1     -43.115  55.136 -58.151  1.00  0.00     0.032 A 
HETATM   23  H   UNL     1     -42.092  59.608 -56.847  1.00  0.00     0.169 HD
ENDBRANCH   6  11
BRANCH   8  24
HETATM   24  C   UNL     1     -40.938  53.985 -51.841  1.00  0.00     0.003 A 
HETATM   25  C   UNL     1     -40.252  54.088 -50.624  1.00  0.00     0.124 A 
HETATM   26  F   UNL     1     -38.936  53.833 -50.559  1.00  0.00    -0.205 F 
HETATM   27  C   UNL     1     -40.903  54.440 -49.444  1.00  0.00     0.043 A 
HETATM   28  C   UNL     1     -42.275  54.676 -49.452  1.00  0.00     0.003 A 
HETATM   29  C   UNL     1     -42.987  54.549 -50.643  1.00  0.00     0.001 A 
HETATM   30  C   UNL     1     -42.326  54.205 -51.826  1.00  0.00     0.012 A 
ENDBRANCH   8  24
TORSDOF 2
ENDMDL
MODEL 10
REMARK VINA RESULT:      -8.0      1.827      2.396
REMARK  2 active torsions:
REMARK  status: ('A' for Active; 'I' for Inactive)
REMARK       I    between atoms: N_4  and  C_5 
REMARK       I    between atoms: C_5  and  N_6 
REMARK    1  A    between atoms: N_6  and  C_7 
REMARK    2  A    between atoms: C_20  and  C_21 
ROOT
HETATM    1  C   UNL     1     -45.061  60.335 -52.281  1.00  0.00     0.011 C 
HETATM    2  C   UNL     1     -43.860  59.635 -52.894  1.00  0.00     0.002 C 
HETATM    3  C   UNL     1     -44.066  58.135 -53.065  1.00  0.00     0.132 C 
HETATM    4  N   UNL     1     -43.168  57.789 -54.151  1.00  0.00    -0.325 N 
HETATM    5  C   UNL     1     -42.287  56.723 -54.185  1.00  0.00     0.323 C 
HETATM    6  N   UNL     1     -42.624  55.699 -53.328  1.00  0.00    -0.309 N 
HETATM    7  O   UNL     1     -41.307  56.717 -54.925  1.00  0.00    -0.247 OA
HETATM    8  C   UNL     1     -43.016  58.909 -55.073  1.00  0.00     0.125 C 
HETATM    9  C   UNL     1     -43.521  60.144 -54.302  1.00  0.00     0.036 C 
HETATM   10  H   UNL     1     -43.613  55.609 -53.152  1.00  0.00     0.170 HD
ENDROOT
BRANCH   6  11
HETATM   11  C   UNL     1     -41.801  54.622 -52.945  1.00  0.00     0.038 A 
HETATM   12  C   UNL     1     -41.619  53.485 -53.738  1.00  0.00     0.062 A 
HETATM   13  C   UNL     1     -40.753  52.470 -53.321  1.00  0.00     0.070 A 
HETATM   14  C   UNL     1     -40.068  52.578 -52.111  1.00  0.00     0.096 A 
HETATM   15  N   UNL     1     -40.543  51.369 -54.148  1.00  0.00    -0.323 N 
HETATM   16  O   UNL     1     -39.185  51.644 -51.650  1.00  0.00    -0.335 OA
HETATM   17  C   UNL     1     -40.234  53.717 -51.324  1.00  0.00     0.041 A 
HETATM   18  C   UNL     1     -39.211  50.392 -52.333  1.00  0.00     0.217 C 
HETATM   19  C   UNL     1     -39.723  50.340 -53.780  1.00  0.00     0.251 C 
HETATM   20  C   UNL     1     -40.019  49.407 -51.491  1.00  0.00     0.050 C 
HETATM   21  O   UNL     1     -39.484  49.408 -54.545  1.00  0.00    -0.270 OA
HETATM   22  C   UNL     1     -41.093  54.738 -51.742  1.00  0.00     0.032 A 
HETATM   23  H   UNL     1     -40.959  51.323 -55.069  1.00  0.00     0.169 HD
ENDBRANCH   6  11
BRANCH   8  24
HETATM   24  C   UNL     1     -43.737  58.626 -56.380  1.00  0.00     0.003 A 
HETATM   25  C   UNL     1     -45.114  58.384 -56.453  1.00  0.00     0.124 A 
HETATM   26  F   UNL     1     -45.869  58.390 -55.344  1.00  0.00    -0.205 F 
HETATM   27  C   UNL     1     -45.746  58.113 -57.665  1.00  0.00     0.043 A 
HETATM   28  C   UNL     1     -45.000  58.056 -58.839  1.00  0.00     0.003 A 
HETATM   29  C   UNL     1     -43.623  58.261 -58.789  1.00  0.00     0.001 A 
HETATM   30  C   UNL     1     -42.996  58.542 -57.571  1.00  0.00     0.012 A 
ENDBRANCH   8  24
TORSDOF 2
ENDMDL
