MODEL 1
REMARK VINA RESULT:      -8.9      0.000      0.000
REMARK  9 active torsions:
REMARK  status: ('A' for Active; 'I' for Inactive)
REMARK    1  A    between atoms: N_6  and  C_7 
REMARK    2  A    between atoms: C_7  and  C_8 
REMARK    3  A    between atoms: C_8  and  N_9 
REMARK       I    between atoms: N_9  and  C_10 
REMARK    4  A    between atoms: C_10  and  C_12 
REMARK    5  A    between atoms: C_16  and  C_17 
REMARK    6  A    between atoms: C_17  and  N_18 
REMARK    7  A    between atoms: N_18  and  C_19 
REMARK       I    between atoms: N_18  and  C_22 
REMARK    8  A    between atoms: C_22  and  C_24 
REMARK    9  A    between atoms: C_29  and  C_33 
ROOT
HETATM    1  C   UNL     1     -43.187  60.484 -51.432  1.00  0.00     0.165 C 
ENDROOT
BRANCH   1   2
HETATM    2  C   UNL     1     -43.567  61.436 -52.543  1.00  0.00    -0.039 A 
HETATM    3  C   UNL     1     -44.343  62.572 -52.276  1.00  0.00     0.009 A 
HETATM    4  C   UNL     1     -44.675  63.463 -53.297  1.00  0.00     0.002 A 
HETATM    5  C   UNL     1     -44.221  63.241 -54.599  1.00  0.00     0.017 A 
HETATM    6  C   UNL     1     -43.424  62.125 -54.882  1.00  0.00     0.032 A 
HETATM    7  C   UNL     1     -43.116  61.220 -53.855  1.00  0.00     0.026 A 
BRANCH   6   8
HETATM    8  C   UNL     1     -42.887  61.849 -56.246  1.00  0.00     0.251 C 
HETATM    9  N   UNL     1     -42.119  60.707 -56.401  1.00  0.00    -0.355 N 
HETATM   10  H   UNL     1     -42.145  60.004 -55.673  1.00  0.00     0.162 HD
HETATM   11  O   UNL     1     -43.148  62.597 -57.186  1.00  0.00    -0.268 OA
BRANCH   9  12
HETATM   12  C   UNL     1     -41.706  60.273 -57.725  1.00  0.00     0.153 C 
BRANCH  12  13
HETATM   13  C   UNL     1     -42.146  58.823 -58.033  1.00  0.00     0.292 C 
BRANCH  13  14
HETATM   14  N   UNL     1     -43.330  58.331 -57.291  1.00  0.00     0.093 N 
HETATM   15  C   UNL     1     -43.065  56.980 -56.740  1.00  0.00     0.300 C 
HETATM   16  C   UNL     1     -43.036  55.836 -57.782  1.00  0.00     0.264 C 
HETATM   17  N   UNL     1     -44.303  55.847 -58.622  1.00  0.00    -0.072 N 
HETATM   18  C   UNL     1     -44.297  54.775 -59.668  1.00  0.00     0.269 C 
HETATM   19  H   UNL     1     -45.085  55.657 -57.983  1.00  0.00     0.279 HD
HETATM   20  C   UNL     1     -44.558  57.219 -59.230  1.00  0.00     0.264 C 
HETATM   21  C   UNL     1     -44.558  58.287 -58.116  1.00  0.00     0.300 C 
ENDBRANCH  13  14
ENDBRANCH  12  13
ENDBRANCH   9  12
ENDBRANCH   6   8
ENDBRANCH   1   2
BRANCH   1  22
HETATM   22  N   UNL     1     -42.968  59.112 -51.892  1.00  0.00    -0.337 N 
HETATM   23  C   UNL     1     -41.628  58.665 -52.012  1.00  0.00     0.280 C 
HETATM   24  O   UNL     1     -40.708  59.455 -51.768  1.00  0.00    -0.265 OA
BRANCH  22  25
HETATM   25  C   UNL     1     -44.124  58.266 -52.073  1.00  0.00     0.088 A 
HETATM   26  C   UNL     1     -44.695  57.379 -50.990  1.00  0.00     0.027 A 
HETATM   27  C   UNL     1     -45.441  58.602 -51.415  1.00  0.00     0.027 A 
ENDBRANCH  22  25
BRANCH  23  28
HETATM   28  C   UNL     1     -41.354  57.284 -52.438  1.00  0.00     0.166 A 
HETATM   29  N   UNL     1     -41.163  56.872 -53.677  1.00  0.00    -0.235 NA
HETATM   30  C   UNL     1     -40.866  55.519 -53.691  1.00  0.00     0.075 A 
HETATM   31  C   UNL     1     -40.552  54.751 -54.828  1.00  0.00     0.034 A 
HETATM   32  C   UNL     1     -40.876  54.891 -52.446  1.00  0.00     0.036 A 
HETATM   33  C   UNL     1     -40.244  53.390 -54.689  1.00  0.00     0.014 A 
HETATM   34  C   UNL     1     -40.253  52.772 -53.434  1.00  0.00    -0.022 A 
HETATM   35  C   UNL     1     -40.581  53.524 -52.295  1.00  0.00     0.033 A 
HETATM   36  S   UNL     1     -41.278  56.047 -51.241  1.00  0.00    -0.063 SA
BRANCH  34  37
HETATM   37  C   UNL     1     -39.903  51.366 -53.314  1.00  0.00     0.010 A 
HETATM   38  C   UNL     1     -39.765  50.360 -54.299  1.00  0.00     0.152 A 
HETATM   39  N   UNL     1     -39.428  49.175 -53.786  1.00  0.00    -0.187 NA
HETATM   40  N   UNL     1     -39.348  49.413 -52.468  1.00  0.00    -0.289 N 
HETATM   41  H   UNL     1     -39.100  48.645 -51.853  1.00  0.00     0.188 HD
HETATM   42  C   UNL     1     -39.624  50.709 -52.133  1.00  0.00     0.123 A 
ENDBRANCH  34  37
ENDBRANCH  23  28
ENDBRANCH   1  22
TORSDOF 9
ENDMDL
MODEL 2
REMARK VINA RESULT:      -7.8      3.044      8.866
REMARK  9 active torsions:
REMARK  status: ('A' for Active; 'I' for Inactive)
REMARK    1  A    between atoms: N_6  and  C_7 
REMARK    2  A    between atoms: C_7  and  C_8 
REMARK    3  A    between atoms: C_8  and  N_9 
REMARK       I    between atoms: N_9  and  C_10 
REMARK    4  A    between atoms: C_10  and  C_12 
REMARK    5  A    between atoms: C_16  and  C_17 
REMARK    6  A    between atoms: C_17  and  N_18 
REMARK    7  A    between atoms: N_18  and  C_19 
REMARK       I    between atoms: N_18  and  C_22 
REMARK    8  A    between atoms: C_22  and  C_24 
REMARK    9  A    between atoms: C_29  and  C_33 
ROOT
HETATM    1  C   UNL     1     -43.201  54.245 -53.204  1.00  0.00     0.165 C 
ENDROOT
BRANCH   1   2
HETATM    2  C   UNL     1     -42.473  54.770 -51.987  1.00  0.00    -0.039 A 
HETATM    3  C   UNL     1     -42.074  53.901 -50.964  1.00  0.00     0.009 A 
HETATM    4  C   UNL     1     -41.381  54.383 -49.852  1.00  0.00     0.002 A 
HETATM    5  C   UNL     1     -41.064  55.738 -49.754  1.00  0.00     0.017 A 
HETATM    6  C   UNL     1     -41.433  56.619 -50.778  1.00  0.00     0.032 A 
HETATM    7  C   UNL     1     -42.151  56.133 -51.881  1.00  0.00     0.026 A 
BRANCH   6   8
HETATM    8  C   UNL     1     -41.098  58.073 -50.744  1.00  0.00     0.251 C 
HETATM    9  N   UNL     1     -42.158  58.961 -50.667  1.00  0.00    -0.355 N 
HETATM   10  H   UNL     1     -43.069  58.606 -50.407  1.00  0.00     0.162 HD
HETATM   11  O   UNL     1     -39.928  58.447 -50.756  1.00  0.00    -0.268 OA
BRANCH   9  12
HETATM   12  C   UNL     1     -41.915  60.379 -50.454  1.00  0.00     0.153 C 
BRANCH  12  13
HETATM   13  C   UNL     1     -43.192  61.136 -50.023  1.00  0.00     0.292 C 
BRANCH  13  14
HETATM   14  N   UNL     1     -44.477  60.561 -50.485  1.00  0.00     0.093 N 
HETATM   15  C   UNL     1     -45.037  61.381 -51.588  1.00  0.00     0.300 C 
HETATM   16  C   UNL     1     -45.613  62.753 -51.163  1.00  0.00     0.264 C 
HETATM   17  N   UNL     1     -46.622  62.583 -50.038  1.00  0.00    -0.072 N 
HETATM   18  C   UNL     1     -47.176  63.895 -49.575  1.00  0.00     0.269 C 
HETATM   19  H   UNL     1     -47.400  62.030 -50.418  1.00  0.00     0.279 HD
HETATM   20  C   UNL     1     -46.039  61.783 -48.882  1.00  0.00     0.264 C 
HETATM   21  C   UNL     1     -45.485  60.443 -49.408  1.00  0.00     0.300 C 
ENDBRANCH  13  14
ENDBRANCH  12  13
ENDBRANCH   9  12
ENDBRANCH   6   8
ENDBRANCH   1   2
BRANCH   1  22
HETATM   22  N   UNL     1     -42.805  54.905 -54.449  1.00  0.00    -0.337 N 
HETATM   23  C   UNL     1     -43.563  56.026 -54.868  1.00  0.00     0.280 C 
HETATM   24  O   UNL     1     -44.544  56.372 -54.199  1.00  0.00    -0.265 OA
BRANCH  22  25
HETATM   25  C   UNL     1     -41.597  54.453 -55.100  1.00  0.00     0.088 A 
HETATM   26  C   UNL     1     -40.211  54.911 -54.713  1.00  0.00     0.027 A 
HETATM   27  C   UNL     1     -40.644  53.515 -54.399  1.00  0.00     0.027 A 
ENDBRANCH  22  25
BRANCH  23  28
HETATM   28  C   UNL     1     -43.185  56.746 -56.096  1.00  0.00     0.166 A 
HETATM   29  N   UNL     1     -43.240  56.274 -57.327  1.00  0.00    -0.235 NA
HETATM   30  C   UNL     1     -42.870  57.255 -58.232  1.00  0.00     0.075 A 
HETATM   31  C   UNL     1     -42.859  57.127 -59.634  1.00  0.00     0.034 A 
HETATM   32  C   UNL     1     -42.488  58.473 -57.672  1.00  0.00     0.036 A 
HETATM   33  C   UNL     1     -42.485  58.218 -60.431  1.00  0.00     0.014 A 
HETATM   34  C   UNL     1     -42.108  59.437 -59.858  1.00  0.00    -0.022 A 
HETATM   35  C   UNL     1     -42.099  59.570 -58.461  1.00  0.00     0.033 A 
HETATM   36  S   UNL     1     -42.597  58.360 -55.961  1.00  0.00    -0.063 SA
BRANCH  34  37
HETATM   37  C   UNL     1     -41.752  60.560 -60.709  1.00  0.00     0.010 A 
HETATM   38  C   UNL     1     -41.100  61.780 -60.407  1.00  0.00     0.152 A 
HETATM   39  N   UNL     1     -40.954  62.567 -61.474  1.00  0.00    -0.187 NA
HETATM   40  N   UNL     1     -41.512  61.859 -62.468  1.00  0.00    -0.289 N 
HETATM   41  H   UNL     1     -41.523  62.261 -63.399  1.00  0.00     0.188 HD
HETATM   42  C   UNL     1     -42.005  60.652 -62.062  1.00  0.00     0.123 A 
ENDBRANCH  34  37
ENDBRANCH  23  28
ENDBRANCH   1  22
TORSDOF 9
ENDMDL
MODEL 3
REMARK VINA RESULT:      -7.7      1.668      2.299
REMARK  9 active torsions:
REMARK  status: ('A' for Active; 'I' for Inactive)
REMARK    1  A    between atoms: N_6  and  C_7 
REMARK    2  A    between atoms: C_7  and  C_8 
REMARK    3  A    between atoms: C_8  and  N_9 
REMARK       I    between atoms: N_9  and  C_10 
REMARK    4  A    between atoms: C_10  and  C_12 
REMARK    5  A    between atoms: C_16  and  C_17 
REMARK    6  A    between atoms: C_17  and  N_18 
REMARK    7  A    between atoms: N_18  and  C_19 
REMARK       I    between atoms: N_18  and  C_22 
REMARK    8  A    between atoms: C_22  and  C_24 
REMARK    9  A    between atoms: C_29  and  C_33 
ROOT
HETATM    1  C   UNL     1     -44.068  60.119 -50.875  1.00  0.00     0.165 C 
ENDROOT
BRANCH   1   2
HETATM    2  C   UNL     1     -44.724  60.592 -52.152  1.00  0.00    -0.039 A 
HETATM    3  C   UNL     1     -46.027  61.107 -52.138  1.00  0.00     0.009 A 
HETATM    4  C   UNL     1     -46.625  61.565 -53.313  1.00  0.00     0.002 A 
HETATM    5  C   UNL     1     -45.922  61.531 -54.518  1.00  0.00     0.017 A 
HETATM    6  C   UNL     1     -44.610  61.043 -54.550  1.00  0.00     0.032 A 
HETATM    7  C   UNL     1     -44.024  60.561 -53.369  1.00  0.00     0.026 A 
BRANCH   6   8
HETATM    8  C   UNL     1     -43.798  61.007 -55.801  1.00  0.00     0.251 C 
HETATM    9  N   UNL     1     -42.832  60.019 -55.897  1.00  0.00    -0.355 N 
HETATM   10  H   UNL     1     -42.868  59.243 -55.248  1.00  0.00     0.162 HD
HETATM   11  O   UNL     1     -44.010  61.807 -56.710  1.00  0.00    -0.268 OA
BRANCH   9  12
HETATM   12  C   UNL     1     -42.120  59.805 -57.146  1.00  0.00     0.153 C 
BRANCH  12  13
HETATM   13  C   UNL     1     -42.381  58.400 -57.737  1.00  0.00     0.292 C 
BRANCH  13  14
HETATM   14  N   UNL     1     -43.454  57.610 -57.089  1.00  0.00     0.093 N 
HETATM   15  C   UNL     1     -43.168  56.160 -57.215  1.00  0.00     0.300 C 
HETATM   16  C   UNL     1     -43.361  55.568 -58.632  1.00  0.00     0.264 C 
HETATM   17  N   UNL     1     -44.745  55.905 -59.166  1.00  0.00    -0.072 N 
HETATM   18  C   UNL     1     -44.958  55.379 -60.553  1.00  0.00     0.269 C 
HETATM   19  H   UNL     1     -45.423  55.441 -58.548  1.00  0.00     0.279 HD
HETATM   20  C   UNL     1     -45.028  57.398 -59.084  1.00  0.00     0.264 C 
HETATM   21  C   UNL     1     -44.798  57.889 -57.640  1.00  0.00     0.300 C 
ENDBRANCH  13  14
ENDBRANCH  12  13
ENDBRANCH   9  12
ENDBRANCH   6   8
ENDBRANCH   1   2
BRANCH   1  22
HETATM   22  N   UNL     1     -43.206  58.951 -51.062  1.00  0.00    -0.337 N 
HETATM   23  C   UNL     1     -43.822  57.675 -51.073  1.00  0.00     0.280 C 
HETATM   24  O   UNL     1     -45.042  57.596 -50.884  1.00  0.00    -0.265 OA
BRANCH  22  25
HETATM   25  C   UNL     1     -41.808  59.179 -51.348  1.00  0.00     0.088 A 
HETATM   26  C   UNL     1     -40.947  60.168 -50.596  1.00  0.00     0.027 A 
HETATM   27  C   UNL     1     -40.736  58.701 -50.398  1.00  0.00     0.027 A 
ENDBRANCH  22  25
BRANCH  23  28
HETATM   28  C   UNL     1     -43.005  56.471 -51.291  1.00  0.00     0.166 A 
HETATM   29  N   UNL     1     -42.327  55.809 -50.372  1.00  0.00    -0.235 NA
HETATM   30  C   UNL     1     -41.731  54.691 -50.931  1.00  0.00     0.075 A 
HETATM   31  C   UNL     1     -40.974  53.725 -50.241  1.00  0.00     0.034 A 
HETATM   32  C   UNL     1     -41.925  54.530 -52.302  1.00  0.00     0.036 A 
HETATM   33  C   UNL     1     -40.450  52.624 -50.934  1.00  0.00     0.014 A 
HETATM   34  C   UNL     1     -40.656  52.471 -52.310  1.00  0.00    -0.022 A 
HETATM   35  C   UNL     1     -41.395  53.437 -53.010  1.00  0.00     0.033 A 
HETATM   36  S   UNL     1     -42.880  55.832 -52.887  1.00  0.00    -0.063 SA
BRANCH  34  37
HETATM   37  C   UNL     1     -40.125  51.306 -52.998  1.00  0.00     0.010 A 
HETATM   38  C   UNL     1     -39.611  50.087 -52.493  1.00  0.00     0.152 A 
HETATM   39  N   UNL     1     -39.213  49.254 -53.457  1.00  0.00    -0.187 NA
HETATM   40  N   UNL     1     -39.470  49.932 -54.586  1.00  0.00    -0.289 N 
HETATM   41  H   UNL     1     -39.247  49.493 -55.473  1.00  0.00     0.188 HD
HETATM   42  C   UNL     1     -40.014  51.165 -54.366  1.00  0.00     0.123 A 
ENDBRANCH  34  37
ENDBRANCH  23  28
ENDBRANCH   1  22
TORSDOF 9
ENDMDL
MODEL 4
REMARK VINA RESULT:      -7.4      1.390      2.059
REMARK  9 active torsions:
REMARK  status: ('A' for Active; 'I' for Inactive)
REMARK    1  A    between atoms: N_6  and  C_7 
REMARK    2  A    between atoms: C_7  and  C_8 
REMARK    3  A    between atoms: C_8  and  N_9 
REMARK       I    between atoms: N_9  and  C_10 
REMARK    4  A    between atoms: C_10  and  C_12 
REMARK    5  A    between atoms: C_16  and  C_17 
REMARK    6  A    between atoms: C_17  and  N_18 
REMARK    7  A    between atoms: N_18  and  C_19 
REMARK       I    between atoms: N_18  and  C_22 
REMARK    8  A    between atoms: C_22  and  C_24 
REMARK    9  A    between atoms: C_29  and  C_33 
ROOT
HETATM    1  C   UNL     1     -42.972  60.530 -51.302  1.00  0.00     0.165 C 
ENDROOT
BRANCH   1   2
HETATM    2  C   UNL     1     -43.150  61.494 -52.453  1.00  0.00    -0.039 A 
HETATM    3  C   UNL     1     -43.087  62.878 -52.242  1.00  0.00     0.009 A 
HETATM    4  C   UNL     1     -43.228  63.767 -53.309  1.00  0.00     0.002 A 
HETATM    5  C   UNL     1     -43.418  63.286 -54.605  1.00  0.00     0.017 A 
HETATM    6  C   UNL     1     -43.460  61.907 -54.841  1.00  0.00     0.032 A 
HETATM    7  C   UNL     1     -43.343  61.018 -53.760  1.00  0.00     0.026 A 
BRANCH   6   8
HETATM    8  C   UNL     1     -43.633  61.331 -56.206  1.00  0.00     0.251 C 
HETATM    9  N   UNL     1     -43.286  60.001 -56.378  1.00  0.00    -0.355 N 
HETATM   10  H   UNL     1     -43.159  59.425 -55.556  1.00  0.00     0.162 HD
HETATM   11  O   UNL     1     -44.091  62.013 -57.120  1.00  0.00    -0.268 OA
BRANCH   9  12
HETATM   12  C   UNL     1     -43.586  59.319 -57.626  1.00  0.00     0.153 C 
BRANCH  12  13
HETATM   13  C   UNL     1     -42.473  58.329 -58.037  1.00  0.00     0.292 C 
BRANCH  13  14
HETATM   14  N   UNL     1     -42.207  58.215 -59.490  1.00  0.00     0.093 N 
HETATM   15  C   UNL     1     -43.339  58.780 -60.264  1.00  0.00     0.300 C 
HETATM   16  C   UNL     1     -44.629  57.926 -60.266  1.00  0.00     0.264 C 
HETATM   17  N   UNL     1     -44.325  56.501 -60.699  1.00  0.00    -0.072 N 
HETATM   18  C   UNL     1     -45.545  55.632 -60.679  1.00  0.00     0.269 C 
HETATM   19  H   UNL     1     -43.991  56.550 -61.670  1.00  0.00     0.279 HD
HETATM   20  C   UNL     1     -43.195  55.897 -59.878  1.00  0.00     0.264 C 
HETATM   21  C   UNL     1     -41.963  56.824 -59.931  1.00  0.00     0.300 C 
ENDBRANCH  13  14
ENDBRANCH  12  13
ENDBRANCH   9  12
ENDBRANCH   6   8
ENDBRANCH   1   2
BRANCH   1  22
HETATM   22  N   UNL     1     -42.345  59.267 -51.693  1.00  0.00    -0.337 N 
HETATM   23  C   UNL     1     -43.192  58.224 -52.143  1.00  0.00     0.280 C 
HETATM   24  O   UNL     1     -44.416  58.404 -52.147  1.00  0.00    -0.265 OA
BRANCH  22  25
HETATM   25  C   UNL     1     -40.902  59.207 -51.715  1.00  0.00     0.088 A 
HETATM   26  C   UNL     1     -40.024  59.671 -50.577  1.00  0.00     0.027 A 
HETATM   27  C   UNL     1     -40.155  58.210 -50.861  1.00  0.00     0.027 A 
ENDBRANCH  22  25
BRANCH  23  28
HETATM   28  C   UNL     1     -42.608  56.946 -52.580  1.00  0.00     0.166 A 
HETATM   29  N   UNL     1     -42.015  56.711 -53.735  1.00  0.00    -0.235 NA
HETATM   30  C   UNL     1     -41.531  55.414 -53.770  1.00  0.00     0.075 A 
HETATM   31  C   UNL     1     -40.799  54.830 -54.821  1.00  0.00     0.034 A 
HETATM   32  C   UNL     1     -41.801  54.643 -52.639  1.00  0.00     0.036 A 
HETATM   33  C   UNL     1     -40.347  53.508 -54.707  1.00  0.00     0.014 A 
HETATM   34  C   UNL     1     -40.620  52.746 -53.565  1.00  0.00    -0.022 A 
HETATM   35  C   UNL     1     -41.363  53.313 -52.518  1.00  0.00     0.033 A 
HETATM   36  S   UNL     1     -42.693  55.591 -51.518  1.00  0.00    -0.063 SA
BRANCH  34  37
HETATM   37  C   UNL     1     -40.115  51.387 -53.461  1.00  0.00     0.010 A 
HETATM   38  C   UNL     1     -39.944  50.385 -54.446  1.00  0.00     0.152 A 
HETATM   39  N   UNL     1     -39.447  49.250 -53.950  1.00  0.00    -0.187 NA
HETATM   40  N   UNL     1     -39.296  49.517 -52.644  1.00  0.00    -0.289 N 
HETATM   41  H   UNL     1     -38.924  48.788 -52.043  1.00  0.00     0.188 HD
HETATM   42  C   UNL     1     -39.682  50.781 -52.300  1.00  0.00     0.123 A 
ENDBRANCH  34  37
ENDBRANCH  23  28
ENDBRANCH   1  22
TORSDOF 9
ENDMDL
MODEL 5
REMARK VINA RESULT:      -7.3      2.179      5.612
REMARK  9 active torsions:
REMARK  status: ('A' for Active; 'I' for Inactive)
REMARK    1  A    between atoms: N_6  and  C_7 
REMARK    2  A    between atoms: C_7  and  C_8 
REMARK    3  A    between atoms: C_8  and  N_9 
REMARK       I    between atoms: N_9  and  C_10 
REMARK    4  A    between atoms: C_10  and  C_12 
REMARK    5  A    between atoms: C_16  and  C_17 
REMARK    6  A    between atoms: C_17  and  N_18 
REMARK    7  A    between atoms: N_18  and  C_19 
REMARK       I    between atoms: N_18  and  C_22 
REMARK    8  A    between atoms: C_22  and  C_24 
REMARK    9  A    between atoms: C_29  and  C_33 
ROOT
HETATM    1  C   UNL     1     -44.451  59.233 -59.143  1.00  0.00     0.165 C 
ENDROOT
BRANCH   1   2
HETATM    2  C   UNL     1     -44.135  60.701 -58.961  1.00  0.00    -0.039 A 
HETATM    3  C   UNL     1     -44.113  61.569 -60.060  1.00  0.00     0.009 A 
HETATM    4  C   UNL     1     -43.844  62.928 -59.888  1.00  0.00     0.002 A 
HETATM    5  C   UNL     1     -43.608  63.442 -58.612  1.00  0.00     0.017 A 
HETATM    6  C   UNL     1     -43.650  62.595 -57.497  1.00  0.00     0.032 A 
HETATM    7  C   UNL     1     -43.896  61.225 -57.680  1.00  0.00     0.026 A 
BRANCH   6   8
HETATM    8  C   UNL     1     -43.433  63.089 -56.107  1.00  0.00     0.251 C 
HETATM    9  N   UNL     1     -43.828  62.256 -55.073  1.00  0.00    -0.355 N 
HETATM   10  H   UNL     1     -44.020  61.284 -55.282  1.00  0.00     0.162 HD
HETATM   11  O   UNL     1     -42.902  64.179 -55.904  1.00  0.00    -0.268 OA
BRANCH   9  12
HETATM   12  C   UNL     1     -43.495  62.583 -53.697  1.00  0.00     0.153 C 
BRANCH  12  13
HETATM   13  C   UNL     1     -42.875  61.386 -52.941  1.00  0.00     0.292 C 
BRANCH  13  14
HETATM   14  N   UNL     1     -43.544  60.996 -51.678  1.00  0.00     0.093 N 
HETATM   15  C   UNL     1     -42.604  61.129 -50.538  1.00  0.00     0.300 C 
HETATM   16  C   UNL     1     -41.489  60.057 -50.472  1.00  0.00     0.264 C 
HETATM   17  N   UNL     1     -42.089  58.661 -50.530  1.00  0.00    -0.072 N 
HETATM   18  C   UNL     1     -41.037  57.594 -50.504  1.00  0.00     0.269 C 
HETATM   19  H   UNL     1     -42.667  58.550 -49.688  1.00  0.00     0.279 HD
HETATM   20  C   UNL     1     -43.019  58.501 -51.724  1.00  0.00     0.264 C 
HETATM   21  C   UNL     1     -44.082  59.617 -51.705  1.00  0.00     0.300 C 
ENDBRANCH  13  14
ENDBRANCH  12  13
ENDBRANCH   9  12
ENDBRANCH   6   8
ENDBRANCH   1   2
BRANCH   1  22
HETATM   22  N   UNL     1     -43.565  58.349 -58.386  1.00  0.00    -0.337 N 
HETATM   23  C   UNL     1     -44.085  57.744 -57.215  1.00  0.00     0.280 C 
HETATM   24  O   UNL     1     -45.238  58.018 -56.859  1.00  0.00    -0.265 OA
BRANCH  22  25
HETATM   25  C   UNL     1     -42.267  58.051 -58.945  1.00  0.00     0.088 A 
HETATM   26  C   UNL     1     -42.019  56.958 -59.959  1.00  0.00     0.027 A 
HETATM   27  C   UNL     1     -41.945  58.390 -60.381  1.00  0.00     0.027 A 
ENDBRANCH  22  25
BRANCH  23  28
HETATM   28  C   UNL     1     -43.246  56.820 -56.435  1.00  0.00     0.166 A 
HETATM   29  N   UNL     1     -42.487  57.136 -55.403  1.00  0.00    -0.235 NA
HETATM   30  C   UNL     1     -41.893  55.999 -54.880  1.00  0.00     0.075 A 
HETATM   31  C   UNL     1     -41.061  55.945 -53.746  1.00  0.00     0.034 A 
HETATM   32  C   UNL     1     -42.174  54.812 -55.556  1.00  0.00     0.036 A 
HETATM   33  C   UNL     1     -40.549  54.713 -53.314  1.00  0.00     0.014 A 
HETATM   34  C   UNL     1     -40.842  53.528 -53.998  1.00  0.00    -0.022 A 
HETATM   35  C   UNL     1     -41.657  53.573 -55.139  1.00  0.00     0.033 A 
HETATM   36  S   UNL     1     -43.208  55.157 -56.884  1.00  0.00    -0.063 SA
BRANCH  34  37
HETATM   37  C   UNL     1     -40.321  52.261 -53.511  1.00  0.00     0.010 A 
HETATM   38  C   UNL     1     -40.192  51.006 -54.152  1.00  0.00     0.152 A 
HETATM   39  N   UNL     1     -39.661  50.072 -53.361  1.00  0.00    -0.187 NA
HETATM   40  N   UNL     1     -39.447  50.721 -52.207  1.00  0.00    -0.289 N 
HETATM   41  H   UNL     1     -39.039  50.207 -51.432  1.00  0.00     0.188 HD
HETATM   42  C   UNL     1     -39.826  52.033 -52.244  1.00  0.00     0.123 A 
ENDBRANCH  34  37
ENDBRANCH  23  28
ENDBRANCH   1  22
TORSDOF 9
ENDMDL
MODEL 6
REMARK VINA RESULT:      -7.3      3.208      8.530
REMARK  9 active torsions:
REMARK  status: ('A' for Active; 'I' for Inactive)
REMARK    1  A    between atoms: N_6  and  C_7 
REMARK    2  A    between atoms: C_7  and  C_8 
REMARK    3  A    between atoms: C_8  and  N_9 
REMARK       I    between atoms: N_9  and  C_10 
REMARK    4  A    between atoms: C_10  and  C_12 
REMARK    5  A    between atoms: C_16  and  C_17 
REMARK    6  A    between atoms: C_17  and  N_18 
REMARK    7  A    between atoms: N_18  and  C_19 
REMARK       I    between atoms: N_18  and  C_22 
REMARK    8  A    between atoms: C_22  and  C_24 
REMARK    9  A    between atoms: C_29  and  C_33 
ROOT
HETATM    1  C   UNL     1     -42.229  59.930 -56.736  1.00  0.00     0.165 C 
ENDROOT
BRANCH   1   2
HETATM    2  C   UNL     1     -42.661  58.580 -57.263  1.00  0.00    -0.039 A 
HETATM    3  C   UNL     1     -43.288  58.467 -58.511  1.00  0.00     0.009 A 
HETATM    4  C   UNL     1     -43.665  57.219 -59.007  1.00  0.00     0.002 A 
HETATM    5  C   UNL     1     -43.406  56.062 -58.270  1.00  0.00     0.017 A 
HETATM    6  C   UNL     1     -42.759  56.150 -57.032  1.00  0.00     0.032 A 
HETATM    7  C   UNL     1     -42.404  57.411 -56.528  1.00  0.00     0.026 A 
BRANCH   6   8
HETATM    8  C   UNL     1     -42.431  54.949 -56.211  1.00  0.00     0.251 C 
HETATM    9  N   UNL     1     -41.113  54.801 -55.809  1.00  0.00    -0.355 N 
HETATM   10  H   UNL     1     -40.494  55.598 -55.879  1.00  0.00     0.162 HD
HETATM   11  O   UNL     1     -43.308  54.150 -55.891  1.00  0.00    -0.268 OA
BRANCH   9  12
HETATM   12  C   UNL     1     -40.745  53.758 -54.866  1.00  0.00     0.153 C 
BRANCH  12  13
HETATM   13  C   UNL     1     -40.665  54.280 -53.413  1.00  0.00     0.292 C 
BRANCH  13  14
HETATM   14  N   UNL     1     -41.902  54.889 -52.871  1.00  0.00     0.093 N 
HETATM   15  C   UNL     1     -41.582  56.151 -52.161  1.00  0.00     0.300 C 
HETATM   16  C   UNL     1     -40.871  55.980 -50.796  1.00  0.00     0.264 C 
HETATM   17  N   UNL     1     -41.653  55.030 -49.904  1.00  0.00    -0.072 N 
HETATM   18  C   UNL     1     -40.977  54.810 -48.585  1.00  0.00     0.269 C 
HETATM   19  H   UNL     1     -42.561  55.474 -49.719  1.00  0.00     0.279 HD
HETATM   20  C   UNL     1     -41.945  53.713 -50.609  1.00  0.00     0.264 C 
HETATM   21  C   UNL     1     -42.642  53.991 -51.957  1.00  0.00     0.300 C 
ENDBRANCH  13  14
ENDBRANCH  12  13
ENDBRANCH   9  12
ENDBRANCH   6   8
ENDBRANCH   1   2
BRANCH   1  22
HETATM   22  N   UNL     1     -42.891  60.305 -55.486  1.00  0.00    -0.337 N 
HETATM   23  C   UNL     1     -42.200  60.054 -54.275  1.00  0.00     0.280 C 
HETATM   24  O   UNL     1     -41.097  59.494 -54.318  1.00  0.00    -0.265 OA
BRANCH  22  25
HETATM   25  C   UNL     1     -44.144  61.018 -55.572  1.00  0.00     0.088 A 
HETATM   26  C   UNL     1     -44.944  61.162 -56.845  1.00  0.00     0.027 A 
HETATM   27  C   UNL     1     -45.447  60.276 -55.753  1.00  0.00     0.027 A 
ENDBRANCH  22  25
BRANCH  23  28
HETATM   28  C   UNL     1     -42.807  60.442 -52.993  1.00  0.00     0.166 A 
HETATM   29  N   UNL     1     -42.596  61.568 -52.337  1.00  0.00    -0.235 NA
HETATM   30  C   UNL     1     -43.388  61.616 -51.202  1.00  0.00     0.075 A 
HETATM   31  C   UNL     1     -43.466  62.687 -50.291  1.00  0.00     0.034 A 
HETATM   32  C   UNL     1     -44.179  60.490 -50.974  1.00  0.00     0.036 A 
HETATM   33  C   UNL     1     -44.337  62.608 -49.195  1.00  0.00     0.014 A 
HETATM   34  C   UNL     1     -45.128  61.475 -48.979  1.00  0.00    -0.022 A 
HETATM   35  C   UNL     1     -45.047  60.395 -49.872  1.00  0.00     0.033 A 
HETATM   36  S   UNL     1     -43.898  59.350 -52.228  1.00  0.00    -0.063 SA
BRANCH  34  37
HETATM   37  C   UNL     1     -46.043  61.431 -47.851  1.00  0.00     0.010 A 
HETATM   38  C   UNL     1     -46.293  60.413 -46.900  1.00  0.00     0.152 A 
HETATM   39  N   UNL     1     -47.222  60.756 -46.005  1.00  0.00    -0.187 NA
HETATM   40  N   UNL     1     -47.574  61.996 -46.375  1.00  0.00    -0.289 N 
HETATM   41  H   UNL     1     -48.283  62.478 -45.833  1.00  0.00     0.188 HD
HETATM   42  C   UNL     1     -46.899  62.446 -47.475  1.00  0.00     0.123 A 
ENDBRANCH  34  37
ENDBRANCH  23  28
ENDBRANCH   1  22
TORSDOF 9
ENDMDL
MODEL 7
REMARK VINA RESULT:      -7.3      3.014      8.240
REMARK  9 active torsions:
REMARK  status: ('A' for Active; 'I' for Inactive)
REMARK    1  A    between atoms: N_6  and  C_7 
REMARK    2  A    between atoms: C_7  and  C_8 
REMARK    3  A    between atoms: C_8  and  N_9 
REMARK       I    between atoms: N_9  and  C_10 
REMARK    4  A    between atoms: C_10  and  C_12 
REMARK    5  A    between atoms: C_16  and  C_17 
REMARK    6  A    between atoms: C_17  and  N_18 
REMARK    7  A    between atoms: N_18  and  C_19 
REMARK       I    between atoms: N_18  and  C_22 
REMARK    8  A    between atoms: C_22  and  C_24 
REMARK    9  A    between atoms: C_29  and  C_33 
ROOT
HETATM    1  C   UNL     1     -41.597  56.139 -50.179  1.00  0.00     0.165 C 
ENDROOT
BRANCH   1   2
HETATM    2  C   UNL     1     -41.091  55.023 -51.065  1.00  0.00    -0.039 A 
HETATM    3  C   UNL     1     -40.491  53.885 -50.509  1.00  0.00     0.009 A 
HETATM    4  C   UNL     1     -40.045  52.845 -51.325  1.00  0.00     0.002 A 
HETATM    5  C   UNL     1     -40.207  52.919 -52.710  1.00  0.00     0.017 A 
HETATM    6  C   UNL     1     -40.825  54.037 -53.283  1.00  0.00     0.032 A 
HETATM    7  C   UNL     1     -41.249  55.090 -52.459  1.00  0.00     0.026 A 
BRANCH   6   8
HETATM    8  C   UNL     1     -41.051  54.162 -54.753  1.00  0.00     0.251 C 
HETATM    9  N   UNL     1     -42.225  54.772 -55.160  1.00  0.00    -0.355 N 
HETATM   10  H   UNL     1     -42.755  55.303 -54.481  1.00  0.00     0.162 HD
HETATM   11  O   UNL     1     -40.208  53.760 -55.553  1.00  0.00    -0.268 OA
BRANCH   9  12
HETATM   12  C   UNL     1     -42.441  55.090 -56.562  1.00  0.00     0.153 C 
BRANCH  12  13
HETATM   13  C   UNL     1     -43.223  56.409 -56.753  1.00  0.00     0.292 C 
BRANCH  13  14
HETATM   14  N   UNL     1     -42.976  57.136 -58.020  1.00  0.00     0.093 N 
HETATM   15  C   UNL     1     -43.963  58.230 -58.184  1.00  0.00     0.300 C 
HETATM   16  C   UNL     1     -45.401  57.776 -58.533  1.00  0.00     0.264 C 
HETATM   17  N   UNL     1     -45.390  56.859 -59.746  1.00  0.00    -0.072 N 
HETATM   18  C   UNL     1     -46.762  56.368 -60.094  1.00  0.00     0.269 C 
HETATM   19  H   UNL     1     -45.047  57.416 -60.538  1.00  0.00     0.279 HD
HETATM   20  C   UNL     1     -44.413  55.706 -59.566  1.00  0.00     0.264 C 
HETATM   21  C   UNL     1     -43.018  56.261 -59.212  1.00  0.00     0.300 C 
ENDBRANCH  13  14
ENDBRANCH  12  13
ENDBRANCH   9  12
ENDBRANCH   6   8
ENDBRANCH   1   2
BRANCH   1  22
HETATM   22  N   UNL     1     -42.268  57.209 -50.918  1.00  0.00    -0.337 N 
HETATM   23  C   UNL     1     -43.668  57.098 -51.109  1.00  0.00     0.280 C 
HETATM   24  O   UNL     1     -44.253  56.093 -50.687  1.00  0.00    -0.265 OA
BRANCH  22  25
HETATM   25  C   UNL     1     -41.488  58.365 -51.295  1.00  0.00     0.088 A 
HETATM   26  C   UNL     1     -41.214  59.531 -50.374  1.00  0.00     0.027 A 
HETATM   27  C   UNL     1     -40.108  58.587 -50.723  1.00  0.00     0.027 A 
ENDBRANCH  22  25
BRANCH  23  28
HETATM   28  C   UNL     1     -44.396  58.163 -51.817  1.00  0.00     0.166 A 
HETATM   29  N   UNL     1     -45.209  59.049 -51.273  1.00  0.00    -0.235 NA
HETATM   30  C   UNL     1     -45.661  59.937 -52.235  1.00  0.00     0.075 A 
HETATM   31  C   UNL     1     -46.501  61.044 -52.011  1.00  0.00     0.034 A 
HETATM   32  C   UNL     1     -45.216  59.691 -53.534  1.00  0.00     0.036 A 
HETATM   33  C   UNL     1     -46.858  61.878 -53.080  1.00  0.00     0.014 A 
HETATM   34  C   UNL     1     -46.402  61.623 -54.378  1.00  0.00    -0.022 A 
HETATM   35  C   UNL     1     -45.577  60.513 -54.616  1.00  0.00     0.033 A 
HETATM   36  S   UNL     1     -44.211  58.299 -53.525  1.00  0.00    -0.063 SA
BRANCH  34  37
HETATM   37  C   UNL     1     -46.764  62.520 -55.464  1.00  0.00     0.010 A 
HETATM   38  C   UNL     1     -46.153  63.711 -55.924  1.00  0.00     0.152 A 
HETATM   39  N   UNL     1     -46.795  64.256 -56.959  1.00  0.00    -0.187 NA
HETATM   40  N   UNL     1     -47.821  63.418 -57.171  1.00  0.00    -0.289 N 
HETATM   41  H   UNL     1     -48.466  63.627 -57.926  1.00  0.00     0.188 HD
HETATM   42  C   UNL     1     -47.849  62.364 -56.303  1.00  0.00     0.123 A 
ENDBRANCH  34  37
ENDBRANCH  23  28
ENDBRANCH   1  22
TORSDOF 9
ENDMDL
MODEL 8
REMARK VINA RESULT:      -7.3      3.193      9.309
REMARK  9 active torsions:
REMARK  status: ('A' for Active; 'I' for Inactive)
REMARK    1  A    between atoms: N_6  and  C_7 
REMARK    2  A    between atoms: C_7  and  C_8 
REMARK    3  A    between atoms: C_8  and  N_9 
REMARK       I    between atoms: N_9  and  C_10 
REMARK    4  A    between atoms: C_10  and  C_12 
REMARK    5  A    between atoms: C_16  and  C_17 
REMARK    6  A    between atoms: C_17  and  N_18 
REMARK    7  A    between atoms: N_18  and  C_19 
REMARK       I    between atoms: N_18  and  C_22 
REMARK    8  A    between atoms: C_22  and  C_24 
REMARK    9  A    between atoms: C_29  and  C_33 
ROOT
HETATM    1  C   UNL     1     -41.981  59.464 -57.068  1.00  0.00     0.165 C 
ENDROOT
BRANCH   1   2
HETATM    2  C   UNL     1     -42.408  58.041 -57.350  1.00  0.00    -0.039 A 
HETATM    3  C   UNL     1     -42.726  57.635 -58.652  1.00  0.00     0.009 A 
HETATM    4  C   UNL     1     -43.097  56.316 -58.916  1.00  0.00     0.002 A 
HETATM    5  C   UNL     1     -43.140  55.378 -57.883  1.00  0.00     0.017 A 
HETATM    6  C   UNL     1     -42.802  55.757 -56.578  1.00  0.00     0.032 A 
HETATM    7  C   UNL     1     -42.454  57.091 -56.316  1.00  0.00     0.026 A 
BRANCH   6   8
HETATM    8  C   UNL     1     -42.803  54.795 -55.438  1.00  0.00     0.251 C 
HETATM    9  N   UNL     1     -41.574  54.472 -54.886  1.00  0.00    -0.355 N 
HETATM   10  H   UNL     1     -40.777  55.055 -55.106  1.00  0.00     0.162 HD
HETATM   11  O   UNL     1     -43.858  54.340 -55.002  1.00  0.00    -0.268 OA
BRANCH   9  12
HETATM   12  C   UNL     1     -41.501  53.683 -53.667  1.00  0.00     0.153 C 
BRANCH  12  13
HETATM   13  C   UNL     1     -41.023  54.516 -52.456  1.00  0.00     0.292 C 
BRANCH  13  14
HETATM   14  N   UNL     1     -42.010  54.708 -51.368  1.00  0.00     0.093 N 
HETATM   15  C   UNL     1     -43.136  55.550 -51.841  1.00  0.00     0.300 C 
HETATM   16  C   UNL     1     -42.805  57.051 -52.030  1.00  0.00     0.264 C 
HETATM   17  N   UNL     1     -42.184  57.623 -50.765  1.00  0.00    -0.072 N 
HETATM   18  C   UNL     1     -41.816  59.067 -50.921  1.00  0.00     0.269 C 
HETATM   19  H   UNL     1     -42.897  57.559 -50.029  1.00  0.00     0.279 HD
HETATM   20  C   UNL     1     -40.998  56.790 -50.299  1.00  0.00     0.264 C 
HETATM   21  C   UNL     1     -41.427  55.316 -50.151  1.00  0.00     0.300 C 
ENDBRANCH  13  14
ENDBRANCH  12  13
ENDBRANCH   9  12
ENDBRANCH   6   8
ENDBRANCH   1   2
BRANCH   1  22
HETATM   22  N   UNL     1     -42.867  60.163 -56.136  1.00  0.00    -0.337 N 
HETATM   23  C   UNL     1     -42.428  60.308 -54.796  1.00  0.00     0.280 C 
HETATM   24  O   UNL     1     -41.347  59.808 -54.461  1.00  0.00    -0.265 OA
BRANCH  22  25
HETATM   25  C   UNL     1     -44.068  60.765 -56.666  1.00  0.00     0.088 A 
HETATM   26  C   UNL     1     -44.133  62.173 -57.210  1.00  0.00     0.027 A 
HETATM   27  C   UNL     1     -44.221  61.013 -58.147  1.00  0.00     0.027 A 
ENDBRANCH  22  25
BRANCH  23  28
HETATM   28  C   UNL     1     -43.267  61.032 -53.827  1.00  0.00     0.166 A 
HETATM   29  N   UNL     1     -43.075  62.264 -53.394  1.00  0.00    -0.235 NA
HETATM   30  C   UNL     1     -44.100  62.635 -52.540  1.00  0.00     0.075 A 
HETATM   31  C   UNL     1     -44.254  63.894 -51.929  1.00  0.00     0.034 A 
HETATM   32  C   UNL     1     -45.057  61.652 -52.289  1.00  0.00     0.036 A 
HETATM   33  C   UNL     1     -45.361  64.139 -51.104  1.00  0.00     0.014 A 
HETATM   34  C   UNL     1     -46.317  63.146 -50.864  1.00  0.00    -0.022 A 
HETATM   35  C   UNL     1     -46.164  61.882 -51.454  1.00  0.00     0.033 A 
HETATM   36  S   UNL     1     -44.635  60.230 -53.155  1.00  0.00    -0.063 SA
BRANCH  34  37
HETATM   37  C   UNL     1     -47.470  63.435 -50.027  1.00  0.00     0.010 A 
HETATM   38  C   UNL     1     -48.733  63.986 -50.350  1.00  0.00     0.152 A 
HETATM   39  N   UNL     1     -49.535  64.099 -49.289  1.00  0.00    -0.187 NA
HETATM   40  N   UNL     1     -48.792  63.622 -48.279  1.00  0.00    -0.289 N 
HETATM   41  H   UNL     1     -49.197  63.606 -47.349  1.00  0.00     0.188 HD
HETATM   42  C   UNL     1     -47.548  63.213 -48.667  1.00  0.00     0.123 A 
ENDBRANCH  34  37
ENDBRANCH  23  28
ENDBRANCH   1  22
TORSDOF 9
ENDMDL
MODEL 9
REMARK VINA RESULT:      -7.2      1.349      2.068
REMARK  9 active torsions:
REMARK  status: ('A' for Active; 'I' for Inactive)
REMARK    1  A    between atoms: N_6  and  C_7 
REMARK    2  A    between atoms: C_7  and  C_8 
REMARK    3  A    between atoms: C_8  and  N_9 
REMARK       I    between atoms: N_9  and  C_10 
REMARK    4  A    between atoms: C_10  and  C_12 
REMARK    5  A    between atoms: C_16  and  C_17 
REMARK    6  A    between atoms: C_17  and  N_18 
REMARK    7  A    between atoms: N_18  and  C_19 
REMARK       I    between atoms: N_18  and  C_22 
REMARK    8  A    between atoms: C_22  and  C_24 
REMARK    9  A    between atoms: C_29  and  C_33 
ROOT
HETATM    1  C   UNL     1     -43.264  60.704 -51.310  1.00  0.00     0.165 C 
ENDROOT
BRANCH   1   2
HETATM    2  C   UNL     1     -43.432  61.381 -52.652  1.00  0.00    -0.039 A 
HETATM    3  C   UNL     1     -43.245  62.763 -52.784  1.00  0.00     0.009 A 
HETATM    4  C   UNL     1     -43.377  63.384 -54.027  1.00  0.00     0.002 A 
HETATM    5  C   UNL     1     -43.682  62.628 -55.160  1.00  0.00     0.017 A 
HETATM    6  C   UNL     1     -43.849  61.242 -55.055  1.00  0.00     0.032 A 
HETATM    7  C   UNL     1     -43.739  60.628 -53.797  1.00  0.00     0.026 A 
BRANCH   6   8
HETATM    8  C   UNL     1     -44.149  60.379 -56.233  1.00  0.00     0.251 C 
HETATM    9  N   UNL     1     -43.830  59.035 -56.127  1.00  0.00    -0.355 N 
HETATM   10  H   UNL     1     -43.636  58.655 -55.209  1.00  0.00     0.162 HD
HETATM   11  O   UNL     1     -44.680  60.850 -57.237  1.00  0.00    -0.268 OA
BRANCH   9  12
HETATM   12  C   UNL     1     -44.247  58.097 -57.156  1.00  0.00     0.153 C 
BRANCH  12  13
HETATM   13  C   UNL     1     -43.116  57.123 -57.557  1.00  0.00     0.292 C 
BRANCH  13  14
HETATM   14  N   UNL     1     -42.661  57.197 -58.965  1.00  0.00     0.093 N 
HETATM   15  C   UNL     1     -43.489  58.169 -59.720  1.00  0.00     0.300 C 
HETATM   16  C   UNL     1     -44.931  57.704 -60.037  1.00  0.00     0.264 C 
HETATM   17  N   UNL     1     -44.914  56.347 -60.722  1.00  0.00    -0.072 N 
HETATM   18  C   UNL     1     -46.296  55.845 -61.013  1.00  0.00     0.269 C 
HETATM   19  H   UNL     1     -44.431  56.473 -61.620  1.00  0.00     0.279 HD
HETATM   20  C   UNL     1     -44.106  55.330 -59.929  1.00  0.00     0.264 C 
HETATM   21  C   UNL     1     -42.694  55.889 -59.658  1.00  0.00     0.300 C 
ENDBRANCH  13  14
ENDBRANCH  12  13
ENDBRANCH   9  12
ENDBRANCH   6   8
ENDBRANCH   1   2
BRANCH   1  22
HETATM   22  N   UNL     1     -42.964  59.276 -51.413  1.00  0.00    -0.337 N 
HETATM   23  C   UNL     1     -41.637  58.906 -51.746  1.00  0.00     0.280 C 
HETATM   24  O   UNL     1     -40.806  59.794 -51.976  1.00  0.00    -0.265 OA
BRANCH  22  25
HETATM   25  C   UNL     1     -43.999  58.338 -51.047  1.00  0.00     0.088 A 
HETATM   26  C   UNL     1     -45.472  58.577 -51.286  1.00  0.00     0.027 A 
HETATM   27  C   UNL     1     -44.746  57.558 -52.103  1.00  0.00     0.027 A 
ENDBRANCH  22  25
BRANCH  23  28
HETATM   28  C   UNL     1     -41.274  57.482 -51.829  1.00  0.00     0.166 A 
HETATM   29  N   UNL     1     -41.087  56.663 -50.812  1.00  0.00    -0.235 NA
HETATM   30  C   UNL     1     -40.822  55.383 -51.272  1.00  0.00     0.075 A 
HETATM   31  C   UNL     1     -40.622  54.241 -50.473  1.00  0.00     0.034 A 
HETATM   32  C   UNL     1     -40.766  55.244 -52.658  1.00  0.00     0.036 A 
HETATM   33  C   UNL     1     -40.388  52.998 -51.079  1.00  0.00     0.014 A 
HETATM   34  C   UNL     1     -40.338  52.870 -52.471  1.00  0.00    -0.022 A 
HETATM   35  C   UNL     1     -40.520  54.005 -53.277  1.00  0.00     0.033 A 
HETATM   36  S   UNL     1     -41.049  56.775 -53.384  1.00  0.00    -0.063 SA
BRANCH  34  37
HETATM   37  C   UNL     1     -40.123  51.565 -53.074  1.00  0.00     0.010 A 
HETATM   38  C   UNL     1     -39.570  50.378 -52.536  1.00  0.00     0.152 A 
HETATM   39  N   UNL     1     -39.540  49.376 -53.417  1.00  0.00    -0.187 NA
HETATM   40  N   UNL     1     -40.073  49.913 -54.525  1.00  0.00    -0.289 N 
HETATM   41  H   UNL     1     -40.157  49.330 -55.351  1.00  0.00     0.188 HD
HETATM   42  C   UNL     1     -40.437  51.221 -54.372  1.00  0.00     0.123 A 
ENDBRANCH  34  37
ENDBRANCH  23  28
ENDBRANCH   1  22
TORSDOF 9
ENDMDL
MODEL 10
REMARK VINA RESULT:      -6.9      2.772      8.307
REMARK  9 active torsions:
REMARK  status: ('A' for Active; 'I' for Inactive)
REMARK    1  A    between atoms: N_6  and  C_7 
REMARK    2  A    between atoms: C_7  and  C_8 
REMARK    3  A    between atoms: C_8  and  N_9 
REMARK       I    between atoms: N_9  and  C_10 
REMARK    4  A    between atoms: C_10  and  C_12 
REMARK    5  A    between atoms: C_16  and  C_17 
REMARK    6  A    between atoms: C_17  and  N_18 
REMARK    7  A    between atoms: N_18  and  C_19 
REMARK       I    between atoms: N_18  and  C_22 
REMARK    8  A    between atoms: C_22  and  C_24 
REMARK    9  A    between atoms: C_29  and  C_33 
ROOT
HETATM    1  C   UNL     1     -42.611  53.527 -52.975  1.00  0.00     0.165 C 
ENDROOT
BRANCH   1   2
HETATM    2  C   UNL     1     -41.864  54.216 -51.855  1.00  0.00    -0.039 A 
HETATM    3  C   UNL     1     -41.159  53.471 -50.901  1.00  0.00     0.009 A 
HETATM    4  C   UNL     1     -40.451  54.108 -49.882  1.00  0.00     0.002 A 
HETATM    5  C   UNL     1     -40.424  55.502 -49.809  1.00  0.00     0.017 A 
HETATM    6  C   UNL     1     -41.102  56.266 -50.767  1.00  0.00     0.032 A 
HETATM    7  C   UNL     1     -41.833  55.618 -51.775  1.00  0.00     0.026 A 
BRANCH   6   8
HETATM    8  C   UNL     1     -41.088  57.757 -50.758  1.00  0.00     0.251 C 
HETATM    9  N   UNL     1     -41.426  58.397 -51.939  1.00  0.00    -0.355 N 
HETATM   10  H   UNL     1     -41.882  57.861 -52.667  1.00  0.00     0.162 HD
HETATM   11  O   UNL     1     -40.814  58.376 -49.732  1.00  0.00    -0.268 OA
BRANCH   9  12
HETATM   12  C   UNL     1     -41.606  59.839 -51.969  1.00  0.00     0.153 C 
BRANCH  12  13
HETATM   13  C   UNL     1     -42.197  60.330 -53.310  1.00  0.00     0.292 C 
BRANCH  13  14
HETATM   14  N   UNL     1     -43.601  60.803 -53.268  1.00  0.00     0.093 N 
HETATM   15  C   UNL     1     -44.100  61.047 -54.643  1.00  0.00     0.300 C 
HETATM   16  C   UNL     1     -43.524  62.302 -55.343  1.00  0.00     0.264 C 
HETATM   17  N   UNL     1     -43.706  63.531 -54.466  1.00  0.00    -0.072 N 
HETATM   18  C   UNL     1     -43.128  64.763 -55.094  1.00  0.00     0.269 C 
HETATM   19  H   UNL     1     -44.718  63.677 -54.364  1.00  0.00     0.279 HD
HETATM   20  C   UNL     1     -43.153  63.306 -53.066  1.00  0.00     0.264 C 
HETATM   21  C   UNL     1     -43.779  62.031 -52.462  1.00  0.00     0.300 C 
ENDBRANCH  13  14
ENDBRANCH  12  13
ENDBRANCH   9  12
ENDBRANCH   6   8
ENDBRANCH   1   2
BRANCH   1  22
HETATM   22  N   UNL     1     -42.426  54.168 -54.278  1.00  0.00    -0.337 N 
HETATM   23  C   UNL     1     -43.327  55.201 -54.635  1.00  0.00     0.280 C 
HETATM   24  O   UNL     1     -44.249  55.488 -53.862  1.00  0.00    -0.265 OA
BRANCH  22  25
HETATM   25  C   UNL     1     -41.268  53.796 -55.057  1.00  0.00     0.088 A 
HETATM   26  C   UNL     1     -39.907  54.431 -54.897  1.00  0.00     0.027 A 
HETATM   27  C   UNL     1     -40.128  53.029 -54.432  1.00  0.00     0.027 A 
ENDBRANCH  22  25
BRANCH  23  28
HETATM   28  C   UNL     1     -43.165  55.900 -55.920  1.00  0.00     0.166 A 
HETATM   29  N   UNL     1     -43.113  55.340 -57.114  1.00  0.00    -0.235 NA
HETATM   30  C   UNL     1     -43.020  56.313 -58.095  1.00  0.00     0.075 A 
HETATM   31  C   UNL     1     -42.997  56.088 -59.485  1.00  0.00     0.034 A 
HETATM   32  C   UNL     1     -42.958  57.626 -57.632  1.00  0.00     0.036 A 
HETATM   33  C   UNL     1     -42.927  57.176 -60.367  1.00  0.00     0.014 A 
HETATM   34  C   UNL     1     -42.869  58.490 -59.890  1.00  0.00    -0.022 A 
HETATM   35  C   UNL     1     -42.876  58.725 -58.506  1.00  0.00     0.033 A 
HETATM   36  S   UNL     1     -43.011  57.616 -55.915  1.00  0.00    -0.063 SA
BRANCH  34  37
HETATM   37  C   UNL     1     -42.826  59.601 -60.827  1.00  0.00     0.010 A 
HETATM   38  C   UNL     1     -41.732  60.343 -61.333  1.00  0.00     0.152 A 
HETATM   39  N   UNL     1     -42.105  61.301 -62.184  1.00  0.00    -0.187 NA
HETATM   40  N   UNL     1     -43.440  61.180 -62.229  1.00  0.00    -0.289 N 
HETATM   41  H   UNL     1     -43.962  61.816 -62.824  1.00  0.00     0.188 HD
HETATM   42  C   UNL     1     -43.922  60.179 -61.434  1.00  0.00     0.123 A 
ENDBRANCH  34  37
ENDBRANCH  23  28
ENDBRANCH   1  22
TORSDOF 9
ENDMDL
