MODEL 1
REMARK VINA RESULT:      -8.3      0.000      0.000
REMARK  5 active torsions:
REMARK  status: ('A' for Active; 'I' for Inactive)
REMARK    1  A    between atoms: C_2  and  N_3 
REMARK    2  A    between atoms: C_2  and  C_19 
REMARK       I    between atoms: N_3  and  C_4 
REMARK    3  A    between atoms: C_4  and  C_5 
REMARK    4  A    between atoms: C_6  and  O_7 
REMARK    5  A    between atoms: O_7  and  C_8 
ROOT
HETATM    1  C   UNL     1     -41.777  54.289 -50.958  1.00  0.00     0.065 A 
HETATM    2  C   UNL     1     -40.503  53.826 -51.306  1.00  0.00     0.091 A 
HETATM    3  C   UNL     1     -39.475  53.846 -50.352  1.00  0.00     0.038 A 
HETATM    4  C   UNL     1     -39.731  54.281 -49.049  1.00  0.00     0.003 A 
HETATM    5  C   UNL     1     -41.006  54.715 -48.696  1.00  0.00     0.001 A 
HETATM    6  C   UNL     1     -42.029  54.722 -49.645  1.00  0.00     0.020 A 
ENDROOT
BRANCH   1   7
HETATM    7  C   UNL     1     -42.887  54.290 -51.944  1.00  0.00     0.255 C 
HETATM    8  N   UNL     1     -42.620  54.943 -53.129  1.00  0.00    -0.348 N 
HETATM    9  H   UNL     1     -41.670  55.231 -53.332  1.00  0.00     0.163 HD
HETATM   10  O   UNL     1     -43.961  53.761 -51.687  1.00  0.00    -0.268 OA
BRANCH   8  11
HETATM   11  C   UNL     1     -43.585  54.979 -54.221  1.00  0.00     0.115 C 
HETATM   12  C   UNL     1     -43.059  54.122 -55.376  1.00  0.00     0.037 C 
BRANCH  11  13
HETATM   13  C   UNL     1     -43.912  56.419 -54.567  1.00  0.00    -0.018 A 
HETATM   14  C   UNL     1     -43.675  56.992 -55.813  1.00  0.00     0.125 A 
HETATM   15  N   UNL     1     -43.983  58.268 -56.145  1.00  0.00    -0.273 NA
HETATM   16  C   UNL     1     -44.573  59.021 -55.194  1.00  0.00     0.116 A 
HETATM   17  C   UNL     1     -44.868  58.558 -53.926  1.00  0.00     0.020 A 
HETATM   18  C   UNL     1     -44.538  57.242 -53.616  1.00  0.00     0.012 A 
ENDBRANCH  11  13
ENDBRANCH   8  11
ENDBRANCH   1   7
BRANCH   2  19
HETATM   19  O   UNL     1     -40.248  53.462 -52.611  1.00  0.00    -0.310 OA
BRANCH  19  20
HETATM   20  C   UNL     1     -40.021  52.127 -52.859  1.00  0.00     0.076 A 
HETATM   21  C   UNL     1     -39.707  51.215 -51.847  1.00  0.00     0.037 A 
HETATM   22  C   UNL     1     -39.505  49.871 -52.165  1.00  0.00     0.003 A 
HETATM   23  C   UNL     1     -39.637  49.438 -53.485  1.00  0.00     0.000 A 
HETATM   24  C   UNL     1     -39.982  50.345 -54.488  1.00  0.00     0.003 A 
HETATM   25  C   UNL     1     -40.182  51.689 -54.173  1.00  0.00     0.037 A 
ENDBRANCH  19  20
ENDBRANCH   2  19
TORSDOF 5
ENDMDL
MODEL 2
REMARK VINA RESULT:      -7.9      1.903      4.512
REMARK  5 active torsions:
REMARK  status: ('A' for Active; 'I' for Inactive)
REMARK    1  A    between atoms: C_2  and  N_3 
REMARK    2  A    between atoms: C_2  and  C_19 
REMARK       I    between atoms: N_3  and  C_4 
REMARK    3  A    between atoms: C_4  and  C_5 
REMARK    4  A    between atoms: C_6  and  O_7 
REMARK    5  A    between atoms: O_7  and  C_8 
ROOT
HETATM    1  C   UNL     1     -39.746  52.034 -52.084  1.00  0.00     0.065 A 
HETATM    2  C   UNL     1     -39.739  52.126 -53.482  1.00  0.00     0.091 A 
HETATM    3  C   UNL     1     -39.722  50.954 -54.251  1.00  0.00     0.038 A 
HETATM    4  C   UNL     1     -39.759  49.702 -53.631  1.00  0.00     0.003 A 
HETATM    5  C   UNL     1     -39.795  49.612 -52.242  1.00  0.00     0.001 A 
HETATM    6  C   UNL     1     -39.788  50.773 -51.467  1.00  0.00     0.020 A 
ENDROOT
BRANCH   1   7
HETATM    7  C   UNL     1     -39.756  53.253 -51.238  1.00  0.00     0.255 C 
HETATM    8  N   UNL     1     -40.845  54.081 -51.414  1.00  0.00    -0.348 N 
HETATM    9  H   UNL     1     -41.633  53.755 -51.959  1.00  0.00     0.163 HD
HETATM   10  O   UNL     1     -38.838  53.493 -50.464  1.00  0.00    -0.268 OA
BRANCH   8  11
HETATM   11  C   UNL     1     -41.030  55.287 -50.614  1.00  0.00     0.115 C 
HETATM   12  C   UNL     1     -41.604  54.892 -49.250  1.00  0.00     0.037 C 
BRANCH  11  13
HETATM   13  C   UNL     1     -41.839  56.302 -51.399  1.00  0.00    -0.018 A 
HETATM   14  C   UNL     1     -41.312  57.483 -51.914  1.00  0.00     0.125 A 
HETATM   15  N   UNL     1     -42.015  58.388 -52.638  1.00  0.00    -0.273 NA
HETATM   16  C   UNL     1     -43.311  58.103 -52.878  1.00  0.00     0.116 A 
HETATM   17  C   UNL     1     -43.938  56.957 -52.428  1.00  0.00     0.020 A 
HETATM   18  C   UNL     1     -43.190  56.047 -51.687  1.00  0.00     0.012 A 
ENDBRANCH  11  13
ENDBRANCH   8  11
ENDBRANCH   1   7
BRANCH   2  19
HETATM   19  O   UNL     1     -39.635  53.364 -54.078  1.00  0.00    -0.310 OA
BRANCH  19  20
HETATM   20  C   UNL     1     -40.792  53.924 -54.571  1.00  0.00     0.076 A 
HETATM   21  C   UNL     1     -42.001  53.225 -54.631  1.00  0.00     0.037 A 
HETATM   22  C   UNL     1     -43.142  53.858 -55.127  1.00  0.00     0.003 A 
HETATM   23  C   UNL     1     -43.079  55.189 -55.541  1.00  0.00     0.000 A 
HETATM   24  C   UNL     1     -41.878  55.894 -55.449  1.00  0.00     0.003 A 
HETATM   25  C   UNL     1     -40.736  55.263 -54.956  1.00  0.00     0.037 A 
ENDBRANCH  19  20
ENDBRANCH   2  19
TORSDOF 5
ENDMDL
MODEL 3
REMARK VINA RESULT:      -7.6      2.743      4.876
REMARK  5 active torsions:
REMARK  status: ('A' for Active; 'I' for Inactive)
REMARK    1  A    between atoms: C_2  and  N_3 
REMARK    2  A    between atoms: C_2  and  C_19 
REMARK       I    between atoms: N_3  and  C_4 
REMARK    3  A    between atoms: C_4  and  C_5 
REMARK    4  A    between atoms: C_6  and  O_7 
REMARK    5  A    between atoms: O_7  and  C_8 
ROOT
HETATM    1  C   UNL     1     -41.851  54.041 -53.922  1.00  0.00     0.065 A 
HETATM    2  C   UNL     1     -41.526  54.533 -52.651  1.00  0.00     0.091 A 
HETATM    3  C   UNL     1     -40.605  53.838 -51.856  1.00  0.00     0.038 A 
HETATM    4  C   UNL     1     -39.979  52.688 -52.343  1.00  0.00     0.003 A 
HETATM    5  C   UNL     1     -40.281  52.215 -53.618  1.00  0.00     0.001 A 
HETATM    6  C   UNL     1     -41.215  52.887 -54.408  1.00  0.00     0.020 A 
ENDROOT
BRANCH   1   7
HETATM    7  C   UNL     1     -42.828  54.747 -54.788  1.00  0.00     0.255 C 
HETATM    8  N   UNL     1     -42.276  55.525 -55.784  1.00  0.00    -0.348 N 
HETATM    9  H   UNL     1     -41.285  55.451 -55.978  1.00  0.00     0.163 HD
HETATM   10  O   UNL     1     -44.033  54.647 -54.594  1.00  0.00    -0.268 OA
BRANCH   8  11
HETATM   11  C   UNL     1     -43.104  56.233 -56.753  1.00  0.00     0.115 C 
HETATM   12  C   UNL     1     -43.120  55.440 -58.063  1.00  0.00     0.037 C 
BRANCH  11  13
HETATM   13  C   UNL     1     -42.644  57.675 -56.863  1.00  0.00    -0.018 A 
HETATM   14  C   UNL     1     -42.138  58.241 -58.030  1.00  0.00     0.125 A 
HETATM   15  N   UNL     1     -41.746  59.533 -58.151  1.00  0.00    -0.273 NA
HETATM   16  C   UNL     1     -41.873  60.314 -57.059  1.00  0.00     0.116 A 
HETATM   17  C   UNL     1     -42.372  59.865 -55.851  1.00  0.00     0.020 A 
HETATM   18  C   UNL     1     -42.766  58.533 -55.759  1.00  0.00     0.012 A 
ENDBRANCH  11  13
ENDBRANCH   8  11
ENDBRANCH   1   7
BRANCH   2  19
HETATM   19  O   UNL     1     -42.200  55.629 -52.157  1.00  0.00    -0.310 OA
BRANCH  19  20
HETATM   20  C   UNL     1     -41.477  56.790 -51.990  1.00  0.00     0.076 A 
HETATM   21  C   UNL     1     -40.911  57.485 -53.062  1.00  0.00     0.037 A 
HETATM   22  C   UNL     1     -40.203  58.664 -52.824  1.00  0.00     0.003 A 
HETATM   23  C   UNL     1     -40.081  59.157 -51.525  1.00  0.00     0.000 A 
HETATM   24  C   UNL     1     -40.676  58.477 -50.460  1.00  0.00     0.003 A 
HETATM   25  C   UNL     1     -41.381  57.297 -50.694  1.00  0.00     0.037 A 
ENDBRANCH  19  20
ENDBRANCH   2  19
TORSDOF 5
ENDMDL
MODEL 4
REMARK VINA RESULT:      -7.5      2.294      3.575
REMARK  5 active torsions:
REMARK  status: ('A' for Active; 'I' for Inactive)
REMARK    1  A    between atoms: C_2  and  N_3 
REMARK    2  A    between atoms: C_2  and  C_19 
REMARK       I    between atoms: N_3  and  C_4 
REMARK    3  A    between atoms: C_4  and  C_5 
REMARK    4  A    between atoms: C_6  and  O_7 
REMARK    5  A    between atoms: O_7  and  C_8 
ROOT
HETATM    1  C   UNL     1     -42.656  56.226 -52.678  1.00  0.00     0.065 A 
HETATM    2  C   UNL     1     -42.608  54.834 -52.825  1.00  0.00     0.091 A 
HETATM    3  C   UNL     1     -43.200  54.016 -51.852  1.00  0.00     0.038 A 
HETATM    4  C   UNL     1     -43.873  54.583 -50.768  1.00  0.00     0.003 A 
HETATM    5  C   UNL     1     -43.944  55.969 -50.638  1.00  0.00     0.001 A 
HETATM    6  C   UNL     1     -43.338  56.791 -51.588  1.00  0.00     0.020 A 
ENDROOT
BRANCH   1   7
HETATM    7  C   UNL     1     -42.034  57.123 -53.685  1.00  0.00     0.255 C 
HETATM    8  N   UNL     1     -42.765  57.308 -54.839  1.00  0.00    -0.348 N 
HETATM    9  H   UNL     1     -43.722  56.979 -54.877  1.00  0.00     0.163 HD
HETATM   10  O   UNL     1     -40.936  57.629 -53.487  1.00  0.00    -0.268 OA
BRANCH   8  11
HETATM   11  C   UNL     1     -42.318  58.207 -55.896  1.00  0.00     0.115 C 
HETATM   12  C   UNL     1     -43.034  59.552 -55.739  1.00  0.00     0.037 C 
BRANCH  11  13
HETATM   13  C   UNL     1     -42.478  57.530 -57.244  1.00  0.00    -0.018 A 
HETATM   14  C   UNL     1     -42.022  58.072 -58.443  1.00  0.00     0.125 A 
HETATM   15  N   UNL     1     -42.136  57.469 -59.652  1.00  0.00    -0.273 NA
HETATM   16  C   UNL     1     -42.722  56.255 -59.676  1.00  0.00     0.116 A 
HETATM   17  C   UNL     1     -43.201  55.614 -58.549  1.00  0.00     0.020 A 
HETATM   18  C   UNL     1     -43.070  56.259 -57.322  1.00  0.00     0.012 A 
ENDBRANCH  11  13
ENDBRANCH   8  11
ENDBRANCH   1   7
BRANCH   2  19
HETATM   19  O   UNL     1     -41.884  54.287 -53.862  1.00  0.00    -0.310 OA
BRANCH  19  20
HETATM   20  C   UNL     1     -41.080  53.208 -53.568  1.00  0.00     0.076 A 
HETATM   21  C   UNL     1     -40.333  53.125 -52.391  1.00  0.00     0.037 A 
HETATM   22  C   UNL     1     -39.550  51.995 -52.147  1.00  0.00     0.003 A 
HETATM   23  C   UNL     1     -39.533  50.944 -53.066  1.00  0.00     0.000 A 
HETATM   24  C   UNL     1     -40.307  51.017 -54.226  1.00  0.00     0.003 A 
HETATM   25  C   UNL     1     -41.087  52.146 -54.473  1.00  0.00     0.037 A 
ENDBRANCH  19  20
ENDBRANCH   2  19
TORSDOF 5
ENDMDL
MODEL 5
REMARK VINA RESULT:      -7.5      2.647      7.329
REMARK  5 active torsions:
REMARK  status: ('A' for Active; 'I' for Inactive)
REMARK    1  A    between atoms: C_2  and  N_3 
REMARK    2  A    between atoms: C_2  and  C_19 
REMARK       I    between atoms: N_3  and  C_4 
REMARK    3  A    between atoms: C_4  and  C_5 
REMARK    4  A    between atoms: C_6  and  O_7 
REMARK    5  A    between atoms: O_7  and  C_8 
ROOT
HETATM    1  C   UNL     1     -42.732  55.427 -53.525  1.00  0.00     0.065 A 
HETATM    2  C   UNL     1     -43.301  56.672 -53.229  1.00  0.00     0.091 A 
HETATM    3  C   UNL     1     -43.550  57.582 -54.267  1.00  0.00     0.038 A 
HETATM    4  C   UNL     1     -43.278  57.232 -55.592  1.00  0.00     0.003 A 
HETATM    5  C   UNL     1     -42.740  55.982 -55.888  1.00  0.00     0.001 A 
HETATM    6  C   UNL     1     -42.465  55.080 -54.859  1.00  0.00     0.020 A 
ENDROOT
BRANCH   1   7
HETATM    7  C   UNL     1     -42.447  54.443 -52.451  1.00  0.00     0.255 C 
HETATM    8  N   UNL     1     -41.111  54.248 -52.171  1.00  0.00    -0.348 N 
HETATM    9  H   UNL     1     -40.425  54.876 -52.571  1.00  0.00     0.163 HD
HETATM   10  O   UNL     1     -43.354  53.843 -51.887  1.00  0.00    -0.268 OA
BRANCH   8  11
HETATM   11  C   UNL     1     -40.671  53.358 -51.102  1.00  0.00     0.115 C 
HETATM   12  C   UNL     1     -39.658  54.101 -50.226  1.00  0.00     0.037 C 
BRANCH  11  13
HETATM   13  C   UNL     1     -40.192  52.046 -51.694  1.00  0.00    -0.018 A 
HETATM   14  C   UNL     1     -39.921  50.908 -50.939  1.00  0.00     0.125 A 
HETATM   15  N   UNL     1     -39.516  49.722 -51.454  1.00  0.00    -0.273 NA
HETATM   16  C   UNL     1     -39.384  49.652 -52.794  1.00  0.00     0.116 A 
HETATM   17  C   UNL     1     -39.635  50.712 -53.644  1.00  0.00     0.020 A 
HETATM   18  C   UNL     1     -40.049  51.917 -53.085  1.00  0.00     0.012 A 
ENDBRANCH  11  13
ENDBRANCH   8  11
ENDBRANCH   1   7
BRANCH   2  19
HETATM   19  O   UNL     1     -43.501  57.029 -51.913  1.00  0.00    -0.310 OA
BRANCH  19  20
HETATM   20  C   UNL     1     -42.663  57.987 -51.387  1.00  0.00     0.076 A 
HETATM   21  C   UNL     1     -41.309  57.748 -51.139  1.00  0.00     0.037 A 
HETATM   22  C   UNL     1     -40.511  58.768 -50.618  1.00  0.00     0.003 A 
HETATM   23  C   UNL     1     -41.059  60.026 -50.368  1.00  0.00     0.000 A 
HETATM   24  C   UNL     1     -42.404  60.271 -50.648  1.00  0.00     0.003 A 
HETATM   25  C   UNL     1     -43.205  59.253 -51.165  1.00  0.00     0.037 A 
ENDBRANCH  19  20
ENDBRANCH   2  19
TORSDOF 5
ENDMDL
MODEL 6
REMARK VINA RESULT:      -7.4      2.655      3.747
REMARK  5 active torsions:
REMARK  status: ('A' for Active; 'I' for Inactive)
REMARK    1  A    between atoms: C_2  and  N_3 
REMARK    2  A    between atoms: C_2  and  C_19 
REMARK       I    between atoms: N_3  and  C_4 
REMARK    3  A    between atoms: C_4  and  C_5 
REMARK    4  A    between atoms: C_6  and  O_7 
REMARK    5  A    between atoms: O_7  and  C_8 
ROOT
HETATM    1  C   UNL     1     -42.159  57.408 -52.727  1.00  0.00     0.065 A 
HETATM    2  C   UNL     1     -41.895  56.640 -51.586  1.00  0.00     0.091 A 
HETATM    3  C   UNL     1     -41.002  57.123 -50.619  1.00  0.00     0.038 A 
HETATM    4  C   UNL     1     -40.415  58.382 -50.768  1.00  0.00     0.003 A 
HETATM    5  C   UNL     1     -40.700  59.158 -51.889  1.00  0.00     0.001 A 
HETATM    6  C   UNL     1     -41.569  58.675 -52.868  1.00  0.00     0.020 A 
ENDROOT
BRANCH   1   7
HETATM    7  C   UNL     1     -43.093  56.925 -53.775  1.00  0.00     0.255 C 
HETATM    8  N   UNL     1     -42.494  56.446 -54.921  1.00  0.00    -0.348 N 
HETATM    9  H   UNL     1     -41.493  56.294 -54.930  1.00  0.00     0.163 HD
HETATM   10  O   UNL     1     -44.306  56.981 -53.615  1.00  0.00    -0.268 OA
BRANCH   8  11
HETATM   11  C   UNL     1     -43.273  55.881 -56.017  1.00  0.00     0.115 C 
HETATM   12  C   UNL     1     -43.158  54.354 -55.969  1.00  0.00     0.037 C 
BRANCH  11  13
HETATM   13  C   UNL     1     -42.862  56.530 -57.324  1.00  0.00    -0.018 A 
HETATM   14  C   UNL     1     -42.285  57.794 -57.416  1.00  0.00     0.125 A 
HETATM   15  N   UNL     1     -41.890  58.377 -58.574  1.00  0.00    -0.273 NA
HETATM   16  C   UNL     1     -42.064  57.666 -59.706  1.00  0.00     0.116 A 
HETATM   17  C   UNL     1     -42.615  56.399 -59.736  1.00  0.00     0.020 A 
HETATM   18  C   UNL     1     -43.011  55.827 -58.531  1.00  0.00     0.012 A 
ENDBRANCH  11  13
ENDBRANCH   8  11
ENDBRANCH   1   7
BRANCH   2  19
HETATM   19  O   UNL     1     -42.428  55.373 -51.485  1.00  0.00    -0.310 OA
BRANCH  19  20
HETATM   20  C   UNL     1     -41.550  54.314 -51.548  1.00  0.00     0.076 A 
HETATM   21  C   UNL     1     -41.132  53.613 -50.414  1.00  0.00     0.037 A 
HETATM   22  C   UNL     1     -40.252  52.538 -50.551  1.00  0.00     0.003 A 
HETATM   23  C   UNL     1     -39.810  52.153 -51.817  1.00  0.00     0.000 A 
HETATM   24  C   UNL     1     -40.255  52.835 -52.950  1.00  0.00     0.003 A 
HETATM   25  C   UNL     1     -41.132  53.911 -52.817  1.00  0.00     0.037 A 
ENDBRANCH  19  20
ENDBRANCH   2  19
TORSDOF 5
ENDMDL
MODEL 7
REMARK VINA RESULT:      -7.2     14.587     16.461
REMARK  5 active torsions:
REMARK  status: ('A' for Active; 'I' for Inactive)
REMARK    1  A    between atoms: C_2  and  N_3 
REMARK    2  A    between atoms: C_2  and  C_19 
REMARK       I    between atoms: N_3  and  C_4 
REMARK    3  A    between atoms: C_4  and  C_5 
REMARK    4  A    between atoms: C_6  and  O_7 
REMARK    5  A    between atoms: O_7  and  C_8 
ROOT
HETATM    1  C   UNL     1     -36.848  40.407 -56.258  1.00  0.00     0.065 A 
HETATM    2  C   UNL     1     -35.996  41.496 -56.484  1.00  0.00     0.091 A 
HETATM    3  C   UNL     1     -36.086  42.204 -57.691  1.00  0.00     0.038 A 
HETATM    4  C   UNL     1     -37.048  41.858 -58.642  1.00  0.00     0.003 A 
HETATM    5  C   UNL     1     -37.914  40.793 -58.404  1.00  0.00     0.001 A 
HETATM    6  C   UNL     1     -37.817  40.067 -57.216  1.00  0.00     0.020 A 
ENDROOT
BRANCH   1   7
HETATM    7  C   UNL     1     -36.777  39.630 -54.995  1.00  0.00     0.255 C 
HETATM    8  N   UNL     1     -37.060  40.343 -53.849  1.00  0.00    -0.348 N 
HETATM    9  H   UNL     1     -37.451  41.274 -53.929  1.00  0.00     0.163 HD
HETATM   10  O   UNL     1     -36.462  38.447 -54.998  1.00  0.00    -0.268 OA
BRANCH   8  11
HETATM   11  C   UNL     1     -37.091  39.708 -52.537  1.00  0.00     0.115 C 
HETATM   12  C   UNL     1     -38.377  40.122 -51.816  1.00  0.00     0.037 C 
BRANCH  11  13
HETATM   13  C   UNL     1     -35.799  40.000 -51.797  1.00  0.00    -0.018 A 
HETATM   14  C   UNL     1     -34.917  39.018 -51.357  1.00  0.00     0.125 A 
HETATM   15  N   UNL     1     -33.748  39.263 -50.717  1.00  0.00    -0.273 NA
HETATM   16  C   UNL     1     -33.426  40.556 -50.510  1.00  0.00     0.116 A 
HETATM   17  C   UNL     1     -34.218  41.616 -50.912  1.00  0.00     0.020 A 
HETATM   18  C   UNL     1     -35.412  41.330 -51.566  1.00  0.00     0.012 A 
ENDBRANCH  11  13
ENDBRANCH   8  11
ENDBRANCH   1   7
BRANCH   2  19
HETATM   19  O   UNL     1     -35.009  41.784 -55.567  1.00  0.00    -0.310 OA
BRANCH  19  20
HETATM   20  C   UNL     1     -33.870  41.009 -55.605  1.00  0.00     0.076 A 
HETATM   21  C   UNL     1     -33.264  40.620 -56.801  1.00  0.00     0.037 A 
HETATM   22  C   UNL     1     -32.101  39.848 -56.768  1.00  0.00     0.003 A 
HETATM   23  C   UNL     1     -31.537  39.486 -55.544  1.00  0.00     0.000 A 
HETATM   24  C   UNL     1     -32.127  39.905 -54.351  1.00  0.00     0.003 A 
HETATM   25  C   UNL     1     -33.290  40.674 -54.381  1.00  0.00     0.037 A 
ENDBRANCH  19  20
ENDBRANCH   2  19
TORSDOF 5
ENDMDL
MODEL 8
REMARK VINA RESULT:      -7.1      2.402      7.961
REMARK  5 active torsions:
REMARK  status: ('A' for Active; 'I' for Inactive)
REMARK    1  A    between atoms: C_2  and  N_3 
REMARK    2  A    between atoms: C_2  and  C_19 
REMARK       I    between atoms: N_3  and  C_4 
REMARK    3  A    between atoms: C_4  and  C_5 
REMARK    4  A    between atoms: C_6  and  O_7 
REMARK    5  A    between atoms: O_7  and  C_8 
ROOT
HETATM    1  C   UNL     1     -42.813  56.005 -56.228  1.00  0.00     0.065 A 
HETATM    2  C   UNL     1     -42.437  57.353 -56.287  1.00  0.00     0.091 A 
HETATM    3  C   UNL     1     -42.323  57.986 -57.533  1.00  0.00     0.038 A 
HETATM    4  C   UNL     1     -42.627  57.291 -58.706  1.00  0.00     0.003 A 
HETATM    5  C   UNL     1     -43.028  55.959 -58.646  1.00  0.00     0.001 A 
HETATM    6  C   UNL     1     -43.121  55.314 -57.412  1.00  0.00     0.020 A 
ENDROOT
BRANCH   1   7
HETATM    7  C   UNL     1     -42.936  55.302 -54.927  1.00  0.00     0.255 C 
HETATM    8  N   UNL     1     -41.746  55.065 -54.272  1.00  0.00    -0.348 N 
HETATM    9  H   UNL     1     -40.900  55.508 -54.606  1.00  0.00     0.163 HD
HETATM   10  O   UNL     1     -44.028  54.948 -54.502  1.00  0.00    -0.268 OA
BRANCH   8  11
HETATM   11  C   UNL     1     -41.705  54.438 -52.956  1.00  0.00     0.115 C 
HETATM   12  C   UNL     1     -41.237  55.473 -51.928  1.00  0.00     0.037 C 
BRANCH  11  13
HETATM   13  C   UNL     1     -40.888  53.161 -53.023  1.00  0.00    -0.018 A 
HETATM   14  C   UNL     1     -40.161  52.648 -51.952  1.00  0.00     0.125 A 
HETATM   15  N   UNL     1     -39.446  51.498 -51.989  1.00  0.00    -0.273 NA
HETATM   16  C   UNL     1     -39.462  50.806 -53.146  1.00  0.00     0.116 A 
HETATM   17  C   UNL     1     -40.157  51.211 -54.270  1.00  0.00     0.020 A 
HETATM   18  C   UNL     1     -40.881  52.398 -54.201  1.00  0.00     0.012 A 
ENDBRANCH  11  13
ENDBRANCH   8  11
ENDBRANCH   1   7
BRANCH   2  19
HETATM   19  O   UNL     1     -42.077  58.006 -55.128  1.00  0.00    -0.310 OA
BRANCH  19  20
HETATM   20  C   UNL     1     -42.850  59.080 -54.745  1.00  0.00     0.076 A 
HETATM   21  C   UNL     1     -42.362  60.389 -54.721  1.00  0.00     0.037 A 
HETATM   22  C   UNL     1     -43.203  61.434 -54.338  1.00  0.00     0.003 A 
HETATM   23  C   UNL     1     -44.532  61.174 -54.001  1.00  0.00     0.000 A 
HETATM   24  C   UNL     1     -45.026  59.870 -54.057  1.00  0.00     0.003 A 
HETATM   25  C   UNL     1     -44.186  58.823 -54.437  1.00  0.00     0.037 A 
ENDBRANCH  19  20
ENDBRANCH   2  19
TORSDOF 5
ENDMDL
MODEL 9
REMARK VINA RESULT:      -7.1      2.719      5.025
REMARK  5 active torsions:
REMARK  status: ('A' for Active; 'I' for Inactive)
REMARK    1  A    between atoms: C_2  and  N_3 
REMARK    2  A    between atoms: C_2  and  C_19 
REMARK       I    between atoms: N_3  and  C_4 
REMARK    3  A    between atoms: C_4  and  C_5 
REMARK    4  A    between atoms: C_6  and  O_7 
REMARK    5  A    between atoms: O_7  and  C_8 
ROOT
HETATM    1  C   UNL     1     -42.338  56.410 -55.041  1.00  0.00     0.065 A 
HETATM    2  C   UNL     1     -42.744  55.071 -54.982  1.00  0.00     0.091 A 
HETATM    3  C   UNL     1     -43.189  54.432 -56.149  1.00  0.00     0.038 A 
HETATM    4  C   UNL     1     -43.184  55.110 -57.370  1.00  0.00     0.003 A 
HETATM    5  C   UNL     1     -42.752  56.433 -57.432  1.00  0.00     0.001 A 
HETATM    6  C   UNL     1     -42.330  57.084 -56.273  1.00  0.00     0.020 A 
ENDROOT
BRANCH   1   7
HETATM    7  C   UNL     1     -41.868  57.120 -53.825  1.00  0.00     0.255 C 
HETATM    8  N   UNL     1     -42.824  57.312 -52.850  1.00  0.00    -0.348 N 
HETATM    9  H   UNL     1     -43.714  56.836 -52.929  1.00  0.00     0.163 HD
HETATM   10  O   UNL     1     -40.713  57.516 -53.731  1.00  0.00    -0.268 OA
BRANCH   8  11
HETATM   11  C   UNL     1     -42.504  57.940 -51.573  1.00  0.00     0.115 C 
HETATM   12  C   UNL     1     -42.036  56.859 -50.594  1.00  0.00     0.037 C 
BRANCH  11  13
HETATM   13  C   UNL     1     -43.677  58.784 -51.110  1.00  0.00    -0.018 A 
HETATM   14  C   UNL     1     -44.970  58.294 -50.949  1.00  0.00     0.125 A 
HETATM   15  N   UNL     1     -46.022  59.028 -50.513  1.00  0.00    -0.273 NA
HETATM   16  C   UNL     1     -45.780  60.319 -50.206  1.00  0.00     0.116 A 
HETATM   17  C   UNL     1     -44.536  60.911 -50.316  1.00  0.00     0.020 A 
HETATM   18  C   UNL     1     -43.476  60.131 -50.767  1.00  0.00     0.012 A 
ENDBRANCH  11  13
ENDBRANCH   8  11
ENDBRANCH   1   7
BRANCH   2  19
HETATM   19  O   UNL     1     -42.808  54.435 -53.761  1.00  0.00    -0.310 OA
BRANCH  19  20
HETATM   20  C   UNL     1     -41.785  53.566 -53.450  1.00  0.00     0.076 A 
HETATM   21  C   UNL     1     -41.238  52.683 -54.383  1.00  0.00     0.037 A 
HETATM   22  C   UNL     1     -40.191  51.839 -54.006  1.00  0.00     0.003 A 
HETATM   23  C   UNL     1     -39.680  51.896 -52.709  1.00  0.00     0.000 A 
HETATM   24  C   UNL     1     -40.207  52.803 -51.789  1.00  0.00     0.003 A 
HETATM   25  C   UNL     1     -41.255  53.645 -52.162  1.00  0.00     0.037 A 
ENDBRANCH  19  20
ENDBRANCH   2  19
TORSDOF 5
ENDMDL
MODEL 10
REMARK VINA RESULT:      -7.1      2.314      5.953
REMARK  5 active torsions:
REMARK  status: ('A' for Active; 'I' for Inactive)
REMARK    1  A    between atoms: C_2  and  N_3 
REMARK    2  A    between atoms: C_2  and  C_19 
REMARK       I    between atoms: N_3  and  C_4 
REMARK    3  A    between atoms: C_4  and  C_5 
REMARK    4  A    between atoms: C_6  and  O_7 
REMARK    5  A    between atoms: O_7  and  C_8 
ROOT
HETATM    1  C   UNL     1     -43.093  57.683 -54.756  1.00  0.00     0.065 A 
HETATM    2  C   UNL     1     -43.088  56.512 -55.524  1.00  0.00     0.091 A 
HETATM    3  C   UNL     1     -42.960  56.599 -56.917  1.00  0.00     0.038 A 
HETATM    4  C   UNL     1     -42.792  57.841 -57.534  1.00  0.00     0.003 A 
HETATM    5  C   UNL     1     -42.768  59.004 -56.767  1.00  0.00     0.001 A 
HETATM    6  C   UNL     1     -42.919  58.929 -55.382  1.00  0.00     0.020 A 
ENDROOT
BRANCH   1   7
HETATM    7  C   UNL     1     -43.234  57.629 -53.280  1.00  0.00     0.255 C 
HETATM    8  N   UNL     1     -42.076  57.341 -52.589  1.00  0.00    -0.348 N 
HETATM    9  H   UNL     1     -41.191  57.347 -53.081  1.00  0.00     0.163 HD
HETATM   10  O   UNL     1     -44.320  57.808 -52.742  1.00  0.00    -0.268 OA
BRANCH   8  11
HETATM   11  C   UNL     1     -42.038  57.311 -51.131  1.00  0.00     0.115 C 
HETATM   12  C   UNL     1     -41.334  58.575 -50.629  1.00  0.00     0.037 C 
BRANCH  11  13
HETATM   13  C   UNL     1     -41.444  55.997 -50.662  1.00  0.00    -0.018 A 
HETATM   14  C   UNL     1     -41.368  55.613 -49.326  1.00  0.00     0.125 A 
HETATM   15  N   UNL     1     -40.862  54.433 -48.892  1.00  0.00    -0.273 NA
HETATM   16  C   UNL     1     -40.418  53.576 -49.834  1.00  0.00     0.116 A 
HETATM   17  C   UNL     1     -40.453  53.844 -51.189  1.00  0.00     0.020 A 
HETATM   18  C   UNL     1     -40.978  55.065 -51.603  1.00  0.00     0.012 A 
ENDBRANCH  11  13
ENDBRANCH   8  11
ENDBRANCH   1   7
BRANCH   2  19
HETATM   19  O   UNL     1     -43.322  55.300 -54.910  1.00  0.00    -0.310 OA
BRANCH  19  20
HETATM   20  C   UNL     1     -42.253  54.439 -54.791  1.00  0.00     0.076 A 
HETATM   21  C   UNL     1     -42.400  53.105 -54.404  1.00  0.00     0.037 A 
HETATM   22  C   UNL     1     -41.276  52.281 -54.318  1.00  0.00     0.003 A 
HETATM   23  C   UNL     1     -40.015  52.784 -54.639  1.00  0.00     0.000 A 
HETATM   24  C   UNL     1     -39.876  54.109 -55.057  1.00  0.00     0.003 A 
HETATM   25  C   UNL     1     -40.996  54.934 -55.141  1.00  0.00     0.037 A 
ENDBRANCH  19  20
ENDBRANCH   2  19
TORSDOF 5
ENDMDL
