MODEL 1
REMARK VINA RESULT:      -8.7      0.000      0.000
REMARK  7 active torsions:
REMARK  status: ('A' for Active; 'I' for Inactive)
REMARK    1  A    between atoms: C_8  and  C_9 
REMARK    2  A    between atoms: C_9  and  C_10 
REMARK       I    between atoms: C_10  and  N_11 
REMARK    3  A    between atoms: N_11  and  C_12 
REMARK    4  A    between atoms: N_11  and  C_27 
REMARK    5  A    between atoms: C_12  and  C_13 
REMARK    6  A    between atoms: C_12  and  C_22 
REMARK       I    between atoms: C_13  and  N_14 
REMARK    7  A    between atoms: N_14  and  C_15 
ROOT
HETATM    1  C   UNL     1     -43.438  56.862 -52.041  1.00  0.00     0.229 C 
HETATM    2  N   UNL     1     -42.988  57.703 -53.065  1.00  0.00    -0.299 N 
HETATM    3  O   UNL     1     -43.847  57.341 -50.978  1.00  0.00    -0.273 OA
ENDROOT
BRANCH   2   4
HETATM    4  C   UNL     1     -42.685  59.144 -52.811  1.00  0.00     0.225 C 
BRANCH   4   5
HETATM    5  C   UNL     1     -43.835  60.134 -52.460  1.00  0.00     0.246 C 
HETATM    6  N   UNL     1     -44.088  60.365 -51.123  1.00  0.00    -0.354 N 
HETATM    7  H   UNL     1     -43.263  60.350 -50.525  1.00  0.00     0.162 HD
HETATM    8  O   UNL     1     -44.520  60.661 -53.342  1.00  0.00    -0.271 OA
BRANCH   6   9
HETATM    9  C   UNL     1     -45.223  61.170 -50.685  1.00  0.00     0.084 C 
HETATM   10  C   UNL     1     -45.639  60.782 -49.260  1.00  0.00     0.025 C 
HETATM   11  C   UNL     1     -44.699  61.332 -48.189  1.00  0.00     0.002 C 
HETATM   12  C   UNL     1     -44.516  62.839 -48.329  1.00  0.00     0.000 C 
HETATM   13  C   UNL     1     -44.025  63.211 -49.724  1.00  0.00     0.002 C 
HETATM   14  C   UNL     1     -44.957  62.677 -50.810  1.00  0.00     0.025 C 
ENDBRANCH   6   9
ENDBRANCH   4   5
BRANCH   4  15
HETATM   15  C   UNL     1     -41.490  59.330 -51.898  1.00  0.00     0.015 A 
HETATM   16  S   UNL     1     -39.938  58.804 -52.445  1.00  0.00    -0.104 SA
HETATM   17  C   UNL     1     -39.174  59.309 -51.007  1.00  0.00     0.050 A 
HETATM   18  C   UNL     1     -40.065  59.865 -50.119  1.00  0.00     0.008 A 
HETATM   19  C   UNL     1     -41.394  59.888 -50.636  1.00  0.00     0.017 A 
ENDBRANCH   4  15
ENDBRANCH   2   4
BRANCH   2  20
HETATM   20  C   UNL     1     -42.994  57.316 -54.439  1.00  0.00     0.041 A 
HETATM   21  C   UNL     1     -44.020  57.757 -55.287  1.00  0.00     0.069 A 
HETATM   22  C   UNL     1     -43.995  57.346 -56.603  1.00  0.00     0.107 A 
HETATM   23  C   UNL     1     -43.011  56.518 -57.087  1.00  0.00     0.105 A 
HETATM   24  O   UNL     1     -44.900  57.691 -57.558  1.00  0.00    -0.323 OA
HETATM   25  O   UNL     1     -43.173  56.236 -58.406  1.00  0.00    -0.323 OA
HETATM   26  C   UNL     1     -41.996  56.052 -56.281  1.00  0.00     0.042 A 
HETATM   27  C   UNL     1     -44.377  56.976 -58.697  1.00  0.00     0.352 A 
HETATM   28  C   UNL     1     -41.992  56.452 -54.941  1.00  0.00     0.032 A 
ENDBRANCH   2  20
BRANCH   1  29
HETATM   29  C   UNL     1     -43.523  55.360 -52.316  1.00  0.00     0.144 C 
BRANCH  29  30
HETATM   30  C   UNL     1     -42.413  54.440 -51.874  1.00  0.00    -0.021 A 
HETATM   31  C   UNL     1     -41.558  53.513 -52.572  1.00  0.00    -0.001 A 
HETATM   32  C   UNL     1     -41.420  53.064 -53.903  1.00  0.00     0.014 A 
HETATM   33  C   UNL     1     -40.665  52.981 -51.633  1.00  0.00     0.042 A 
HETATM   34  C   UNL     1     -40.437  52.121 -54.239  1.00  0.00     0.001 A 
HETATM   35  C   UNL     1     -39.574  51.620 -53.273  1.00  0.00     0.002 A 
HETATM   36  C   UNL     1     -39.670  52.045 -51.951  1.00  0.00     0.030 A 
HETATM   37  N   UNL     1     -40.954  53.551 -50.419  1.00  0.00    -0.365 N 
HETATM   38  H   UNL     1     -40.454  53.358 -49.562  1.00  0.00     0.165 HD
HETATM   39  C   UNL     1     -41.991  54.423 -50.550  1.00  0.00     0.097 A 
ENDBRANCH  29  30
ENDBRANCH   1  29
TORSDOF 7
ENDMDL
MODEL 2
REMARK VINA RESULT:      -8.6      2.821      6.918
REMARK  7 active torsions:
REMARK  status: ('A' for Active; 'I' for Inactive)
REMARK    1  A    between atoms: C_8  and  C_9 
REMARK    2  A    between atoms: C_9  and  C_10 
REMARK       I    between atoms: C_10  and  N_11 
REMARK    3  A    between atoms: N_11  and  C_12 
REMARK    4  A    between atoms: N_11  and  C_27 
REMARK    5  A    between atoms: C_12  and  C_13 
REMARK    6  A    between atoms: C_12  and  C_22 
REMARK       I    between atoms: C_13  and  N_14 
REMARK    7  A    between atoms: N_14  and  C_15 
ROOT
HETATM    1  C   UNL     1     -43.127  56.367 -55.289  1.00  0.00     0.229 C 
HETATM    2  N   UNL     1     -42.843  57.713 -55.037  1.00  0.00    -0.299 N 
HETATM    3  O   UNL     1     -43.076  55.926 -56.442  1.00  0.00    -0.273 OA
ENDROOT
BRANCH   2   4
HETATM    4  C   UNL     1     -42.788  58.717 -56.142  1.00  0.00     0.225 C 
BRANCH   4   5
HETATM    5  C   UNL     1     -42.510  58.255 -57.604  1.00  0.00     0.246 C 
HETATM    6  N   UNL     1     -43.597  57.886 -58.370  1.00  0.00    -0.354 N 
HETATM    7  H   UNL     1     -44.448  58.413 -58.183  1.00  0.00     0.162 HD
HETATM    8  O   UNL     1     -41.359  58.183 -58.046  1.00  0.00    -0.271 OA
BRANCH   6   9
HETATM    9  C   UNL     1     -43.436  57.315 -59.703  1.00  0.00     0.084 C 
HETATM   10  C   UNL     1     -43.025  55.839 -59.610  1.00  0.00     0.025 C 
HETATM   11  C   UNL     1     -44.183  54.916 -59.237  1.00  0.00     0.002 C 
HETATM   12  C   UNL     1     -45.372  55.109 -60.171  1.00  0.00     0.000 C 
HETATM   13  C   UNL     1     -45.827  56.565 -60.197  1.00  0.00     0.002 C 
HETATM   14  C   UNL     1     -44.684  57.504 -60.577  1.00  0.00     0.025 C 
ENDBRANCH   6   9
ENDBRANCH   4   5
BRANCH   4  15
HETATM   15  C   UNL     1     -43.931  59.709 -56.079  1.00  0.00     0.015 A 
HETATM   16  S   UNL     1     -43.670  61.315 -56.659  1.00  0.00    -0.104 SA
HETATM   17  C   UNL     1     -45.266  61.789 -56.297  1.00  0.00     0.050 A 
HETATM   18  C   UNL     1     -45.995  60.763 -55.745  1.00  0.00     0.008 A 
HETATM   19  C   UNL     1     -45.231  59.564 -55.630  1.00  0.00     0.017 A 
ENDBRANCH   4  15
ENDBRANCH   2   4
BRANCH   2  20
HETATM   20  C   UNL     1     -42.382  58.180 -53.768  1.00  0.00     0.041 A 
HETATM   21  C   UNL     1     -41.021  58.461 -53.578  1.00  0.00     0.069 A 
HETATM   22  C   UNL     1     -40.616  58.893 -52.333  1.00  0.00     0.107 A 
HETATM   23  C   UNL     1     -41.502  59.039 -51.292  1.00  0.00     0.105 A 
HETATM   24  O   UNL     1     -39.344  59.221 -51.983  1.00  0.00    -0.323 OA
HETATM   25  O   UNL     1     -40.898  59.475 -50.156  1.00  0.00    -0.323 OA
HETATM   26  C   UNL     1     -42.843  58.757 -51.436  1.00  0.00     0.042 A 
HETATM   27  C   UNL     1     -39.528  59.582 -50.598  1.00  0.00     0.352 A 
HETATM   28  C   UNL     1     -43.284  58.318 -52.688  1.00  0.00     0.032 A 
ENDBRANCH   2  20
BRANCH   1  29
HETATM   29  C   UNL     1     -43.380  55.440 -54.100  1.00  0.00     0.144 C 
BRANCH  29  30
HETATM   30  C   UNL     1     -42.274  54.567 -53.564  1.00  0.00    -0.021 A 
HETATM   31  C   UNL     1     -41.540  54.548 -52.324  1.00  0.00    -0.001 A 
HETATM   32  C   UNL     1     -41.518  55.323 -51.144  1.00  0.00     0.014 A 
HETATM   33  C   UNL     1     -40.664  53.455 -52.374  1.00  0.00     0.042 A 
HETATM   34  C   UNL     1     -40.645  55.001 -50.095  1.00  0.00     0.001 A 
HETATM   35  C   UNL     1     -39.793  53.907 -50.190  1.00  0.00     0.002 A 
HETATM   36  C   UNL     1     -39.790  53.111 -51.332  1.00  0.00     0.030 A 
HETATM   37  N   UNL     1     -40.850  52.832 -53.582  1.00  0.00    -0.365 N 
HETATM   38  H   UNL     1     -40.356  52.003 -53.881  1.00  0.00     0.165 HD
HETATM   39  C   UNL     1     -41.808  53.483 -54.298  1.00  0.00     0.097 A 
ENDBRANCH  29  30
ENDBRANCH   1  29
TORSDOF 7
ENDMDL
MODEL 3
REMARK VINA RESULT:      -8.5      2.532      6.256
REMARK  7 active torsions:
REMARK  status: ('A' for Active; 'I' for Inactive)
REMARK    1  A    between atoms: C_8  and  C_9 
REMARK    2  A    between atoms: C_9  and  C_10 
REMARK       I    between atoms: C_10  and  N_11 
REMARK    3  A    between atoms: N_11  and  C_12 
REMARK    4  A    between atoms: N_11  and  C_27 
REMARK    5  A    between atoms: C_12  and  C_13 
REMARK    6  A    between atoms: C_12  and  C_22 
REMARK       I    between atoms: C_13  and  N_14 
REMARK    7  A    between atoms: N_14  and  C_15 
ROOT
HETATM    1  C   UNL     1     -44.232  57.077 -53.696  1.00  0.00     0.229 C 
HETATM    2  N   UNL     1     -43.640  58.345 -53.663  1.00  0.00    -0.299 N 
HETATM    3  O   UNL     1     -45.065  56.804 -54.567  1.00  0.00    -0.273 OA
ENDROOT
BRANCH   2   4
HETATM    4  C   UNL     1     -44.203  59.488 -54.443  1.00  0.00     0.225 C 
BRANCH   4   5
HETATM    5  C   UNL     1     -44.743  59.257 -55.887  1.00  0.00     0.246 C 
HETATM    6  N   UNL     1     -43.863  58.745 -56.819  1.00  0.00    -0.354 N 
HETATM    7  H   UNL     1     -43.183  58.084 -56.445  1.00  0.00     0.162 HD
HETATM    8  O   UNL     1     -45.900  59.558 -56.195  1.00  0.00    -0.271 OA
BRANCH   6   9
HETATM    9  C   UNL     1     -44.227  58.614 -58.225  1.00  0.00     0.084 C 
HETATM   10  C   UNL     1     -43.063  59.052 -59.125  1.00  0.00     0.025 C 
HETATM   11  C   UNL     1     -41.945  58.015 -59.207  1.00  0.00     0.002 C 
HETATM   12  C   UNL     1     -42.482  56.647 -59.613  1.00  0.00     0.000 C 
HETATM   13  C   UNL     1     -43.584  56.182 -58.666  1.00  0.00     0.002 C 
HETATM   14  C   UNL     1     -44.717  57.202 -58.577  1.00  0.00     0.025 C 
ENDBRANCH   6   9
ENDBRANCH   4   5
BRANCH   4  15
HETATM   15  C   UNL     1     -45.152  60.336 -53.621  1.00  0.00     0.015 A 
HETATM   16  S   UNL     1     -45.276  62.022 -53.975  1.00  0.00    -0.104 SA
HETATM   17  C   UNL     1     -46.435  62.273 -52.752  1.00  0.00     0.050 A 
HETATM   18  C   UNL     1     -46.733  61.112 -52.079  1.00  0.00     0.008 A 
HETATM   19  C   UNL     1     -46.004  59.996 -52.586  1.00  0.00     0.017 A 
ENDBRANCH   4  15
ENDBRANCH   2   4
BRANCH   2  20
HETATM   20  C   UNL     1     -42.362  58.584 -53.071  1.00  0.00     0.041 A 
HETATM   21  C   UNL     1     -42.278  59.165 -51.798  1.00  0.00     0.069 A 
HETATM   22  C   UNL     1     -41.025  59.393 -51.271  1.00  0.00     0.107 A 
HETATM   23  C   UNL     1     -39.878  59.079 -51.962  1.00  0.00     0.105 A 
HETATM   24  O   UNL     1     -40.764  59.934 -50.051  1.00  0.00    -0.323 OA
HETATM   25  O   UNL     1     -38.753  59.384 -51.264  1.00  0.00    -0.323 OA
HETATM   26  C   UNL     1     -39.921  58.521 -53.221  1.00  0.00     0.042 A 
HETATM   27  C   UNL     1     -39.321  59.933 -50.056  1.00  0.00     0.352 A 
HETATM   28  C   UNL     1     -41.178  58.277 -53.782  1.00  0.00     0.032 A 
ENDBRANCH   2  20
BRANCH   1  29
HETATM   29  C   UNL     1     -43.737  56.016 -52.714  1.00  0.00     0.144 C 
BRANCH  29  30
HETATM   30  C   UNL     1     -42.773  54.949 -53.165  1.00  0.00    -0.021 A 
HETATM   31  C   UNL     1     -41.785  54.152 -52.481  1.00  0.00    -0.001 A 
HETATM   32  C   UNL     1     -41.295  54.056 -51.161  1.00  0.00     0.014 A 
HETATM   33  C   UNL     1     -41.232  53.274 -53.423  1.00  0.00     0.042 A 
HETATM   34  C   UNL     1     -40.295  53.127 -50.838  1.00  0.00     0.001 A 
HETATM   35  C   UNL     1     -39.775  52.277 -51.806  1.00  0.00     0.002 A 
HETATM   36  C   UNL     1     -40.239  52.333 -53.118  1.00  0.00     0.030 A 
HETATM   37  N   UNL     1     -41.848  53.516 -54.625  1.00  0.00    -0.365 N 
HETATM   38  H   UNL     1     -41.652  53.015 -55.480  1.00  0.00     0.165 HD
HETATM   39  C   UNL     1     -42.769  54.509 -54.484  1.00  0.00     0.097 A 
ENDBRANCH  29  30
ENDBRANCH   1  29
TORSDOF 7
ENDMDL
MODEL 4
REMARK VINA RESULT:      -8.3      3.286      6.505
REMARK  7 active torsions:
REMARK  status: ('A' for Active; 'I' for Inactive)
REMARK    1  A    between atoms: C_8  and  C_9 
REMARK    2  A    between atoms: C_9  and  C_10 
REMARK       I    between atoms: C_10  and  N_11 
REMARK    3  A    between atoms: N_11  and  C_12 
REMARK    4  A    between atoms: N_11  and  C_27 
REMARK    5  A    between atoms: C_12  and  C_13 
REMARK    6  A    between atoms: C_12  and  C_22 
REMARK       I    between atoms: C_13  and  N_14 
REMARK    7  A    between atoms: N_14  and  C_15 
ROOT
HETATM    1  C   UNL     1     -41.907  59.025 -54.802  1.00  0.00     0.229 C 
HETATM    2  N   UNL     1     -43.301  58.947 -54.705  1.00  0.00    -0.299 N 
HETATM    3  O   UNL     1     -41.380  59.467 -55.828  1.00  0.00    -0.273 OA
ENDROOT
BRANCH   2   4
HETATM    4  C   UNL     1     -44.174  59.080 -55.910  1.00  0.00     0.225 C 
BRANCH   4   5
HETATM    5  C   UNL     1     -44.259  60.439 -56.667  1.00  0.00     0.246 C 
HETATM    6  N   UNL     1     -43.258  60.726 -57.574  1.00  0.00    -0.354 N 
HETATM    7  H   UNL     1     -42.892  59.916 -58.073  1.00  0.00     0.162 HD
HETATM    8  O   UNL     1     -45.165  61.246 -56.436  1.00  0.00    -0.271 OA
BRANCH   6   9
HETATM    9  C   UNL     1     -43.172  62.022 -58.236  1.00  0.00     0.084 C 
HETATM   10  C   UNL     1     -41.886  62.751 -57.826  1.00  0.00     0.025 C 
HETATM   11  C   UNL     1     -40.638  62.198 -58.513  1.00  0.00     0.002 C 
HETATM   12  C   UNL     1     -40.804  62.162 -60.028  1.00  0.00     0.000 C 
HETATM   13  C   UNL     1     -42.042  61.368 -60.431  1.00  0.00     0.002 C 
HETATM   14  C   UNL     1     -43.302  61.912 -59.762  1.00  0.00     0.025 C 
ENDBRANCH   6   9
ENDBRANCH   4   5
BRANCH   4  15
HETATM   15  C   UNL     1     -44.014  57.917 -56.869  1.00  0.00     0.015 A 
HETATM   16  S   UNL     1     -44.889  57.943 -58.358  1.00  0.00    -0.104 SA
HETATM   17  C   UNL     1     -44.247  56.445 -58.852  1.00  0.00     0.050 A 
HETATM   18  C   UNL     1     -43.386  55.920 -57.917  1.00  0.00     0.008 A 
HETATM   19  C   UNL     1     -43.243  56.772 -56.782  1.00  0.00     0.017 A 
ENDBRANCH   4  15
ENDBRANCH   2   4
BRANCH   2  20
HETATM   20  C   UNL     1     -43.989  58.954 -53.454  1.00  0.00     0.041 A 
HETATM   21  C   UNL     1     -44.052  60.132 -52.695  1.00  0.00     0.069 A 
HETATM   22  C   UNL     1     -44.712  60.090 -51.486  1.00  0.00     0.107 A 
HETATM   23  C   UNL     1     -45.287  58.934 -51.012  1.00  0.00     0.105 A 
HETATM   24  O   UNL     1     -44.878  61.138 -50.636  1.00  0.00    -0.323 OA
HETATM   25  O   UNL     1     -45.885  59.110 -49.805  1.00  0.00    -0.323 OA
HETATM   26  C   UNL     1     -45.232  57.754 -51.721  1.00  0.00     0.042 A 
HETATM   27  C   UNL     1     -45.616  60.508 -49.568  1.00  0.00     0.352 A 
HETATM   28  C   UNL     1     -44.570  57.765 -52.953  1.00  0.00     0.032 A 
ENDBRANCH   2  20
BRANCH   1  29
HETATM   29  C   UNL     1     -41.070  58.669 -53.573  1.00  0.00     0.144 C 
BRANCH  29  30
HETATM   30  C   UNL     1     -41.100  57.271 -53.009  1.00  0.00    -0.021 A 
HETATM   31  C   UNL     1     -40.879  55.967 -53.581  1.00  0.00    -0.001 A 
HETATM   32  C   UNL     1     -40.586  55.458 -54.865  1.00  0.00     0.014 A 
HETATM   33  C   UNL     1     -40.983  55.032 -52.543  1.00  0.00     0.042 A 
HETATM   34  C   UNL     1     -40.425  54.079 -55.065  1.00  0.00     0.001 A 
HETATM   35  C   UNL     1     -40.538  53.189 -54.005  1.00  0.00     0.002 A 
HETATM   36  C   UNL     1     -40.816  53.651 -52.721  1.00  0.00     0.030 A 
HETATM   37  N   UNL     1     -41.253  55.724 -51.390  1.00  0.00    -0.365 N 
HETATM   38  H   UNL     1     -41.366  55.299 -50.480  1.00  0.00     0.165 HD
HETATM   39  C   UNL     1     -41.322  57.058 -51.654  1.00  0.00     0.097 A 
ENDBRANCH  29  30
ENDBRANCH   1  29
TORSDOF 7
ENDMDL
MODEL 5
REMARK VINA RESULT:      -8.2      2.298      6.697
REMARK  7 active torsions:
REMARK  status: ('A' for Active; 'I' for Inactive)
REMARK    1  A    between atoms: C_8  and  C_9 
REMARK    2  A    between atoms: C_9  and  C_10 
REMARK       I    between atoms: C_10  and  N_11 
REMARK    3  A    between atoms: N_11  and  C_12 
REMARK    4  A    between atoms: N_11  and  C_27 
REMARK    5  A    between atoms: C_12  and  C_13 
REMARK    6  A    between atoms: C_12  and  C_22 
REMARK       I    between atoms: C_13  and  N_14 
REMARK    7  A    between atoms: N_14  and  C_15 
ROOT
HETATM    1  C   UNL     1     -43.765  57.903 -53.978  1.00  0.00     0.229 C 
HETATM    2  N   UNL     1     -43.757  58.755 -52.868  1.00  0.00    -0.299 N 
HETATM    3  O   UNL     1     -43.460  56.713 -53.849  1.00  0.00    -0.273 OA
ENDROOT
BRANCH   2   4
HETATM    4  C   UNL     1     -43.089  58.363 -51.591  1.00  0.00     0.225 C 
BRANCH   4   5
HETATM    5  C   UNL     1     -43.342  56.952 -50.978  1.00  0.00     0.246 C 
HETATM    6  N   UNL     1     -42.260  56.101 -50.878  1.00  0.00    -0.354 N 
HETATM    7  H   UNL     1     -41.372  56.562 -50.681  1.00  0.00     0.162 HD
HETATM    8  O   UNL     1     -44.472  56.596 -50.634  1.00  0.00    -0.271 OA
BRANCH   6   9
HETATM    9  C   UNL     1     -42.412  54.717 -50.443  1.00  0.00     0.084 C 
HETATM   10  C   UNL     1     -42.301  53.762 -51.639  1.00  0.00     0.025 C 
HETATM   11  C   UNL     1     -40.865  53.566 -52.119  1.00  0.00     0.002 C 
HETATM   12  C   UNL     1     -39.948  53.142 -50.977  1.00  0.00     0.000 C 
HETATM   13  C   UNL     1     -40.002  54.139 -49.824  1.00  0.00     0.002 C 
HETATM   14  C   UNL     1     -41.431  54.342 -49.323  1.00  0.00     0.025 C 
ENDBRANCH   6   9
ENDBRANCH   4   5
BRANCH   4  15
HETATM   15  C   UNL     1     -41.616  58.722 -51.575  1.00  0.00     0.015 A 
HETATM   16  S   UNL     1     -40.939  59.379 -50.129  1.00  0.00    -0.104 SA
HETATM   17  C   UNL     1     -39.387  59.508 -50.821  1.00  0.00     0.050 A 
HETATM   18  C   UNL     1     -39.367  59.068 -52.124  1.00  0.00     0.008 A 
HETATM   19  C   UNL     1     -40.646  58.605 -52.554  1.00  0.00     0.017 A 
ENDBRANCH   4  15
ENDBRANCH   2   4
BRANCH   2  20
HETATM   20  C   UNL     1     -44.550  59.940 -52.800  1.00  0.00     0.041 A 
HETATM   21  C   UNL     1     -44.000  61.175 -53.174  1.00  0.00     0.069 A 
HETATM   22  C   UNL     1     -44.796  62.296 -53.076  1.00  0.00     0.107 A 
HETATM   23  C   UNL     1     -46.090  62.230 -52.617  1.00  0.00     0.105 A 
HETATM   24  O   UNL     1     -44.427  63.562 -53.408  1.00  0.00    -0.323 OA
HETATM   25  O   UNL     1     -46.697  63.445 -52.601  1.00  0.00    -0.323 OA
HETATM   26  C   UNL     1     -46.660  61.038 -52.226  1.00  0.00     0.042 A 
HETATM   27  C   UNL     1     -45.634  64.287 -53.097  1.00  0.00     0.352 A 
HETATM   28  C   UNL     1     -45.878  59.882 -52.314  1.00  0.00     0.032 A 
ENDBRANCH   2  20
BRANCH   1  29
HETATM   29  C   UNL     1     -44.274  58.449 -55.312  1.00  0.00     0.144 C 
BRANCH  29  30
HETATM   30  C   UNL     1     -43.351  58.543 -56.500  1.00  0.00    -0.021 A 
HETATM   31  C   UNL     1     -43.113  57.694 -57.641  1.00  0.00    -0.001 A 
HETATM   32  C   UNL     1     -43.597  56.450 -58.098  1.00  0.00     0.014 A 
HETATM   33  C   UNL     1     -42.171  58.340 -58.452  1.00  0.00     0.042 A 
HETATM   34  C   UNL     1     -43.131  55.902 -59.302  1.00  0.00     0.001 A 
HETATM   35  C   UNL     1     -42.194  56.579 -60.074  1.00  0.00     0.002 A 
HETATM   36  C   UNL     1     -41.699  57.814 -59.664  1.00  0.00     0.030 A 
HETATM   37  N   UNL     1     -41.845  59.526 -57.845  1.00  0.00    -0.365 N 
HETATM   38  H   UNL     1     -41.194  60.202 -58.219  1.00  0.00     0.165 HD
HETATM   39  C   UNL     1     -42.543  59.660 -56.683  1.00  0.00     0.097 A 
ENDBRANCH  29  30
ENDBRANCH   1  29
TORSDOF 7
ENDMDL
MODEL 6
REMARK VINA RESULT:      -8.2      2.828      6.985
REMARK  7 active torsions:
REMARK  status: ('A' for Active; 'I' for Inactive)
REMARK    1  A    between atoms: C_8  and  C_9 
REMARK    2  A    between atoms: C_9  and  C_10 
REMARK       I    between atoms: C_10  and  N_11 
REMARK    3  A    between atoms: N_11  and  C_12 
REMARK    4  A    between atoms: N_11  and  C_27 
REMARK    5  A    between atoms: C_12  and  C_13 
REMARK    6  A    between atoms: C_12  and  C_22 
REMARK       I    between atoms: C_13  and  N_14 
REMARK    7  A    between atoms: N_14  and  C_15 
ROOT
HETATM    1  C   UNL     1     -42.473  57.876 -55.705  1.00  0.00     0.229 C 
HETATM    2  N   UNL     1     -42.883  58.674 -54.631  1.00  0.00    -0.299 N 
HETATM    3  O   UNL     1     -42.261  56.670 -55.538  1.00  0.00    -0.273 OA
ENDROOT
BRANCH   2   4
HETATM    4  C   UNL     1     -42.771  58.196 -53.220  1.00  0.00     0.225 C 
BRANCH   4   5
HETATM    5  C   UNL     1     -43.205  56.746 -52.849  1.00  0.00     0.246 C 
HETATM    6  N   UNL     1     -42.229  55.769 -52.857  1.00  0.00    -0.354 N 
HETATM    7  H   UNL     1     -41.306  56.088 -52.565  1.00  0.00     0.162 HD
HETATM    8  O   UNL     1     -44.383  56.473 -52.598  1.00  0.00    -0.271 OA
BRANCH   6   9
HETATM    9  C   UNL     1     -42.552  54.362 -52.655  1.00  0.00     0.084 C 
HETATM   10  C   UNL     1     -42.030  53.516 -53.824  1.00  0.00     0.025 C 
HETATM   11  C   UNL     1     -40.521  53.288 -53.772  1.00  0.00     0.002 C 
HETATM   12  C   UNL     1     -40.090  52.712 -52.428  1.00  0.00     0.000 C 
HETATM   13  C   UNL     1     -40.543  53.600 -51.274  1.00  0.00     0.002 C 
HETATM   14  C   UNL     1     -42.052  53.833 -51.303  1.00  0.00     0.025 C 
ENDBRANCH   6   9
ENDBRANCH   4   5
BRANCH   4  15
HETATM   15  C   UNL     1     -41.440  58.557 -52.591  1.00  0.00     0.015 A 
HETATM   16  S   UNL     1     -41.373  58.822 -50.886  1.00  0.00    -0.104 SA
HETATM   17  C   UNL     1     -39.701  59.148 -50.924  1.00  0.00     0.050 A 
HETATM   18  C   UNL     1     -39.189  59.063 -52.197  1.00  0.00     0.008 A 
HETATM   19  C   UNL     1     -40.187  58.712 -53.154  1.00  0.00     0.017 A 
ENDBRANCH   4  15
ENDBRANCH   2   4
BRANCH   2  20
HETATM   20  C   UNL     1     -43.621  59.883 -54.806  1.00  0.00     0.041 A 
HETATM   21  C   UNL     1     -42.958  61.118 -54.779  1.00  0.00     0.069 A 
HETATM   22  C   UNL     1     -43.712  62.262 -54.936  1.00  0.00     0.107 A 
HETATM   23  C   UNL     1     -45.076  62.216 -55.103  1.00  0.00     0.105 A 
HETATM   24  O   UNL     1     -43.230  63.534 -54.948  1.00  0.00    -0.323 OA
HETATM   25  O   UNL     1     -45.623  63.452 -55.239  1.00  0.00    -0.323 OA
HETATM   26  C   UNL     1     -45.763  61.023 -55.119  1.00  0.00     0.042 A 
HETATM   27  C   UNL     1     -44.448  64.284 -55.133  1.00  0.00     0.352 A 
HETATM   28  C   UNL     1     -45.027  59.844 -54.963  1.00  0.00     0.032 A 
ENDBRANCH   2  20
BRANCH   1  29
HETATM   29  C   UNL     1     -42.414  58.503 -57.098  1.00  0.00     0.144 C 
BRANCH  29  30
HETATM   30  C   UNL     1     -43.480  58.197 -58.119  1.00  0.00    -0.021 A 
HETATM   31  C   UNL     1     -43.911  56.984 -58.768  1.00  0.00    -0.001 A 
HETATM   32  C   UNL     1     -43.515  55.630 -58.754  1.00  0.00     0.014 A 
HETATM   33  C   UNL     1     -45.000  57.313 -59.586  1.00  0.00     0.042 A 
HETATM   34  C   UNL     1     -44.189  54.682 -59.538  1.00  0.00     0.001 A 
HETATM   35  C   UNL     1     -45.264  55.054 -60.335  1.00  0.00     0.002 A 
HETATM   36  C   UNL     1     -45.692  56.379 -60.370  1.00  0.00     0.030 A 
HETATM   37  N   UNL     1     -45.230  58.658 -59.446  1.00  0.00    -0.365 N 
HETATM   38  H   UNL     1     -45.969  59.164 -59.914  1.00  0.00     0.165 HD
HETATM   39  C   UNL     1     -44.334  59.195 -58.573  1.00  0.00     0.097 A 
ENDBRANCH  29  30
ENDBRANCH   1  29
TORSDOF 7
ENDMDL
MODEL 7
REMARK VINA RESULT:      -7.9      4.166      8.092
REMARK  7 active torsions:
REMARK  status: ('A' for Active; 'I' for Inactive)
REMARK    1  A    between atoms: C_8  and  C_9 
REMARK    2  A    between atoms: C_9  and  C_10 
REMARK       I    between atoms: C_10  and  N_11 
REMARK    3  A    between atoms: N_11  and  C_12 
REMARK    4  A    between atoms: N_11  and  C_27 
REMARK    5  A    between atoms: C_12  and  C_13 
REMARK    6  A    between atoms: C_12  and  C_22 
REMARK       I    between atoms: C_13  and  N_14 
REMARK    7  A    between atoms: N_14  and  C_15 
ROOT
HETATM    1  C   UNL     1     -42.385  59.205 -57.031  1.00  0.00     0.229 C 
HETATM    2  N   UNL     1     -43.651  58.619 -56.916  1.00  0.00    -0.299 N 
HETATM    3  O   UNL     1     -41.761  59.540 -56.018  1.00  0.00    -0.273 OA
ENDROOT
BRANCH   2   4
HETATM    4  C   UNL     1     -44.418  58.669 -55.635  1.00  0.00     0.225 C 
BRANCH   4   5
HETATM    5  C   UNL     1     -44.044  57.712 -54.463  1.00  0.00     0.246 C 
HETATM    6  N   UNL     1     -42.864  57.004 -54.573  1.00  0.00    -0.354 N 
HETATM    7  H   UNL     1     -42.113  57.501 -55.051  1.00  0.00     0.162 HD
HETATM    8  O   UNL     1     -44.793  57.563 -53.493  1.00  0.00    -0.271 OA
BRANCH   6   9
HETATM    9  C   UNL     1     -42.486  55.988 -53.598  1.00  0.00     0.084 C 
HETATM   10  C   UNL     1     -43.167  54.651 -53.924  1.00  0.00     0.025 C 
HETATM   11  C   UNL     1     -42.519  53.919 -55.098  1.00  0.00     0.002 C 
HETATM   12  C   UNL     1     -41.019  53.748 -54.889  1.00  0.00     0.000 C 
HETATM   13  C   UNL     1     -40.337  55.090 -54.645  1.00  0.00     0.002 C 
HETATM   14  C   UNL     1     -40.964  55.834 -53.469  1.00  0.00     0.025 C 
ENDBRANCH   6   9
ENDBRANCH   4   5
BRANCH   4  15
HETATM   15  C   UNL     1     -44.638  60.087 -55.148  1.00  0.00     0.015 A 
HETATM   16  S   UNL     1     -45.616  61.147 -56.098  1.00  0.00    -0.104 SA
HETATM   17  C   UNL     1     -45.420  62.437 -55.002  1.00  0.00     0.050 A 
HETATM   18  C   UNL     1     -44.630  62.088 -53.932  1.00  0.00     0.008 A 
HETATM   19  C   UNL     1     -44.190  60.733 -54.010  1.00  0.00     0.017 A 
ENDBRANCH   4  15
ENDBRANCH   2   4
BRANCH   2  20
HETATM   20  C   UNL     1     -44.198  57.764 -57.919  1.00  0.00     0.041 A 
HETATM   21  C   UNL     1     -45.381  58.126 -58.580  1.00  0.00     0.069 A 
HETATM   22  C   UNL     1     -45.884  57.263 -59.530  1.00  0.00     0.107 A 
HETATM   23  C   UNL     1     -45.267  56.071 -59.827  1.00  0.00     0.105 A 
HETATM   24  O   UNL     1     -47.007  57.465 -60.269  1.00  0.00    -0.323 OA
HETATM   25  O   UNL     1     -45.924  55.374 -60.790  1.00  0.00    -0.323 OA
HETATM   26  C   UNL     1     -44.112  55.674 -59.189  1.00  0.00     0.042 A 
HETATM   27  C   UNL     1     -47.031  56.259 -61.061  1.00  0.00     0.352 A 
HETATM   28  C   UNL     1     -43.577  56.529 -58.220  1.00  0.00     0.032 A 
ENDBRANCH   2  20
BRANCH   1  29
HETATM   29  C   UNL     1     -41.752  59.306 -58.418  1.00  0.00     0.144 C 
BRANCH  29  30
HETATM   30  C   UNL     1     -41.956  60.539 -59.263  1.00  0.00    -0.021 A 
HETATM   31  C   UNL     1     -41.213  61.763 -59.425  1.00  0.00    -0.001 A 
HETATM   32  C   UNL     1     -40.045  62.323 -58.865  1.00  0.00     0.014 A 
HETATM   33  C   UNL     1     -41.866  62.520 -60.407  1.00  0.00     0.042 A 
HETATM   34  C   UNL     1     -39.590  63.584 -59.278  1.00  0.00     0.001 A 
HETATM   35  C   UNL     1     -40.271  64.300 -60.255  1.00  0.00     0.002 A 
HETATM   36  C   UNL     1     -41.422  63.778 -60.840  1.00  0.00     0.030 A 
HETATM   37  N   UNL     1     -42.955  61.800 -60.828  1.00  0.00    -0.365 N 
HETATM   38  H   UNL     1     -43.600  62.104 -61.544  1.00  0.00     0.165 HD
HETATM   39  C   UNL     1     -43.018  60.617 -60.157  1.00  0.00     0.097 A 
ENDBRANCH  29  30
ENDBRANCH   1  29
TORSDOF 7
ENDMDL
MODEL 8
REMARK VINA RESULT:      -7.9      4.092      8.274
REMARK  7 active torsions:
REMARK  status: ('A' for Active; 'I' for Inactive)
REMARK    1  A    between atoms: C_8  and  C_9 
REMARK    2  A    between atoms: C_9  and  C_10 
REMARK       I    between atoms: C_10  and  N_11 
REMARK    3  A    between atoms: N_11  and  C_12 
REMARK    4  A    between atoms: N_11  and  C_27 
REMARK    5  A    between atoms: C_12  and  C_13 
REMARK    6  A    between atoms: C_12  and  C_22 
REMARK       I    between atoms: C_13  and  N_14 
REMARK    7  A    between atoms: N_14  and  C_15 
ROOT
HETATM    1  C   UNL     1     -42.599  59.780 -57.191  1.00  0.00     0.229 C 
HETATM    2  N   UNL     1     -43.460  58.733 -56.841  1.00  0.00    -0.299 N 
HETATM    3  O   UNL     1     -41.666  60.092 -56.445  1.00  0.00    -0.273 OA
ENDROOT
BRANCH   2   4
HETATM    4  C   UNL     1     -43.491  58.182 -55.453  1.00  0.00     0.225 C 
BRANCH   4   5
HETATM    5  C   UNL     1     -42.173  57.702 -54.773  1.00  0.00     0.246 C 
HETATM    6  N   UNL     1     -41.892  56.351 -54.818  1.00  0.00    -0.354 N 
HETATM    7  H   UNL     1     -42.198  55.880 -55.669  1.00  0.00     0.162 HD
HETATM    8  O   UNL     1     -41.430  58.492 -54.184  1.00  0.00    -0.271 OA
BRANCH   6   9
HETATM    9  C   UNL     1     -40.756  55.780 -54.103  1.00  0.00     0.084 C 
HETATM   10  C   UNL     1     -41.202  55.220 -52.746  1.00  0.00     0.025 C 
HETATM   11  C   UNL     1     -41.937  53.886 -52.860  1.00  0.00     0.002 C 
HETATM   12  C   UNL     1     -41.122  52.866 -53.648  1.00  0.00     0.000 C 
HETATM   13  C   UNL     1     -40.751  53.400 -55.027  1.00  0.00     0.002 C 
HETATM   14  C   UNL     1     -40.006  54.730 -54.934  1.00  0.00     0.025 C 
ENDBRANCH   6   9
ENDBRANCH   4   5
BRANCH   4  15
HETATM   15  C   UNL     1     -44.325  59.030 -54.514  1.00  0.00     0.015 A 
HETATM   16  S   UNL     1     -44.614  58.455 -52.912  1.00  0.00    -0.104 SA
HETATM   17  C   UNL     1     -45.534  59.828 -52.500  1.00  0.00     0.050 A 
HETATM   18  C   UNL     1     -45.631  60.715 -53.546  1.00  0.00     0.008 A 
HETATM   19  C   UNL     1     -44.927  60.262 -54.701  1.00  0.00     0.017 A 
ENDBRANCH   4  15
ENDBRANCH   2   4
BRANCH   2  20
HETATM   20  C   UNL     1     -44.197  57.984 -57.808  1.00  0.00     0.041 A 
HETATM   21  C   UNL     1     -43.537  57.055 -58.626  1.00  0.00     0.069 A 
HETATM   22  C   UNL     1     -44.284  56.366 -59.557  1.00  0.00     0.107 A 
HETATM   23  C   UNL     1     -45.634  56.577 -59.705  1.00  0.00     0.105 A 
HETATM   24  O   UNL     1     -43.808  55.425 -60.416  1.00  0.00    -0.323 OA
HETATM   25  O   UNL     1     -46.177  55.797 -60.676  1.00  0.00    -0.323 OA
HETATM   26  C   UNL     1     -46.314  57.492 -58.931  1.00  0.00     0.042 A 
HETATM   27  C   UNL     1     -45.013  55.074 -61.128  1.00  0.00     0.352 A 
HETATM   28  C   UNL     1     -45.584  58.206 -57.976  1.00  0.00     0.032 A 
ENDBRANCH   2  20
BRANCH   1  29
HETATM   29  C   UNL     1     -42.770  60.435 -58.562  1.00  0.00     0.144 C 
BRANCH  29  30
HETATM   30  C   UNL     1     -41.669  61.288 -59.142  1.00  0.00    -0.021 A 
HETATM   31  C   UNL     1     -41.371  61.748 -60.474  1.00  0.00    -0.001 A 
HETATM   32  C   UNL     1     -41.935  61.579 -61.757  1.00  0.00     0.014 A 
HETATM   33  C   UNL     1     -40.239  62.569 -60.389  1.00  0.00     0.042 A 
HETATM   34  C   UNL     1     -41.363  62.203 -62.876  1.00  0.00     0.001 A 
HETATM   35  C   UNL     1     -40.239  63.008 -62.742  1.00  0.00     0.002 A 
HETATM   36  C   UNL     1     -39.658  63.209 -61.493  1.00  0.00     0.030 A 
HETATM   37  N   UNL     1     -39.860  62.614 -59.071  1.00  0.00    -0.365 N 
HETATM   38  H   UNL     1     -39.076  63.146 -58.718  1.00  0.00     0.165 HD
HETATM   39  C   UNL     1     -40.705  61.857 -58.318  1.00  0.00     0.097 A 
ENDBRANCH  29  30
ENDBRANCH   1  29
TORSDOF 7
ENDMDL
MODEL 9
REMARK VINA RESULT:      -7.9      1.683      2.443
REMARK  7 active torsions:
REMARK  status: ('A' for Active; 'I' for Inactive)
REMARK    1  A    between atoms: C_8  and  C_9 
REMARK    2  A    between atoms: C_9  and  C_10 
REMARK       I    between atoms: C_10  and  N_11 
REMARK    3  A    between atoms: N_11  and  C_12 
REMARK    4  A    between atoms: N_11  and  C_27 
REMARK    5  A    between atoms: C_12  and  C_13 
REMARK    6  A    between atoms: C_12  and  C_22 
REMARK       I    between atoms: C_13  and  N_14 
REMARK    7  A    between atoms: N_14  and  C_15 
ROOT
HETATM    1  C   UNL     1     -43.638  56.559 -53.040  1.00  0.00     0.229 C 
HETATM    2  N   UNL     1     -43.673  57.793 -53.700  1.00  0.00    -0.299 N 
HETATM    3  O   UNL     1     -43.768  56.507 -51.813  1.00  0.00    -0.273 OA
ENDROOT
BRANCH   2   4
HETATM    4  C   UNL     1     -43.545  59.079 -52.952  1.00  0.00     0.225 C 
BRANCH   4   5
HETATM    5  C   UNL     1     -44.762  59.650 -52.163  1.00  0.00     0.246 C 
HETATM    6  N   UNL     1     -45.036  60.995 -52.306  1.00  0.00    -0.354 N 
HETATM    7  H   UNL     1     -44.838  61.374 -53.231  1.00  0.00     0.162 HD
HETATM    8  O   UNL     1     -45.430  58.935 -51.410  1.00  0.00    -0.271 OA
BRANCH   6   9
HETATM    9  C   UNL     1     -46.068  61.654 -51.514  1.00  0.00     0.084 C 
HETATM   10  C   UNL     1     -45.487  62.869 -50.778  1.00  0.00     0.025 C 
HETATM   11  C   UNL     1     -45.267  64.074 -51.690  1.00  0.00     0.002 C 
HETATM   12  C   UNL     1     -46.536  64.435 -52.453  1.00  0.00     0.000 C 
HETATM   13  C   UNL     1     -47.064  63.244 -53.246  1.00  0.00     0.002 C 
HETATM   14  C   UNL     1     -47.300  62.031 -52.349  1.00  0.00     0.025 C 
ENDBRANCH   6   9
ENDBRANCH   4   5
BRANCH   4  15
HETATM   15  C   UNL     1     -42.270  59.148 -52.136  1.00  0.00     0.015 A 
HETATM   16  S   UNL     1     -40.764  58.832 -52.921  1.00  0.00    -0.104 SA
HETATM   17  C   UNL     1     -39.876  59.082 -51.489  1.00  0.00     0.050 A 
HETATM   18  C   UNL     1     -40.690  59.397 -50.426  1.00  0.00     0.008 A 
HETATM   19  C   UNL     1     -42.066  59.446 -50.801  1.00  0.00     0.017 A 
ENDBRANCH   4  15
ENDBRANCH   2   4
BRANCH   2  20
HETATM   20  C   UNL     1     -44.044  57.922 -55.073  1.00  0.00     0.041 A 
HETATM   21  C   UNL     1     -45.398  57.949 -55.434  1.00  0.00     0.069 A 
HETATM   22  C   UNL     1     -45.711  58.059 -56.772  1.00  0.00     0.107 A 
HETATM   23  C   UNL     1     -44.739  58.130 -57.742  1.00  0.00     0.105 A 
HETATM   24  O   UNL     1     -46.967  58.112 -57.291  1.00  0.00    -0.323 OA
HETATM   25  O   UNL     1     -45.261  58.235 -58.991  1.00  0.00    -0.323 OA
HETATM   26  C   UNL     1     -43.398  58.091 -57.427  1.00  0.00     0.042 A 
HETATM   27  C   UNL     1     -46.674  58.216 -58.700  1.00  0.00     0.352 A 
HETATM   28  C   UNL     1     -43.049  57.981 -56.078  1.00  0.00     0.032 A 
ENDBRANCH   2  20
BRANCH   1  29
HETATM   29  C   UNL     1     -43.559  55.285 -53.881  1.00  0.00     0.144 C 
BRANCH  29  30
HETATM   30  C   UNL     1     -42.331  54.412 -53.830  1.00  0.00    -0.021 A 
HETATM   31  C   UNL     1     -41.628  53.753 -52.758  1.00  0.00    -0.001 A 
HETATM   32  C   UNL     1     -41.760  53.673 -51.355  1.00  0.00     0.014 A 
HETATM   33  C   UNL     1     -40.579  53.023 -53.333  1.00  0.00     0.042 A 
HETATM   34  C   UNL     1     -40.865  52.904 -50.597  1.00  0.00     0.001 A 
HETATM   35  C   UNL     1     -39.838  52.198 -51.211  1.00  0.00     0.002 A 
HETATM   36  C   UNL     1     -39.679  52.242 -52.593  1.00  0.00     0.030 A 
HETATM   37  N   UNL     1     -40.633  53.221 -54.689  1.00  0.00    -0.365 N 
HETATM   38  H   UNL     1     -40.000  52.801 -55.355  1.00  0.00     0.165 HD
HETATM   39  C   UNL     1     -41.674  54.044 -54.998  1.00  0.00     0.097 A 
ENDBRANCH  29  30
ENDBRANCH   1  29
TORSDOF 7
ENDMDL
MODEL 10
REMARK VINA RESULT:      -7.9      2.893      5.223
REMARK  7 active torsions:
REMARK  status: ('A' for Active; 'I' for Inactive)
REMARK    1  A    between atoms: C_8  and  C_9 
REMARK    2  A    between atoms: C_9  and  C_10 
REMARK       I    between atoms: C_10  and  N_11 
REMARK    3  A    between atoms: N_11  and  C_12 
REMARK    4  A    between atoms: N_11  and  C_27 
REMARK    5  A    between atoms: C_12  and  C_13 
REMARK    6  A    between atoms: C_12  and  C_22 
REMARK       I    between atoms: C_13  and  N_14 
REMARK    7  A    between atoms: N_14  and  C_15 
ROOT
HETATM    1  C   UNL     1     -42.480  60.337 -53.220  1.00  0.00     0.229 C 
HETATM    2  N   UNL     1     -43.154  59.711 -52.165  1.00  0.00    -0.299 N 
HETATM    3  O   UNL     1     -42.591  61.555 -53.391  1.00  0.00    -0.273 OA
ENDROOT
BRANCH   2   4
HETATM    4  C   UNL     1     -44.254  60.401 -51.426  1.00  0.00     0.225 C 
BRANCH   4   5
HETATM    5  C   UNL     1     -43.937  61.213 -50.134  1.00  0.00     0.246 C 
HETATM    6  N   UNL     1     -44.761  61.018 -49.043  1.00  0.00    -0.354 N 
HETATM    7  H   UNL     1     -45.116  60.069 -48.943  1.00  0.00     0.162 HD
HETATM    8  O   UNL     1     -43.011  62.029 -50.100  1.00  0.00    -0.271 OA
BRANCH   6   9
HETATM    9  C   UNL     1     -44.632  61.822 -47.833  1.00  0.00     0.084 C 
HETATM   10  C   UNL     1     -45.642  62.978 -47.846  1.00  0.00     0.025 C 
HETATM   11  C   UNL     1     -47.067  62.533 -47.528  1.00  0.00     0.002 C 
HETATM   12  C   UNL     1     -47.129  61.750 -46.221  1.00  0.00     0.000 C 
HETATM   13  C   UNL     1     -46.182  60.555 -46.247  1.00  0.00     0.002 C 
HETATM   14  C   UNL     1     -44.748  60.981 -46.554  1.00  0.00     0.025 C 
ENDBRANCH   6   9
ENDBRANCH   4   5
BRANCH   4  15
HETATM   15  C   UNL     1     -45.182  61.163 -52.350  1.00  0.00     0.015 A 
HETATM   16  S   UNL     1     -45.469  62.837 -52.041  1.00  0.00    -0.104 SA
HETATM   17  C   UNL     1     -46.510  62.987 -53.381  1.00  0.00     0.050 A 
HETATM   18  C   UNL     1     -46.650  61.798 -54.059  1.00  0.00     0.008 A 
HETATM   19  C   UNL     1     -45.877  60.752 -53.473  1.00  0.00     0.017 A 
ENDBRANCH   4  15
ENDBRANCH   2   4
BRANCH   2  20
HETATM   20  C   UNL     1     -42.710  58.483 -51.586  1.00  0.00     0.041 A 
HETATM   21  C   UNL     1     -43.553  57.363 -51.589  1.00  0.00     0.069 A 
HETATM   22  C   UNL     1     -43.091  56.203 -51.005  1.00  0.00     0.107 A 
HETATM   23  C   UNL     1     -41.848  56.128 -50.421  1.00  0.00     0.105 A 
HETATM   24  O   UNL     1     -43.769  55.027 -50.932  1.00  0.00    -0.323 OA
HETATM   25  O   UNL     1     -41.590  54.898 -49.907  1.00  0.00    -0.323 OA
HETATM   26  C   UNL     1     -40.999  57.212 -50.386  1.00  0.00     0.042 A 
HETATM   27  C   UNL     1     -42.815  54.205 -50.227  1.00  0.00     0.352 A 
HETATM   28  C   UNL     1     -41.439  58.404 -50.971  1.00  0.00     0.032 A 
ENDBRANCH   2  20
BRANCH   1  29
HETATM   29  C   UNL     1     -41.520  59.503 -54.068  1.00  0.00     0.144 C 
BRANCH  29  30
HETATM   30  C   UNL     1     -42.018  58.292 -54.817  1.00  0.00    -0.021 A 
HETATM   31  C   UNL     1     -41.707  56.887 -54.747  1.00  0.00    -0.001 A 
HETATM   32  C   UNL     1     -40.819  56.079 -54.004  1.00  0.00     0.014 A 
HETATM   33  C   UNL     1     -42.543  56.228 -55.658  1.00  0.00     0.042 A 
HETATM   34  C   UNL     1     -40.786  54.690 -54.198  1.00  0.00     0.001 A 
HETATM   35  C   UNL     1     -41.634  54.081 -55.115  1.00  0.00     0.002 A 
HETATM   36  C   UNL     1     -42.532  54.841 -55.860  1.00  0.00     0.030 A 
HETATM   37  N   UNL     1     -43.330  57.179 -56.258  1.00  0.00    -0.365 N 
HETATM   38  H   UNL     1     -44.037  56.982 -56.953  1.00  0.00     0.165 HD
HETATM   39  C   UNL     1     -43.029  58.411 -55.764  1.00  0.00     0.097 A 
ENDBRANCH  29  30
ENDBRANCH   1  29
TORSDOF 7
ENDMDL
