MODEL 1
REMARK VINA RESULT:      -8.2      0.000      0.000
REMARK  8 active torsions:
REMARK  status: ('A' for Active; 'I' for Inactive)
REMARK    1  A    between atoms: C_7  and  N_8 
REMARK    2  A    between atoms: C_9  and  S_10 
REMARK    3  A    between atoms: S_10  and  C_11 
REMARK    4  A    between atoms: C_11  and  C_12 
REMARK       I    between atoms: C_12  and  N_13 
REMARK    5  A    between atoms: N_13  and  C_14 
REMARK    6  A    between atoms: C_14  and  C_15 
REMARK    7  A    between atoms: C_15  and  C_16 
REMARK    8  A    between atoms: C_26  and  N_27 
ROOT
HETATM    1  N   UNL     1     -43.648  58.990 -52.227  1.00  0.00    -0.276 N 
HETATM    2  C   UNL     1     -43.547  59.207 -53.628  1.00  0.00     0.177 A 
HETATM    3  N   UNL     1     -44.176  60.134 -54.308  1.00  0.00    -0.204 NA
HETATM    4  C   UNL     1     -44.968  60.926 -53.557  1.00  0.00     0.162 A 
HETATM    5  C   UNL     1     -45.200  60.891 -52.209  1.00  0.00     0.081 A 
HETATM    6  C   UNL     1     -44.541  59.860 -51.465  1.00  0.00     0.124 A 
HETATM    7  N   UNL     1     -45.709  61.971 -54.023  1.00  0.00    -0.260 N 
HETATM    8  H   UNL     1     -45.789  62.300 -54.980  1.00  0.00     0.191 HD
HETATM    9  N   UNL     1     -46.388  62.613 -53.046  1.00  0.00    -0.177 NA
HETATM   10  C   UNL     1     -46.071  61.951 -51.922  1.00  0.00     0.068 A 
HETATM   11  C   UNL     1     -46.637  62.405 -50.629  1.00  0.00     0.073 C 
ENDROOT
BRANCH   2  12
HETATM   12  S   UNL     1     -42.446  58.210 -54.612  1.00  0.00    -0.082 SA
BRANCH  12  13
HETATM   13  C   UNL     1     -43.648  57.029 -55.299  1.00  0.00     0.185 C 
BRANCH  13  14
HETATM   14  C   UNL     1     -43.031  55.681 -55.619  1.00  0.00     0.227 C 
HETATM   15  N   UNL     1     -42.578  54.959 -54.535  1.00  0.00    -0.360 N 
HETATM   16  H   UNL     1     -42.655  55.387 -53.620  1.00  0.00     0.162 HD
HETATM   17  O   UNL     1     -42.865  55.319 -56.782  1.00  0.00    -0.273 OA
BRANCH  15  18
HETATM   18  C   UNL     1     -41.691  53.820 -54.696  1.00  0.00     0.127 C 
BRANCH  18  19
HETATM   19  C   UNL     1     -40.624  53.759 -53.604  1.00  0.00     0.058 C 
BRANCH  19  20
HETATM   20  C   UNL     1     -40.226  52.334 -53.304  1.00  0.00    -0.057 A 
HETATM   21  C   UNL     1     -40.280  51.356 -54.306  1.00  0.00     0.007 A 
HETATM   22  C   UNL     1     -39.952  50.030 -54.018  1.00  0.00     0.001 A 
HETATM   23  C   UNL     1     -39.571  49.669 -52.728  1.00  0.00     0.000 A 
HETATM   24  C   UNL     1     -39.515  50.633 -51.724  1.00  0.00     0.001 A 
HETATM   25  C   UNL     1     -39.842  51.960 -52.008  1.00  0.00     0.007 A 
ENDBRANCH  19  20
ENDBRANCH  18  19
ENDBRANCH  15  18
ENDBRANCH  13  14
ENDBRANCH  12  13
ENDBRANCH   2  12
BRANCH   1  26
HETATM   26  C   UNL     1     -42.895  57.979 -51.560  1.00  0.00     0.043 A 
HETATM   27  C   UNL     1     -41.618  58.241 -51.052  1.00  0.00     0.032 A 
HETATM   28  C   UNL     1     -40.864  57.215 -50.478  1.00  0.00     0.026 A 
HETATM   29  C   UNL     1     -41.369  55.915 -50.418  1.00  0.00     0.040 A 
HETATM   30  C   UNL     1     -42.644  55.622 -50.927  1.00  0.00    -0.038 A 
HETATM   31 CL   UNL     1     -40.373  54.690 -49.720  1.00  0.00    -0.084 Cl
HETATM   32  C   UNL     1     -43.213  54.231 -50.891  1.00  0.00     0.050 C 
HETATM   33  C   UNL     1     -43.397  56.666 -51.492  1.00  0.00     0.038 A 
ENDBRANCH   1  26
BRANCH   6  34
HETATM   34  N   UNL     1     -44.773  59.700 -50.176  1.00  0.00    -0.384 N 
HETATM   35  H   UNL     1     -44.023  59.573 -49.512  1.00  0.00     0.157 HD
HETATM   36  H   UNL     1     -45.720  59.741 -49.820  1.00  0.00     0.157 HD
ENDBRANCH   6  34
TORSDOF 8
ENDMDL
MODEL 2
REMARK VINA RESULT:      -8.1      4.921      6.991
REMARK  8 active torsions:
REMARK  status: ('A' for Active; 'I' for Inactive)
REMARK    1  A    between atoms: C_7  and  N_8 
REMARK    2  A    between atoms: C_9  and  S_10 
REMARK    3  A    between atoms: S_10  and  C_11 
REMARK    4  A    between atoms: C_11  and  C_12 
REMARK       I    between atoms: C_12  and  N_13 
REMARK    5  A    between atoms: N_13  and  C_14 
REMARK    6  A    between atoms: C_14  and  C_15 
REMARK    7  A    between atoms: C_15  and  C_16 
REMARK    8  A    between atoms: C_26  and  N_27 
ROOT
HETATM    1  N   UNL     1     -42.361  59.332 -58.749  1.00  0.00    -0.276 N 
HETATM    2  C   UNL     1     -42.127  59.795 -57.425  1.00  0.00     0.177 A 
HETATM    3  N   UNL     1     -41.536  60.918 -57.098  1.00  0.00    -0.204 NA
HETATM    4  C   UNL     1     -41.144  61.661 -58.154  1.00  0.00     0.162 A 
HETATM    5  C   UNL     1     -41.275  61.404 -59.491  1.00  0.00     0.081 A 
HETATM    6  C   UNL     1     -41.892  60.164 -59.854  1.00  0.00     0.124 A 
HETATM    7  N   UNL     1     -40.527  62.875 -58.079  1.00  0.00    -0.260 N 
HETATM    8  H   UNL     1     -40.262  63.388 -57.244  1.00  0.00     0.191 HD
HETATM    9  N   UNL     1     -40.272  63.412 -59.292  1.00  0.00    -0.177 NA
HETATM   10  C   UNL     1     -40.739  62.508 -60.168  1.00  0.00     0.068 A 
HETATM   11  C   UNL     1     -40.637  62.786 -61.621  1.00  0.00     0.073 C 
ENDROOT
BRANCH   2  12
HETATM   12  S   UNL     1     -42.710  58.851 -56.030  1.00  0.00    -0.082 SA
BRANCH  12  13
HETATM   13  C   UNL     1     -41.815  59.709 -54.698  1.00  0.00     0.185 C 
BRANCH  13  14
HETATM   14  C   UNL     1     -41.065  58.758 -53.785  1.00  0.00     0.227 C 
HETATM   15  N   UNL     1     -41.646  57.519 -53.607  1.00  0.00    -0.360 N 
HETATM   16  H   UNL     1     -42.535  57.348 -54.062  1.00  0.00     0.162 HD
HETATM   17  O   UNL     1     -40.062  59.121 -53.175  1.00  0.00    -0.273 OA
BRANCH  15  18
HETATM   18  C   UNL     1     -41.232  56.631 -52.534  1.00  0.00     0.127 C 
BRANCH  18  19
HETATM   19  C   UNL     1     -42.070  55.355 -52.484  1.00  0.00     0.058 C 
BRANCH  19  20
HETATM   20  C   UNL     1     -41.233  54.136 -52.789  1.00  0.00    -0.057 A 
HETATM   21  C   UNL     1     -41.101  53.677 -54.107  1.00  0.00     0.007 A 
HETATM   22  C   UNL     1     -40.362  52.526 -54.384  1.00  0.00     0.001 A 
HETATM   23  C   UNL     1     -39.751  51.823 -53.349  1.00  0.00     0.000 A 
HETATM   24  C   UNL     1     -39.877  52.269 -52.035  1.00  0.00     0.001 A 
HETATM   25  C   UNL     1     -40.615  53.420 -51.755  1.00  0.00     0.007 A 
ENDBRANCH  19  20
ENDBRANCH  18  19
ENDBRANCH  15  18
ENDBRANCH  13  14
ENDBRANCH  12  13
ENDBRANCH   2  12
BRANCH   1  26
HETATM   26  C   UNL     1     -43.049  58.112 -59.014  1.00  0.00     0.043 A 
HETATM   27  C   UNL     1     -42.352  56.926 -59.271  1.00  0.00     0.032 A 
HETATM   28  C   UNL     1     -43.044  55.762 -59.613  1.00  0.00     0.026 A 
HETATM   29  C   UNL     1     -44.437  55.772 -59.716  1.00  0.00     0.040 A 
HETATM   30  C   UNL     1     -45.160  56.949 -59.471  1.00  0.00    -0.038 A 
HETATM   31 CL   UNL     1     -45.227  54.305 -60.169  1.00  0.00    -0.084 Cl
HETATM   32  C   UNL     1     -46.659  56.998 -59.586  1.00  0.00     0.050 C 
HETATM   33  C   UNL     1     -44.452  58.111 -59.117  1.00  0.00     0.038 A 
ENDBRANCH   1  26
BRANCH   6  34
HETATM   34  N   UNL     1     -41.984  59.797 -61.119  1.00  0.00    -0.384 N 
HETATM   35  H   UNL     1     -42.785  59.293 -61.470  1.00  0.00     0.157 HD
HETATM   36  H   UNL     1     -41.258  60.053 -61.776  1.00  0.00     0.157 HD
ENDBRANCH   6  34
TORSDOF 8
ENDMDL
MODEL 3
REMARK VINA RESULT:      -7.8      3.079      5.877
REMARK  8 active torsions:
REMARK  status: ('A' for Active; 'I' for Inactive)
REMARK    1  A    between atoms: C_7  and  N_8 
REMARK    2  A    between atoms: C_9  and  S_10 
REMARK    3  A    between atoms: S_10  and  C_11 
REMARK    4  A    between atoms: C_11  and  C_12 
REMARK       I    between atoms: C_12  and  N_13 
REMARK    5  A    between atoms: N_13  and  C_14 
REMARK    6  A    between atoms: C_14  and  C_15 
REMARK    7  A    between atoms: C_15  and  C_16 
REMARK    8  A    between atoms: C_26  and  N_27 
ROOT
HETATM    1  N   UNL     1     -42.738  57.501 -55.959  1.00  0.00    -0.276 N 
HETATM    2  C   UNL     1     -43.051  56.123 -56.113  1.00  0.00     0.177 A 
HETATM    3  N   UNL     1     -43.129  55.477 -57.250  1.00  0.00    -0.204 NA
HETATM    4  C   UNL     1     -42.873  56.238 -58.335  1.00  0.00     0.162 A 
HETATM    5  C   UNL     1     -42.551  57.565 -58.405  1.00  0.00     0.081 A 
HETATM    6  C   UNL     1     -42.496  58.284 -57.168  1.00  0.00     0.124 A 
HETATM    7  N   UNL     1     -42.871  55.797 -59.625  1.00  0.00    -0.260 N 
HETATM    8  H   UNL     1     -43.067  54.861 -59.964  1.00  0.00     0.191 HD
HETATM    9  N   UNL     1     -42.552  56.766 -60.512  1.00  0.00    -0.177 NA
HETATM   10  C   UNL     1     -42.347  57.860 -59.760  1.00  0.00     0.068 A 
HETATM   11  C   UNL     1     -41.956  59.130 -60.418  1.00  0.00     0.073 C 
ENDROOT
BRANCH   2  12
HETATM   12  S   UNL     1     -43.316  55.099 -54.679  1.00  0.00    -0.082 SA
BRANCH  12  13
HETATM   13  C   UNL     1     -42.280  53.674 -55.136  1.00  0.00     0.185 C 
BRANCH  13  14
HETATM   14  C   UNL     1     -40.985  53.613 -54.350  1.00  0.00     0.227 C 
HETATM   15  N   UNL     1     -40.898  52.596 -53.422  1.00  0.00    -0.360 N 
HETATM   16  H   UNL     1     -41.704  51.994 -53.307  1.00  0.00     0.162 HD
HETATM   17  O   UNL     1     -40.124  54.481 -54.477  1.00  0.00    -0.273 OA
BRANCH  15  18
HETATM   18  C   UNL     1     -39.878  52.596 -52.387  1.00  0.00     0.127 C 
BRANCH  18  19
HETATM   19  C   UNL     1     -40.475  52.732 -50.987  1.00  0.00     0.058 C 
BRANCH  19  20
HETATM   20  C   UNL     1     -41.339  53.964 -50.875  1.00  0.00    -0.057 A 
HETATM   21  C   UNL     1     -40.772  55.201 -50.539  1.00  0.00     0.007 A 
HETATM   22  C   UNL     1     -41.576  56.333 -50.395  1.00  0.00     0.001 A 
HETATM   23  C   UNL     1     -42.953  56.238 -50.582  1.00  0.00     0.000 A 
HETATM   24  C   UNL     1     -43.529  55.014 -50.915  1.00  0.00     0.001 A 
HETATM   25  C   UNL     1     -42.726  53.880 -51.060  1.00  0.00     0.007 A 
ENDBRANCH  19  20
ENDBRANCH  18  19
ENDBRANCH  15  18
ENDBRANCH  13  14
ENDBRANCH  12  13
ENDBRANCH   2  12
BRANCH   1  26
HETATM   26  C   UNL     1     -42.636  58.116 -54.676  1.00  0.00     0.043 A 
HETATM   27  C   UNL     1     -43.751  58.688 -54.053  1.00  0.00     0.032 A 
HETATM   28  C   UNL     1     -43.611  59.360 -52.837  1.00  0.00     0.026 A 
HETATM   29  C   UNL     1     -42.357  59.481 -52.236  1.00  0.00     0.040 A 
HETATM   30  C   UNL     1     -41.220  58.924 -52.843  1.00  0.00    -0.038 A 
HETATM   31 CL   UNL     1     -42.252  60.347 -50.747  1.00  0.00    -0.084 Cl
HETATM   32  C   UNL     1     -39.852  59.048 -52.230  1.00  0.00     0.050 C 
HETATM   33  C   UNL     1     -41.376  58.241 -54.062  1.00  0.00     0.038 A 
ENDBRANCH   1  26
BRANCH   6  34
HETATM   34  N   UNL     1     -42.276  59.586 -57.149  1.00  0.00    -0.384 N 
HETATM   35  H   UNL     1     -42.242  60.133 -57.997  1.00  0.00     0.157 HD
HETATM   36  H   UNL     1     -42.176  60.071 -56.266  1.00  0.00     0.157 HD
ENDBRANCH   6  34
TORSDOF 8
ENDMDL
MODEL 4
REMARK VINA RESULT:      -7.8      3.007      5.199
REMARK  8 active torsions:
REMARK  status: ('A' for Active; 'I' for Inactive)
REMARK    1  A    between atoms: C_7  and  N_8 
REMARK    2  A    between atoms: C_9  and  S_10 
REMARK    3  A    between atoms: S_10  and  C_11 
REMARK    4  A    between atoms: C_11  and  C_12 
REMARK       I    between atoms: C_12  and  N_13 
REMARK    5  A    between atoms: N_13  and  C_14 
REMARK    6  A    between atoms: C_14  and  C_15 
REMARK    7  A    between atoms: C_15  and  C_16 
REMARK    8  A    between atoms: C_26  and  N_27 
ROOT
HETATM    1  N   UNL     1     -43.105  57.597 -55.881  1.00  0.00    -0.276 N 
HETATM    2  C   UNL     1     -42.594  56.274 -55.977  1.00  0.00     0.177 A 
HETATM    3  N   UNL     1     -42.608  55.522 -57.051  1.00  0.00    -0.204 NA
HETATM    4  C   UNL     1     -43.162  56.114 -58.130  1.00  0.00     0.162 A 
HETATM    5  C   UNL     1     -43.701  57.365 -58.251  1.00  0.00     0.081 A 
HETATM    6  C   UNL     1     -43.717  58.179 -57.073  1.00  0.00     0.124 A 
HETATM    7  N   UNL     1     -43.277  55.550 -59.366  1.00  0.00    -0.260 N 
HETATM    8  H   UNL     1     -42.985  54.623 -59.657  1.00  0.00     0.191 HD
HETATM    9  N   UNL     1     -43.845  56.377 -60.272  1.00  0.00    -0.177 NA
HETATM   10  C   UNL     1     -44.103  57.503 -59.587  1.00  0.00     0.068 A 
HETATM   11  C   UNL     1     -44.724  58.653 -60.288  1.00  0.00     0.073 C 
ENDROOT
BRANCH   2  12
HETATM   12  S   UNL     1     -41.796  55.518 -54.575  1.00  0.00    -0.082 SA
BRANCH  12  13
HETATM   13  C   UNL     1     -43.247  54.751 -53.787  1.00  0.00     0.185 C 
BRANCH  13  14
HETATM   14  C   UNL     1     -42.965  54.273 -52.375  1.00  0.00     0.227 C 
HETATM   15  N   UNL     1     -41.637  54.263 -52.002  1.00  0.00    -0.360 N 
HETATM   16  H   UNL     1     -40.952  54.537 -52.696  1.00  0.00     0.162 HD
HETATM   17  O   UNL     1     -43.866  53.834 -51.663  1.00  0.00    -0.273 OA
BRANCH  15  18
HETATM   18  C   UNL     1     -41.183  53.545 -50.824  1.00  0.00     0.127 C 
BRANCH  18  19
HETATM   19  C   UNL     1     -39.792  52.942 -51.014  1.00  0.00     0.058 C 
BRANCH  19  20
HETATM   20  C   UNL     1     -39.811  51.827 -52.030  1.00  0.00    -0.057 A 
HETATM   21  C   UNL     1     -39.580  50.502 -51.635  1.00  0.00     0.007 A 
HETATM   22  C   UNL     1     -39.556  49.475 -52.580  1.00  0.00     0.001 A 
HETATM   23  C   UNL     1     -39.759  49.763 -53.928  1.00  0.00     0.000 A 
HETATM   24  C   UNL     1     -39.988  51.076 -54.332  1.00  0.00     0.001 A 
HETATM   25  C   UNL     1     -40.013  52.105 -53.389  1.00  0.00     0.007 A 
ENDBRANCH  19  20
ENDBRANCH  18  19
ENDBRANCH  15  18
ENDBRANCH  13  14
ENDBRANCH  12  13
ENDBRANCH   2  12
BRANCH   1  26
HETATM   26  C   UNL     1     -43.013  58.360 -54.680  1.00  0.00     0.043 A 
HETATM   27  C   UNL     1     -41.899  59.165 -54.415  1.00  0.00     0.032 A 
HETATM   28  C   UNL     1     -41.790  59.837 -53.195  1.00  0.00     0.026 A 
HETATM   29  C   UNL     1     -42.782  59.702 -52.222  1.00  0.00     0.040 A 
HETATM   30  C   UNL     1     -43.906  58.895 -52.459  1.00  0.00    -0.038 A 
HETATM   31 CL   UNL     1     -42.571  60.539 -50.727  1.00  0.00    -0.084 Cl
HETATM   32  C   UNL     1     -44.986  58.716 -51.428  1.00  0.00     0.050 C 
HETATM   33  C   UNL     1     -44.009  58.233 -53.695  1.00  0.00     0.038 A 
ENDBRANCH   1  26
BRANCH   6  34
HETATM   34  N   UNL     1     -44.293  59.367 -57.077  1.00  0.00    -0.384 N 
HETATM   35  H   UNL     1     -43.755  60.220 -57.116  1.00  0.00     0.157 HD
HETATM   36  H   UNL     1     -45.303  59.442 -57.082  1.00  0.00     0.157 HD
ENDBRANCH   6  34
TORSDOF 8
ENDMDL
MODEL 5
REMARK VINA RESULT:      -7.5      2.081      2.539
REMARK  8 active torsions:
REMARK  status: ('A' for Active; 'I' for Inactive)
REMARK    1  A    between atoms: C_7  and  N_8 
REMARK    2  A    between atoms: C_9  and  S_10 
REMARK    3  A    between atoms: S_10  and  C_11 
REMARK    4  A    between atoms: C_11  and  C_12 
REMARK       I    between atoms: C_12  and  N_13 
REMARK    5  A    between atoms: N_13  and  C_14 
REMARK    6  A    between atoms: C_14  and  C_15 
REMARK    7  A    between atoms: C_15  and  C_16 
REMARK    8  A    between atoms: C_26  and  N_27 
ROOT
HETATM    1  N   UNL     1     -43.496  60.195 -52.078  1.00  0.00    -0.276 N 
HETATM    2  C   UNL     1     -43.641  60.637 -53.421  1.00  0.00     0.177 A 
HETATM    3  N   UNL     1     -43.597  61.883 -53.828  1.00  0.00    -0.204 NA
HETATM    4  C   UNL     1     -43.384  62.777 -52.840  1.00  0.00     0.162 A 
HETATM    5  C   UNL     1     -43.215  62.563 -51.500  1.00  0.00     0.081 A 
HETATM    6  C   UNL     1     -43.294  61.208 -51.045  1.00  0.00     0.124 A 
HETATM    7  N   UNL     1     -43.277  64.126 -53.007  1.00  0.00    -0.260 N 
HETATM    8  H   UNL     1     -43.351  64.654 -53.870  1.00  0.00     0.191 HD
HETATM    9  N   UNL     1     -43.034  64.782 -51.850  1.00  0.00    -0.177 NA
HETATM   10  C   UNL     1     -42.989  63.818 -50.917  1.00  0.00     0.068 A 
HETATM   11  C   UNL     1     -42.718  64.187 -49.506  1.00  0.00     0.073 C 
ENDROOT
BRANCH   2  12
HETATM   12  S   UNL     1     -43.848  59.454 -54.737  1.00  0.00    -0.082 SA
BRANCH  12  13
HETATM   13  C   UNL     1     -42.110  58.969 -54.975  1.00  0.00     0.185 C 
BRANCH  13  14
HETATM   14  C   UNL     1     -41.944  57.485 -55.239  1.00  0.00     0.227 C 
HETATM   15  N   UNL     1     -41.422  56.748 -54.196  1.00  0.00    -0.360 N 
HETATM   16  H   UNL     1     -41.158  57.246 -53.355  1.00  0.00     0.162 HD
HETATM   17  O   UNL     1     -42.172  57.008 -56.349  1.00  0.00    -0.273 OA
BRANCH  15  18
HETATM   18  C   UNL     1     -40.912  55.402 -54.396  1.00  0.00     0.127 C 
BRANCH  18  19
HETATM   19  C   UNL     1     -41.788  54.346 -53.725  1.00  0.00     0.058 C 
BRANCH  19  20
HETATM   20  C   UNL     1     -40.978  53.143 -53.310  1.00  0.00    -0.057 A 
HETATM   21  C   UNL     1     -40.548  53.000 -51.984  1.00  0.00     0.007 A 
HETATM   22  C   UNL     1     -39.763  51.908 -51.608  1.00  0.00     0.001 A 
HETATM   23  C   UNL     1     -39.398  50.953 -52.553  1.00  0.00     0.000 A 
HETATM   24  C   UNL     1     -39.818  51.086 -53.875  1.00  0.00     0.001 A 
HETATM   25  C   UNL     1     -40.604  52.176 -54.253  1.00  0.00     0.007 A 
ENDBRANCH  19  20
ENDBRANCH  18  19
ENDBRANCH  15  18
ENDBRANCH  13  14
ENDBRANCH  12  13
ENDBRANCH   2  12
BRANCH   1  26
HETATM   26  C   UNL     1     -43.518  58.813 -51.729  1.00  0.00     0.043 A 
HETATM   27  C   UNL     1     -44.721  58.100 -51.662  1.00  0.00     0.032 A 
HETATM   28  C   UNL     1     -44.729  56.770 -51.235  1.00  0.00     0.026 A 
HETATM   29  C   UNL     1     -43.540  56.142 -50.857  1.00  0.00     0.040 A 
HETATM   30  C   UNL     1     -42.321  56.835 -50.908  1.00  0.00    -0.038 A 
HETATM   31 CL   UNL     1     -43.626  54.505 -50.315  1.00  0.00    -0.084 Cl
HETATM   32  C   UNL     1     -41.025  56.193 -50.496  1.00  0.00     0.050 C 
HETATM   33  C   UNL     1     -42.326  58.170 -51.350  1.00  0.00     0.038 A 
ENDBRANCH   1  26
BRANCH   6  34
HETATM   34  N   UNL     1     -43.226  60.919 -49.759  1.00  0.00    -0.384 N 
HETATM   35  H   UNL     1     -44.041  60.642 -49.232  1.00  0.00     0.157 HD
HETATM   36  H   UNL     1     -42.333  60.932 -49.281  1.00  0.00     0.157 HD
ENDBRANCH   6  34
TORSDOF 8
ENDMDL
MODEL 6
REMARK VINA RESULT:      -7.4      2.729      4.028
REMARK  8 active torsions:
REMARK  status: ('A' for Active; 'I' for Inactive)
REMARK    1  A    between atoms: C_7  and  N_8 
REMARK    2  A    between atoms: C_9  and  S_10 
REMARK    3  A    between atoms: S_10  and  C_11 
REMARK    4  A    between atoms: C_11  and  C_12 
REMARK       I    between atoms: C_12  and  N_13 
REMARK    5  A    between atoms: N_13  and  C_14 
REMARK    6  A    between atoms: C_14  and  C_15 
REMARK    7  A    between atoms: C_15  and  C_16 
REMARK    8  A    between atoms: C_26  and  N_27 
ROOT
HETATM    1  N   UNL     1     -43.375  59.383 -55.032  1.00  0.00    -0.276 N 
HETATM    2  C   UNL     1     -44.410  58.410 -55.097  1.00  0.00     0.177 A 
HETATM    3  N   UNL     1     -45.237  58.235 -56.098  1.00  0.00    -0.204 NA
HETATM    4  C   UNL     1     -45.034  59.077 -57.133  1.00  0.00     0.162 A 
HETATM    5  C   UNL     1     -44.103  60.069 -57.273  1.00  0.00     0.081 A 
HETATM    6  C   UNL     1     -43.217  60.286 -56.169  1.00  0.00     0.124 A 
HETATM    7  N   UNL     1     -45.746  59.084 -58.296  1.00  0.00    -0.260 N 
HETATM    8  H   UNL     1     -46.524  58.485 -58.553  1.00  0.00     0.191 HD
HETATM    9  N   UNL     1     -45.311  60.015 -59.175  1.00  0.00    -0.177 NA
HETATM   10  C   UNL     1     -44.291  60.622 -58.548  1.00  0.00     0.068 A 
HETATM   11  C   UNL     1     -43.555  61.706 -59.242  1.00  0.00     0.073 C 
ENDROOT
BRANCH   2  12
HETATM   12  S   UNL     1     -44.632  57.249 -53.764  1.00  0.00    -0.082 SA
BRANCH  12  13
HETATM   13  C   UNL     1     -43.986  55.749 -54.567  1.00  0.00     0.185 C 
BRANCH  13  14
HETATM   14  C   UNL     1     -42.982  55.007 -53.706  1.00  0.00     0.227 C 
HETATM   15  N   UNL     1     -41.656  55.293 -53.955  1.00  0.00    -0.360 N 
HETATM   16  H   UNL     1     -41.447  55.939 -54.706  1.00  0.00     0.162 HD
HETATM   17  O   UNL     1     -43.344  54.139 -52.914  1.00  0.00    -0.273 OA
BRANCH  15  18
HETATM   18  C   UNL     1     -40.587  54.447 -53.450  1.00  0.00     0.127 C 
BRANCH  18  19
HETATM   19  C   UNL     1     -40.261  53.297 -54.402  1.00  0.00     0.058 C 
BRANCH  19  20
HETATM   20  C   UNL     1     -39.990  52.019 -53.647  1.00  0.00    -0.057 A 
HETATM   21  C   UNL     1     -39.988  50.787 -54.314  1.00  0.00     0.007 A 
HETATM   22  C   UNL     1     -39.779  49.600 -53.610  1.00  0.00     0.001 A 
HETATM   23  C   UNL     1     -39.572  49.634 -52.233  1.00  0.00     0.000 A 
HETATM   24  C   UNL     1     -39.572  50.853 -51.558  1.00  0.00     0.001 A 
HETATM   25  C   UNL     1     -39.782  52.041 -52.261  1.00  0.00     0.007 A 
ENDBRANCH  19  20
ENDBRANCH  18  19
ENDBRANCH  15  18
ENDBRANCH  13  14
ENDBRANCH  12  13
ENDBRANCH   2  12
BRANCH   1  26
HETATM   26  C   UNL     1     -42.493  59.478 -53.916  1.00  0.00     0.043 A 
HETATM   27  C   UNL     1     -41.273  58.791 -53.894  1.00  0.00     0.032 A 
HETATM   28  C   UNL     1     -40.463  58.830 -52.756  1.00  0.00     0.026 A 
HETATM   29  C   UNL     1     -40.868  59.541 -51.625  1.00  0.00     0.040 A 
HETATM   30  C   UNL     1     -42.089  60.232 -51.617  1.00  0.00    -0.038 A 
HETATM   31 CL   UNL     1     -39.831  59.525 -50.244  1.00  0.00    -0.084 Cl
HETATM   32  C   UNL     1     -42.561  60.997 -50.411  1.00  0.00     0.050 C 
HETATM   33  C   UNL     1     -42.889  60.194 -52.772  1.00  0.00     0.038 A 
ENDBRANCH   1  26
BRANCH   6  34
HETATM   34  N   UNL     1     -42.344  61.276 -56.184  1.00  0.00    -0.384 N 
HETATM   35  H   UNL     1     -41.968  61.642 -57.047  1.00  0.00     0.157 HD
HETATM   36  H   UNL     1     -42.061  61.718 -55.318  1.00  0.00     0.157 HD
ENDBRANCH   6  34
TORSDOF 8
ENDMDL
MODEL 7
REMARK VINA RESULT:      -7.3     17.100     19.681
REMARK  8 active torsions:
REMARK  status: ('A' for Active; 'I' for Inactive)
REMARK    1  A    between atoms: C_7  and  N_8 
REMARK    2  A    between atoms: C_9  and  S_10 
REMARK    3  A    between atoms: S_10  and  C_11 
REMARK    4  A    between atoms: C_11  and  C_12 
REMARK       I    between atoms: C_12  and  N_13 
REMARK    5  A    between atoms: N_13  and  C_14 
REMARK    6  A    between atoms: C_14  and  C_15 
REMARK    7  A    between atoms: C_15  and  C_16 
REMARK    8  A    between atoms: C_26  and  N_27 
ROOT
HETATM    1  N   UNL     1     -33.280  39.698 -52.288  1.00  0.00    -0.276 N 
HETATM    2  C   UNL     1     -34.284  40.635 -52.656  1.00  0.00     0.177 A 
HETATM    3  N   UNL     1     -34.480  41.117 -53.859  1.00  0.00    -0.204 NA
HETATM    4  C   UNL     1     -33.628  40.638 -54.789  1.00  0.00     0.162 A 
HETATM    5  C   UNL     1     -32.607  39.738 -54.648  1.00  0.00     0.081 A 
HETATM    6  C   UNL     1     -32.367  39.233 -53.330  1.00  0.00     0.124 A 
HETATM    7  N   UNL     1     -33.638  40.967 -56.112  1.00  0.00    -0.260 N 
HETATM    8  H   UNL     1     -34.260  41.612 -56.589  1.00  0.00     0.191 HD
HETATM    9  N   UNL     1     -32.692  40.316 -56.825  1.00  0.00    -0.177 NA
HETATM   10  C   UNL     1     -32.055  39.551 -55.923  1.00  0.00     0.068 A 
HETATM   11  C   UNL     1     -30.947  38.673 -56.369  1.00  0.00     0.073 C 
ENDROOT
BRANCH   2  12
HETATM   12  S   UNL     1     -35.457  41.213 -51.445  1.00  0.00    -0.082 SA
BRANCH  12  13
HETATM   13  C   UNL     1     -36.847  40.102 -51.827  1.00  0.00     0.185 C 
BRANCH  13  14
HETATM   14  C   UNL     1     -37.841  40.715 -52.795  1.00  0.00     0.227 C 
HETATM   15  N   UNL     1     -37.526  40.590 -54.132  1.00  0.00    -0.360 N 
HETATM   16  H   UNL     1     -36.651  40.138 -54.368  1.00  0.00     0.162 HD
HETATM   17  O   UNL     1     -38.805  41.362 -52.390  1.00  0.00    -0.273 OA
BRANCH  15  18
HETATM   18  C   UNL     1     -38.194  41.386 -55.148  1.00  0.00     0.127 C 
BRANCH  18  19
HETATM   19  C   UNL     1     -37.205  42.040 -56.112  1.00  0.00     0.058 C 
BRANCH  19  20
HETATM   20  C   UNL     1     -37.329  41.463 -57.501  1.00  0.00    -0.057 A 
HETATM   21  C   UNL     1     -37.068  42.257 -58.626  1.00  0.00     0.007 A 
HETATM   22  C   UNL     1     -37.223  41.737 -59.912  1.00  0.00     0.001 A 
HETATM   23  C   UNL     1     -37.644  40.420 -60.085  1.00  0.00     0.000 A 
HETATM   24  C   UNL     1     -37.908  39.622 -58.974  1.00  0.00     0.001 A 
HETATM   25  C   UNL     1     -37.753  40.140 -57.687  1.00  0.00     0.007 A 
ENDBRANCH  19  20
ENDBRANCH  18  19
ENDBRANCH  15  18
ENDBRANCH  13  14
ENDBRANCH  12  13
ENDBRANCH   2  12
BRANCH   1  26
HETATM   26  C   UNL     1     -33.162  39.196 -50.959  1.00  0.00     0.043 A 
HETATM   27  C   UNL     1     -33.985  38.162 -50.497  1.00  0.00     0.032 A 
HETATM   28  C   UNL     1     -33.912  37.744 -49.166  1.00  0.00     0.026 A 
HETATM   29  C   UNL     1     -33.027  38.361 -48.279  1.00  0.00     0.040 A 
HETATM   30  C   UNL     1     -32.196  39.405 -48.713  1.00  0.00    -0.038 A 
HETATM   31 CL   UNL     1     -33.007  37.812 -46.643  1.00  0.00    -0.084 Cl
HETATM   32  C   UNL     1     -31.242  40.100 -47.781  1.00  0.00     0.050 C 
HETATM   33  C   UNL     1     -32.272  39.809 -50.058  1.00  0.00     0.038 A 
ENDBRANCH   1  26
BRANCH   6  34
HETATM   34  N   UNL     1     -31.351  38.426 -53.087  1.00  0.00    -0.384 N 
HETATM   35  H   UNL     1     -30.396  38.751 -53.111  1.00  0.00     0.157 HD
HETATM   36  H   UNL     1     -31.518  37.462 -52.828  1.00  0.00     0.157 HD
ENDBRANCH   6  34
TORSDOF 8
ENDMDL
MODEL 8
REMARK VINA RESULT:      -7.3     16.987     19.765
REMARK  8 active torsions:
REMARK  status: ('A' for Active; 'I' for Inactive)
REMARK    1  A    between atoms: C_7  and  N_8 
REMARK    2  A    between atoms: C_9  and  S_10 
REMARK    3  A    between atoms: S_10  and  C_11 
REMARK    4  A    between atoms: C_11  and  C_12 
REMARK       I    between atoms: C_12  and  N_13 
REMARK    5  A    between atoms: N_13  and  C_14 
REMARK    6  A    between atoms: C_14  and  C_15 
REMARK    7  A    between atoms: C_15  and  C_16 
REMARK    8  A    between atoms: C_26  and  N_27 
ROOT
HETATM    1  N   UNL     1     -34.938  39.839 -57.116  1.00  0.00    -0.276 N 
HETATM    2  C   UNL     1     -35.590  41.099 -57.197  1.00  0.00     0.177 A 
HETATM    3  N   UNL     1     -36.358  41.503 -58.179  1.00  0.00    -0.204 NA
HETATM    4  C   UNL     1     -36.511  40.597 -59.167  1.00  0.00     0.162 A 
HETATM    5  C   UNL     1     -35.983  39.341 -59.280  1.00  0.00     0.081 A 
HETATM    6  C   UNL     1     -35.117  38.906 -58.225  1.00  0.00     0.124 A 
HETATM    7  N   UNL     1     -37.274  40.769 -60.284  1.00  0.00    -0.260 N 
HETATM    8  H   UNL     1     -37.819  41.584 -60.547  1.00  0.00     0.191 HD
HETATM    9  N   UNL     1     -37.273  39.688 -61.095  1.00  0.00    -0.177 NA
HETATM   10  C   UNL     1     -36.480  38.800 -60.474  1.00  0.00     0.068 A 
HETATM   11  C   UNL     1     -36.262  37.467 -61.087  1.00  0.00     0.073 C 
ENDROOT
BRANCH   2  12
HETATM   12  S   UNL     1     -35.450  42.269 -55.860  1.00  0.00    -0.082 SA
BRANCH  12  13
HETATM   13  C   UNL     1     -36.776  41.646 -54.781  1.00  0.00     0.185 C 
BRANCH  13  14
HETATM   14  C   UNL     1     -36.500  41.889 -53.310  1.00  0.00     0.227 C 
HETATM   15  N   UNL     1     -35.170  42.010 -52.964  1.00  0.00    -0.360 N 
HETATM   16  H   UNL     1     -34.482  41.894 -53.698  1.00  0.00     0.162 HD
HETATM   17  O   UNL     1     -37.410  41.875 -52.483  1.00  0.00    -0.273 OA
BRANCH  15  18
HETATM   18  C   UNL     1     -34.733  41.923 -51.581  1.00  0.00     0.127 C 
BRANCH  18  19
HETATM   19  C   UNL     1     -33.394  41.201 -51.443  1.00  0.00     0.058 C 
BRANCH  19  20
HETATM   20  C   UNL     1     -33.414  40.223 -50.293  1.00  0.00    -0.057 A 
HETATM   21  C   UNL     1     -32.263  40.009 -49.523  1.00  0.00     0.007 A 
HETATM   22  C   UNL     1     -32.268  39.074 -48.486  1.00  0.00     0.001 A 
HETATM   23  C   UNL     1     -33.422  38.344 -48.212  1.00  0.00     0.000 A 
HETATM   24  C   UNL     1     -34.572  38.547 -48.971  1.00  0.00     0.001 A 
HETATM   25  C   UNL     1     -34.569  39.482 -50.009  1.00  0.00     0.007 A 
ENDBRANCH  19  20
ENDBRANCH  18  19
ENDBRANCH  15  18
ENDBRANCH  13  14
ENDBRANCH  12  13
ENDBRANCH   2  12
BRANCH   1  26
HETATM   26  C   UNL     1     -34.150  39.465 -55.988  1.00  0.00     0.043 A 
HETATM   27  C   UNL     1     -32.796  39.810 -55.901  1.00  0.00     0.032 A 
HETATM   28  C   UNL     1     -32.021  39.362 -54.829  1.00  0.00     0.026 A 
HETATM   29  C   UNL     1     -32.585  38.552 -53.840  1.00  0.00     0.040 A 
HETATM   30  C   UNL     1     -33.937  38.184 -53.906  1.00  0.00    -0.038 A 
HETATM   31 CL   UNL     1     -31.564  38.011 -52.558  1.00  0.00    -0.084 Cl
HETATM   32  C   UNL     1     -34.572  37.303 -52.866  1.00  0.00     0.050 C 
HETATM   33  C   UNL     1     -34.708  38.652 -54.985  1.00  0.00     0.038 A 
ENDBRANCH   1  26
BRANCH   6  34
HETATM   34  N   UNL     1     -34.497  37.743 -58.293  1.00  0.00    -0.384 N 
HETATM   35  H   UNL     1     -33.573  37.608 -57.908  1.00  0.00     0.157 HD
HETATM   36  H   UNL     1     -34.961  36.942 -58.704  1.00  0.00     0.157 HD
ENDBRANCH   6  34
TORSDOF 8
ENDMDL
MODEL 9
REMARK VINA RESULT:      -7.2      3.832      8.566
REMARK  8 active torsions:
REMARK  status: ('A' for Active; 'I' for Inactive)
REMARK    1  A    between atoms: C_7  and  N_8 
REMARK    2  A    between atoms: C_9  and  S_10 
REMARK    3  A    between atoms: S_10  and  C_11 
REMARK    4  A    between atoms: C_11  and  C_12 
REMARK       I    between atoms: C_12  and  N_13 
REMARK    5  A    between atoms: N_13  and  C_14 
REMARK    6  A    between atoms: C_14  and  C_15 
REMARK    7  A    between atoms: C_15  and  C_16 
REMARK    8  A    between atoms: C_26  and  N_27 
ROOT
HETATM    1  N   UNL     1     -42.553  55.424 -54.963  1.00  0.00    -0.276 N 
HETATM    2  C   UNL     1     -43.506  55.774 -53.968  1.00  0.00     0.177 A 
HETATM    3  N   UNL     1     -43.524  55.333 -52.734  1.00  0.00    -0.204 NA
HETATM    4  C   UNL     1     -42.520  54.481 -52.439  1.00  0.00     0.162 A 
HETATM    5  C   UNL     1     -41.509  54.024 -53.238  1.00  0.00     0.081 A 
HETATM    6  C   UNL     1     -41.502  54.477 -54.597  1.00  0.00     0.124 A 
HETATM    7  N   UNL     1     -42.309  53.902 -51.223  1.00  0.00    -0.260 N 
HETATM    8  H   UNL     1     -42.861  54.007 -50.378  1.00  0.00     0.191 HD
HETATM    9  N   UNL     1     -41.211  53.114 -51.198  1.00  0.00    -0.177 NA
HETATM   10  C   UNL     1     -40.711  53.191 -52.442  1.00  0.00     0.068 A 
HETATM   11  C   UNL     1     -39.471  52.447 -52.773  1.00  0.00     0.073 C 
ENDROOT
BRANCH   2  12
HETATM   12  S   UNL     1     -44.789  56.955 -54.333  1.00  0.00    -0.082 SA
BRANCH  12  13
HETATM   13  C   UNL     1     -44.041  58.442 -53.595  1.00  0.00     0.185 C 
BRANCH  13  14
HETATM   14  C   UNL     1     -44.353  59.705 -54.374  1.00  0.00     0.227 C 
HETATM   15  N   UNL     1     -45.486  59.658 -55.159  1.00  0.00    -0.360 N 
HETATM   16  H   UNL     1     -46.002  58.787 -55.188  1.00  0.00     0.162 HD
HETATM   17  O   UNL     1     -43.580  60.661 -54.368  1.00  0.00    -0.273 OA
BRANCH  15  18
HETATM   18  C   UNL     1     -45.739  60.649 -56.191  1.00  0.00     0.127 C 
BRANCH  18  19
HETATM   19  C   UNL     1     -44.927  60.384 -57.458  1.00  0.00     0.058 C 
BRANCH  19  20
HETATM   20  C   UNL     1     -45.664  59.466 -58.402  1.00  0.00    -0.057 A 
HETATM   21  C   UNL     1     -46.142  58.226 -57.957  1.00  0.00     0.007 A 
HETATM   22  C   UNL     1     -46.787  57.358 -58.839  1.00  0.00     0.001 A 
HETATM   23  C   UNL     1     -46.958  57.720 -60.173  1.00  0.00     0.000 A 
HETATM   24  C   UNL     1     -46.486  58.950 -60.627  1.00  0.00     0.001 A 
HETATM   25  C   UNL     1     -45.841  59.820 -59.747  1.00  0.00     0.007 A 
ENDBRANCH  19  20
ENDBRANCH  18  19
ENDBRANCH  15  18
ENDBRANCH  13  14
ENDBRANCH  12  13
ENDBRANCH   2  12
BRANCH   1  26
HETATM   26  C   UNL     1     -42.585  55.983 -56.274  1.00  0.00     0.043 A 
HETATM   27  C   UNL     1     -42.108  57.275 -56.524  1.00  0.00     0.032 A 
HETATM   28  C   UNL     1     -42.228  57.835 -57.799  1.00  0.00     0.026 A 
HETATM   29  C   UNL     1     -42.836  57.119 -58.831  1.00  0.00     0.040 A 
HETATM   30  C   UNL     1     -43.330  55.825 -58.606  1.00  0.00    -0.038 A 
HETATM   31 CL   UNL     1     -42.974  57.882 -60.374  1.00  0.00    -0.084 Cl
HETATM   32  C   UNL     1     -44.003  55.032 -59.692  1.00  0.00     0.050 C 
HETATM   33  C   UNL     1     -43.194  55.269 -57.322  1.00  0.00     0.038 A 
ENDBRANCH   1  26
BRANCH   6  34
HETATM   34  N   UNL     1     -40.614  54.021 -55.460  1.00  0.00    -0.384 N 
HETATM   35  H   UNL     1     -39.673  53.786 -55.181  1.00  0.00     0.157 HD
HETATM   36  H   UNL     1     -40.878  53.859 -56.424  1.00  0.00     0.157 HD
ENDBRANCH   6  34
TORSDOF 8
ENDMDL
MODEL 10
REMARK VINA RESULT:      -7.2      2.701      4.986
REMARK  8 active torsions:
REMARK  status: ('A' for Active; 'I' for Inactive)
REMARK    1  A    between atoms: C_7  and  N_8 
REMARK    2  A    between atoms: C_9  and  S_10 
REMARK    3  A    between atoms: S_10  and  C_11 
REMARK    4  A    between atoms: C_11  and  C_12 
REMARK       I    between atoms: C_12  and  N_13 
REMARK    5  A    between atoms: N_13  and  C_14 
REMARK    6  A    between atoms: C_14  and  C_15 
REMARK    7  A    between atoms: C_15  and  C_16 
REMARK    8  A    between atoms: C_26  and  N_27 
ROOT
HETATM    1  N   UNL     1     -43.284  58.516 -54.224  1.00  0.00    -0.276 N 
HETATM    2  C   UNL     1     -43.739  57.217 -53.867  1.00  0.00     0.177 A 
HETATM    3  N   UNL     1     -43.829  56.188 -54.673  1.00  0.00    -0.204 NA
HETATM    4  C   UNL     1     -43.433  56.442 -55.937  1.00  0.00     0.162 A 
HETATM    5  C   UNL     1     -42.963  57.606 -56.481  1.00  0.00     0.081 A 
HETATM    6  C   UNL     1     -42.893  58.743 -55.614  1.00  0.00     0.124 A 
HETATM    7  N   UNL     1     -43.413  55.535 -56.955  1.00  0.00    -0.260 N 
HETATM    8  H   UNL     1     -43.694  54.560 -56.926  1.00  0.00     0.191 HD
HETATM    9  N   UNL     1     -42.942  56.051 -58.112  1.00  0.00    -0.177 NA
HETATM   10  C   UNL     1     -42.657  57.331 -57.821  1.00  0.00     0.068 A 
HETATM   11  C   UNL     1     -42.093  58.207 -58.876  1.00  0.00     0.073 C 
ENDROOT
BRANCH   2  12
HETATM   12  S   UNL     1     -44.191  56.859 -52.181  1.00  0.00    -0.082 SA
BRANCH  12  13
HETATM   13  C   UNL     1     -43.453  55.203 -52.022  1.00  0.00     0.185 C 
BRANCH  13  14
HETATM   14  C   UNL     1     -41.979  55.179 -52.379  1.00  0.00     0.227 C 
HETATM   15  N   UNL     1     -41.664  54.562 -53.571  1.00  0.00    -0.360 N 
HETATM   16  H   UNL     1     -42.421  54.144 -54.099  1.00  0.00     0.162 HD
HETATM   17  O   UNL     1     -41.130  55.599 -51.596  1.00  0.00    -0.273 OA
BRANCH  15  18
HETATM   18  C   UNL     1     -40.300  54.179 -53.893  1.00  0.00     0.127 C 
BRANCH  18  19
HETATM   19  C   UNL     1     -40.222  52.789 -54.522  1.00  0.00     0.058 C 
BRANCH  19  20
HETATM   20  C   UNL     1     -39.937  51.732 -53.484  1.00  0.00    -0.057 A 
HETATM   21  C   UNL     1     -39.748  50.396 -53.864  1.00  0.00     0.007 A 
HETATM   22  C   UNL     1     -39.526  49.411 -52.901  1.00  0.00     0.001 A 
HETATM   23  C   UNL     1     -39.495  49.749 -51.550  1.00  0.00     0.000 A 
HETATM   24  C   UNL     1     -39.683  51.074 -51.160  1.00  0.00     0.001 A 
HETATM   25  C   UNL     1     -39.905  52.062 -52.121  1.00  0.00     0.007 A 
ENDBRANCH  19  20
ENDBRANCH  18  19
ENDBRANCH  15  18
ENDBRANCH  13  14
ENDBRANCH  12  13
ENDBRANCH   2  12
BRANCH   1  26
HETATM   26  C   UNL     1     -43.180  59.572 -53.271  1.00  0.00     0.043 A 
HETATM   27  C   UNL     1     -42.066  59.686 -52.432  1.00  0.00     0.032 A 
HETATM   28  C   UNL     1     -42.024  60.677 -51.448  1.00  0.00     0.026 A 
HETATM   29  C   UNL     1     -43.098  61.554 -51.282  1.00  0.00     0.040 A 
HETATM   30  C   UNL     1     -44.230  61.457 -52.105  1.00  0.00    -0.038 A 
HETATM   31 CL   UNL     1     -42.991  62.737 -50.029  1.00  0.00    -0.084 Cl
HETATM   32  C   UNL     1     -45.409  62.377 -51.944  1.00  0.00     0.050 C 
HETATM   33  C   UNL     1     -44.255  60.463 -53.098  1.00  0.00     0.038 A 
ENDBRANCH   1  26
BRANCH   6  34
HETATM   34  N   UNL     1     -42.531  59.926 -56.074  1.00  0.00    -0.384 N 
HETATM   35  H   UNL     1     -43.030  60.380 -56.825  1.00  0.00     0.157 HD
HETATM   36  H   UNL     1     -41.759  60.423 -55.647  1.00  0.00     0.157 HD
ENDBRANCH   6  34
TORSDOF 8
ENDMDL
