MODEL 1
REMARK VINA RESULT:      -8.5      0.000      0.000
REMARK  9 active torsions:
REMARK  status: ('A' for Active; 'I' for Inactive)
REMARK    1  A    between atoms: C_4  and  C_5 
REMARK    2  A    between atoms: C_11  and  C_12 
REMARK    3  A    between atoms: C_15  and  C_16 
REMARK    4  A    between atoms: C_16  and  N_17 
REMARK    5  A    between atoms: N_17  and  C_18 
REMARK    6  A    between atoms: C_18  and  N_19 
REMARK    7  A    between atoms: N_19  and  C_20 
REMARK    8  A    between atoms: C_22  and  C_23 
REMARK    9  A    between atoms: C_23  and  O_24 
ROOT
HETATM    1  C   UNL     1     -41.756  56.348 -52.594  1.00  0.00     0.067 C 
HETATM    2  C   UNL     1     -43.307  56.345 -52.708  1.00  0.00     0.001 C 
HETATM    3  C   UNL     1     -43.762  55.769 -54.067  1.00  0.00     0.040 C 
HETATM    4  C   UNL     1     -43.271  56.655 -55.223  1.00  0.00     0.206 C 
HETATM    5  N   UNL     1     -42.301  57.686 -54.635  1.00  0.00    -0.065 N 
HETATM    6  H   UNL     1     -41.879  58.213 -55.413  1.00  0.00     0.280 HD
HETATM    7  C   UNL     1     -41.171  57.061 -53.834  1.00  0.00     0.246 C 
HETATM    8  C   UNL     1     -43.772  57.819 -52.656  1.00  0.00     0.033 C 
HETATM    9  C   UNL     1     -43.078  58.644 -53.748  1.00  0.00     0.236 C 
ENDROOT
BRANCH   4  10
HETATM   10  C   UNL     1     -42.681  55.908 -56.437  1.00  0.00     0.155 C 
BRANCH  10  11
HETATM   11  N   UNL     1     -43.636  55.606 -57.499  1.00  0.00    -0.365 N 
HETATM   12  H   UNL     1     -44.618  55.717 -57.275  1.00  0.00     0.161 HD
BRANCH  11  13
HETATM   13  C   UNL     1     -43.382  55.704 -58.841  1.00  0.00     0.172 C 
HETATM   14  S   UNL     1     -44.412  55.142 -60.026  1.00  0.00    -0.041 SA
BRANCH  13  15
HETATM   15  N   UNL     1     -42.273  56.423 -59.199  1.00  0.00    -0.333 N 
HETATM   16  H   UNL     1     -41.419  55.873 -59.245  1.00  0.00     0.168 HD
BRANCH  15  17
HETATM   17  C   UNL     1     -42.116  57.816 -59.392  1.00  0.00     0.035 A 
HETATM   18  C   UNL     1     -41.945  58.715 -58.340  1.00  0.00     0.047 A 
HETATM   19  C   UNL     1     -41.858  60.094 -58.572  1.00  0.00     0.041 A 
HETATM   20  C   UNL     1     -41.869  60.577 -59.879  1.00  0.00     0.018 A 
HETATM   21  C   UNL     1     -41.969  59.676 -60.944  1.00  0.00     0.003 A 
HETATM   22  C   UNL     1     -42.088  58.302 -60.700  1.00  0.00     0.029 A 
BRANCH  19  23
HETATM   23  C   UNL     1     -41.795  60.975 -57.379  1.00  0.00     0.293 C 
HETATM   24  O   UNL     1     -41.714  60.532 -56.242  1.00  0.00    -0.259 OA
BRANCH  23  25
HETATM   25  O   UNL     1     -41.815  62.277 -57.740  1.00  0.00    -0.323 OA
HETATM   26  C   UNL     1     -42.913  63.015 -57.199  1.00  0.00     0.213 C 
ENDBRANCH  23  25
ENDBRANCH  19  23
ENDBRANCH  15  17
ENDBRANCH  13  15
ENDBRANCH  11  13
ENDBRANCH  10  11
ENDBRANCH   4  10
BRANCH   1  27
HETATM   27  C   UNL     1     -41.136  54.998 -52.348  1.00  0.00     0.038 A 
HETATM   28  N   UNL     1     -40.738  54.560 -51.099  1.00  0.00    -0.277 N 
HETATM   29  C   UNL     1     -40.839  55.244 -49.828  1.00  0.00     0.179 C 
HETATM   30  N   UNL     1     -40.200  53.334 -51.107  1.00  0.00    -0.170 NA
HETATM   31  C   UNL     1     -40.352  52.907 -52.362  1.00  0.00     0.112 A 
HETATM   32  C   UNL     1     -40.911  53.913 -53.178  1.00  0.00     0.063 A 
BRANCH  31  33
HETATM   33  C   UNL     1     -39.997  51.529 -52.802  1.00  0.00     0.105 A 
HETATM   34  O   UNL     1     -39.646  50.509 -51.957  1.00  0.00    -0.320 OA
HETATM   35  C   UNL     1     -39.351  49.432 -52.731  1.00  0.00     0.142 A 
HETATM   36  C   UNL     1     -39.513  49.733 -54.062  1.00  0.00     0.027 A 
HETATM   37  C   UNL     1     -39.935  51.083 -54.109  1.00  0.00     0.041 A 
ENDBRANCH  31  33
ENDBRANCH   1  27
TORSDOF 9
ENDMDL
MODEL 2
REMARK VINA RESULT:      -8.3      2.804      3.806
REMARK  9 active torsions:
REMARK  status: ('A' for Active; 'I' for Inactive)
REMARK    1  A    between atoms: C_4  and  C_5 
REMARK    2  A    between atoms: C_11  and  C_12 
REMARK    3  A    between atoms: C_15  and  C_16 
REMARK    4  A    between atoms: C_16  and  N_17 
REMARK    5  A    between atoms: N_17  and  C_18 
REMARK    6  A    between atoms: C_18  and  N_19 
REMARK    7  A    between atoms: N_19  and  C_20 
REMARK    8  A    between atoms: C_22  and  C_23 
REMARK    9  A    between atoms: C_23  and  O_24 
ROOT
HETATM    1  C   UNL     1     -41.521  56.525 -51.881  1.00  0.00     0.067 C 
HETATM    2  C   UNL     1     -43.055  56.691 -51.695  1.00  0.00     0.001 C 
HETATM    3  C   UNL     1     -43.815  56.297 -52.982  1.00  0.00     0.040 C 
HETATM    4  C   UNL     1     -43.441  57.234 -54.141  1.00  0.00     0.206 C 
HETATM    5  N   UNL     1     -42.266  58.100 -53.674  1.00  0.00    -0.065 N 
HETATM    6  H   UNL     1     -41.933  58.653 -54.476  1.00  0.00     0.280 HD
HETATM    7  C   UNL     1     -41.091  57.290 -53.153  1.00  0.00     0.246 C 
HETATM    8  C   UNL     1     -43.327  58.192 -51.446  1.00  0.00     0.033 C 
HETATM    9  C   UNL     1     -42.750  59.043 -52.585  1.00  0.00     0.236 C 
ENDROOT
BRANCH   4  10
HETATM   10  C   UNL     1     -43.175  56.550 -55.497  1.00  0.00     0.155 C 
BRANCH  10  11
HETATM   11  N   UNL     1     -42.166  57.200 -56.328  1.00  0.00    -0.365 N 
HETATM   12  H   UNL     1     -41.249  56.770 -56.356  1.00  0.00     0.161 HD
BRANCH  11  13
HETATM   13  C   UNL     1     -42.427  57.966 -57.433  1.00  0.00     0.172 C 
HETATM   14  S   UNL     1     -42.521  59.631 -57.411  1.00  0.00    -0.041 SA
BRANCH  13  15
HETATM   15  N   UNL     1     -42.482  57.305 -58.631  1.00  0.00    -0.333 N 
HETATM   16  H   UNL     1     -41.682  57.473 -59.236  1.00  0.00     0.168 HD
BRANCH  15  17
HETATM   17  C   UNL     1     -43.524  56.533 -59.197  1.00  0.00     0.035 A 
HETATM   18  C   UNL     1     -44.646  57.098 -59.805  1.00  0.00     0.047 A 
HETATM   19  C   UNL     1     -45.685  56.296 -60.295  1.00  0.00     0.041 A 
HETATM   20  C   UNL     1     -45.571  54.908 -60.241  1.00  0.00     0.018 A 
HETATM   21  C   UNL     1     -44.419  54.333 -59.697  1.00  0.00     0.003 A 
HETATM   22  C   UNL     1     -43.399  55.142 -59.181  1.00  0.00     0.029 A 
BRANCH  19  23
HETATM   23  C   UNL     1     -46.885  56.996 -60.817  1.00  0.00     0.293 C 
HETATM   24  O   UNL     1     -47.204  58.116 -60.443  1.00  0.00    -0.259 OA
BRANCH  23  25
HETATM   25  O   UNL     1     -47.518  56.241 -61.742  1.00  0.00    -0.323 OA
HETATM   26  C   UNL     1     -48.641  56.884 -62.349  1.00  0.00     0.213 C 
ENDBRANCH  23  25
ENDBRANCH  19  23
ENDBRANCH  15  17
ENDBRANCH  13  15
ENDBRANCH  11  13
ENDBRANCH  10  11
ENDBRANCH   4  10
BRANCH   1  27
HETATM   27  C   UNL     1     -41.029  55.102 -51.859  1.00  0.00     0.038 A 
HETATM   28  N   UNL     1     -40.794  54.395 -50.694  1.00  0.00    -0.277 N 
HETATM   29  C   UNL     1     -40.974  54.827 -49.325  1.00  0.00     0.179 C 
HETATM   30  N   UNL     1     -40.350  53.150 -50.903  1.00  0.00    -0.170 NA
HETATM   31  C   UNL     1     -40.404  52.990 -52.227  1.00  0.00     0.112 A 
HETATM   32  C   UNL     1     -40.801  54.182 -52.869  1.00  0.00     0.063 A 
BRANCH  31  33
HETATM   33  C   UNL     1     -40.107  51.696 -52.903  1.00  0.00     0.105 A 
HETATM   34  O   UNL     1     -39.590  50.593 -52.278  1.00  0.00    -0.320 OA
HETATM   35  C   UNL     1     -39.420  49.637 -53.229  1.00  0.00     0.142 A 
HETATM   36  C   UNL     1     -39.825  50.099 -54.458  1.00  0.00     0.027 A 
HETATM   37  C   UNL     1     -40.276  51.424 -54.248  1.00  0.00     0.041 A 
ENDBRANCH  31  33
ENDBRANCH   1  27
TORSDOF 9
ENDMDL
MODEL 3
REMARK VINA RESULT:      -8.0      1.421      2.059
REMARK  9 active torsions:
REMARK  status: ('A' for Active; 'I' for Inactive)
REMARK    1  A    between atoms: C_4  and  C_5 
REMARK    2  A    between atoms: C_11  and  C_12 
REMARK    3  A    between atoms: C_15  and  C_16 
REMARK    4  A    between atoms: C_16  and  N_17 
REMARK    5  A    between atoms: N_17  and  C_18 
REMARK    6  A    between atoms: C_18  and  N_19 
REMARK    7  A    between atoms: N_19  and  C_20 
REMARK    8  A    between atoms: C_22  and  C_23 
REMARK    9  A    between atoms: C_23  and  O_24 
ROOT
HETATM    1  C   UNL     1     -41.588  56.370 -52.392  1.00  0.00     0.067 C 
HETATM    2  C   UNL     1     -43.139  56.459 -52.461  1.00  0.00     0.001 C 
HETATM    3  C   UNL     1     -43.664  55.945 -53.820  1.00  0.00     0.040 C 
HETATM    4  C   UNL     1     -43.153  56.830 -54.968  1.00  0.00     0.206 C 
HETATM    5  N   UNL     1     -42.109  57.788 -54.383  1.00  0.00    -0.065 N 
HETATM    6  H   UNL     1     -41.677  58.309 -55.160  1.00  0.00     0.280 HD
HETATM    7  C   UNL     1     -40.996  57.078 -53.630  1.00  0.00     0.246 C 
HETATM    8  C   UNL     1     -43.516  57.955 -52.361  1.00  0.00     0.033 C 
HETATM    9  C   UNL     1     -42.804  58.766 -53.452  1.00  0.00     0.236 C 
ENDROOT
BRANCH   4  10
HETATM   10  C   UNL     1     -42.641  56.081 -56.216  1.00  0.00     0.155 C 
BRANCH  10  11
HETATM   11  N   UNL     1     -43.575  56.038 -57.336  1.00  0.00    -0.365 N 
HETATM   12  H   UNL     1     -44.559  56.137 -57.114  1.00  0.00     0.161 HD
BRANCH  11  13
HETATM   13  C   UNL     1     -43.282  56.400 -58.624  1.00  0.00     0.172 C 
HETATM   14  S   UNL     1     -44.280  56.097 -59.925  1.00  0.00    -0.041 SA
BRANCH  13  15
HETATM   15  N   UNL     1     -42.159  57.163 -58.800  1.00  0.00    -0.333 N 
HETATM   16  H   UNL     1     -41.287  56.645 -58.719  1.00  0.00     0.168 HD
BRANCH  15  17
HETATM   17  C   UNL     1     -42.026  58.563 -58.954  1.00  0.00     0.035 A 
HETATM   18  C   UNL     1     -42.078  59.200 -60.194  1.00  0.00     0.047 A 
HETATM   19  C   UNL     1     -41.878  60.582 -60.306  1.00  0.00     0.041 A 
HETATM   20  C   UNL     1     -41.694  61.350 -59.158  1.00  0.00     0.018 A 
HETATM   21  C   UNL     1     -41.711  60.729 -57.906  1.00  0.00     0.003 A 
HETATM   22  C   UNL     1     -41.881  59.343 -57.805  1.00  0.00     0.029 A 
BRANCH  19  23
HETATM   23  C   UNL     1     -41.835  61.146 -61.679  1.00  0.00     0.293 C 
HETATM   24  O   UNL     1     -42.629  60.813 -62.548  1.00  0.00    -0.259 OA
BRANCH  23  25
HETATM   25  O   UNL     1     -40.845  62.058 -61.794  1.00  0.00    -0.323 OA
HETATM   26  C   UNL     1     -41.056  63.018 -62.832  1.00  0.00     0.213 C 
ENDBRANCH  23  25
ENDBRANCH  19  23
ENDBRANCH  15  17
ENDBRANCH  13  15
ENDBRANCH  11  13
ENDBRANCH  10  11
ENDBRANCH   4  10
BRANCH   1  27
HETATM   27  C   UNL     1     -41.041  54.980 -52.195  1.00  0.00     0.038 A 
HETATM   28  N   UNL     1     -40.747  54.446 -50.954  1.00  0.00    -0.277 N 
HETATM   29  C   UNL     1     -40.907  55.052 -49.650  1.00  0.00     0.179 C 
HETATM   30  N   UNL     1     -40.261  53.200 -51.008  1.00  0.00    -0.170 NA
HETATM   31  C   UNL     1     -40.344  52.861 -52.296  1.00  0.00     0.112 A 
HETATM   32  C   UNL     1     -40.805  53.941 -53.079  1.00  0.00     0.063 A 
BRANCH  31  33
HETATM   33  C   UNL     1     -40.016  51.499 -52.802  1.00  0.00     0.105 A 
HETATM   34  O   UNL     1     -39.668  50.437 -52.010  1.00  0.00    -0.320 OA
HETATM   35  C   UNL     1     -39.401  49.392 -52.835  1.00  0.00     0.142 A 
HETATM   36  C   UNL     1     -39.577  49.754 -54.148  1.00  0.00     0.027 A 
HETATM   37  C   UNL     1     -39.980  51.111 -54.129  1.00  0.00     0.041 A 
ENDBRANCH  31  33
ENDBRANCH   1  27
TORSDOF 9
ENDMDL
MODEL 4
REMARK VINA RESULT:      -7.9      2.619      7.779
REMARK  9 active torsions:
REMARK  status: ('A' for Active; 'I' for Inactive)
REMARK    1  A    between atoms: C_4  and  C_5 
REMARK    2  A    between atoms: C_11  and  C_12 
REMARK    3  A    between atoms: C_15  and  C_16 
REMARK    4  A    between atoms: C_16  and  N_17 
REMARK    5  A    between atoms: N_17  and  C_18 
REMARK    6  A    between atoms: C_18  and  N_19 
REMARK    7  A    between atoms: N_19  and  C_20 
REMARK    8  A    between atoms: C_22  and  C_23 
REMARK    9  A    between atoms: C_23  and  O_24 
ROOT
HETATM    1  C   UNL     1     -42.812  59.609 -57.599  1.00  0.00     0.067 C 
HETATM    2  C   UNL     1     -44.277  59.174 -57.884  1.00  0.00     0.001 C 
HETATM    3  C   UNL     1     -44.521  57.717 -57.431  1.00  0.00     0.040 C 
HETATM    4  C   UNL     1     -43.643  56.745 -58.236  1.00  0.00     0.206 C 
HETATM    5  N   UNL     1     -42.658  57.585 -59.058  1.00  0.00    -0.065 N 
HETATM    6  H   UNL     1     -41.991  56.946 -59.514  1.00  0.00     0.280 HD
HETATM    7  C   UNL     1     -41.856  58.565 -58.218  1.00  0.00     0.246 C 
HETATM    8  C   UNL     1     -44.476  59.216 -59.417  1.00  0.00     0.033 C 
HETATM    9  C   UNL     1     -43.428  58.346 -60.123  1.00  0.00     0.236 C 
ENDROOT
BRANCH   4  10
HETATM   10  C   UNL     1     -42.944  55.639 -57.419  1.00  0.00     0.155 C 
BRANCH  10  11
HETATM   11  N   UNL     1     -43.530  55.378 -56.107  1.00  0.00    -0.365 N 
HETATM   12  H   UNL     1     -44.180  54.604 -56.043  1.00  0.00     0.161 HD
BRANCH  11  13
HETATM   13  C   UNL     1     -42.946  55.683 -54.907  1.00  0.00     0.172 C 
HETATM   14  S   UNL     1     -43.773  56.315 -53.603  1.00  0.00    -0.041 SA
BRANCH  13  15
HETATM   15  N   UNL     1     -41.634  55.319 -54.758  1.00  0.00    -0.333 N 
HETATM   16  H   UNL     1     -40.989  55.840 -55.347  1.00  0.00     0.168 HD
BRANCH  15  17
HETATM   17  C   UNL     1     -41.064  54.261 -54.013  1.00  0.00     0.035 A 
HETATM   18  C   UNL     1     -41.049  54.235 -52.618  1.00  0.00     0.047 A 
HETATM   19  C   UNL     1     -40.416  53.199 -51.919  1.00  0.00     0.041 A 
HETATM   20  C   UNL     1     -39.853  52.135 -52.622  1.00  0.00     0.018 A 
HETATM   21  C   UNL     1     -39.926  52.117 -54.018  1.00  0.00     0.003 A 
HETATM   22  C   UNL     1     -40.532  53.174 -54.708  1.00  0.00     0.029 A 
BRANCH  19  23
HETATM   23  C   UNL     1     -40.353  53.323 -50.442  1.00  0.00     0.293 C 
HETATM   24  O   UNL     1     -40.372  52.349 -49.702  1.00  0.00    -0.259 OA
BRANCH  23  25
HETATM   25  O   UNL     1     -40.251  54.619 -50.071  1.00  0.00    -0.323 OA
HETATM   26  C   UNL     1     -41.190  55.013 -49.068  1.00  0.00     0.213 C 
ENDBRANCH  23  25
ENDBRANCH  19  23
ENDBRANCH  15  17
ENDBRANCH  13  15
ENDBRANCH  11  13
ENDBRANCH  10  11
ENDBRANCH   4  10
BRANCH   1  27
HETATM   27  C   UNL     1     -42.506  59.898 -56.153  1.00  0.00     0.038 A 
HETATM   28  N   UNL     1     -42.876  61.068 -55.515  1.00  0.00    -0.277 N 
HETATM   29  C   UNL     1     -43.610  62.194 -56.051  1.00  0.00     0.179 C 
HETATM   30  N   UNL     1     -42.495  61.124 -54.234  1.00  0.00    -0.170 NA
HETATM   31  C   UNL     1     -41.968  59.923 -53.986  1.00  0.00     0.112 A 
HETATM   32  C   UNL     1     -41.933  59.131 -55.153  1.00  0.00     0.063 A 
BRANCH  31  33
HETATM   33  C   UNL     1     -41.514  59.497 -52.632  1.00  0.00     0.105 A 
HETATM   34  O   UNL     1     -41.810  60.156 -51.469  1.00  0.00    -0.320 OA
HETATM   35  C   UNL     1     -41.184  59.493 -50.462  1.00  0.00     0.142 A 
HETATM   36  C   UNL     1     -40.494  58.411 -50.951  1.00  0.00     0.027 A 
HETATM   37  C   UNL     1     -40.710  58.408 -52.350  1.00  0.00     0.041 A 
ENDBRANCH  31  33
ENDBRANCH   1  27
TORSDOF 9
ENDMDL
MODEL 5
REMARK VINA RESULT:      -7.9      1.895      2.215
REMARK  9 active torsions:
REMARK  status: ('A' for Active; 'I' for Inactive)
REMARK    1  A    between atoms: C_4  and  C_5 
REMARK    2  A    between atoms: C_11  and  C_12 
REMARK    3  A    between atoms: C_15  and  C_16 
REMARK    4  A    between atoms: C_16  and  N_17 
REMARK    5  A    between atoms: N_17  and  C_18 
REMARK    6  A    between atoms: C_18  and  N_19 
REMARK    7  A    between atoms: N_19  and  C_20 
REMARK    8  A    between atoms: C_22  and  C_23 
REMARK    9  A    between atoms: C_23  and  O_24 
ROOT
HETATM    1  C   UNL     1     -41.889  56.455 -52.679  1.00  0.00     0.067 C 
HETATM    2  C   UNL     1     -43.434  56.427 -52.849  1.00  0.00     0.001 C 
HETATM    3  C   UNL     1     -43.828  55.894 -54.245  1.00  0.00     0.040 C 
HETATM    4  C   UNL     1     -43.313  56.832 -55.348  1.00  0.00     0.206 C 
HETATM    5  N   UNL     1     -42.386  57.858 -54.687  1.00  0.00    -0.065 N 
HETATM    6  H   UNL     1     -41.946  58.422 -55.429  1.00  0.00     0.280 HD
HETATM    7  C   UNL     1     -41.273  57.225 -53.868  1.00  0.00     0.246 C 
HETATM    8  C   UNL     1     -43.931  57.889 -52.761  1.00  0.00     0.033 C 
HETATM    9  C   UNL     1     -43.214  58.767 -53.794  1.00  0.00     0.236 C 
ENDROOT
BRANCH   4  10
HETATM   10  C   UNL     1     -42.665  56.142 -56.566  1.00  0.00     0.155 C 
BRANCH  10  11
HETATM   11  N   UNL     1     -43.601  55.493 -57.478  1.00  0.00    -0.365 N 
HETATM   12  H   UNL     1     -44.553  55.377 -57.150  1.00  0.00     0.161 HD
BRANCH  11  13
HETATM   13  C   UNL     1     -43.508  55.501 -58.844  1.00  0.00     0.172 C 
HETATM   14  S   UNL     1     -44.498  54.612 -59.850  1.00  0.00    -0.041 SA
BRANCH  13  15
HETATM   15  N   UNL     1     -42.627  56.397 -59.388  1.00  0.00    -0.333 N 
HETATM   16  H   UNL     1     -41.653  56.109 -59.332  1.00  0.00     0.168 HD
BRANCH  15  17
HETATM   17  C   UNL     1     -42.852  57.697 -59.898  1.00  0.00     0.035 A 
HETATM   18  C   UNL     1     -44.079  58.352 -59.797  1.00  0.00     0.047 A 
HETATM   19  C   UNL     1     -44.277  59.613 -60.373  1.00  0.00     0.041 A 
HETATM   20  C   UNL     1     -43.213  60.262 -60.998  1.00  0.00     0.018 A 
HETATM   21  C   UNL     1     -41.960  59.644 -61.042  1.00  0.00     0.003 A 
HETATM   22  C   UNL     1     -41.781  58.369 -60.491  1.00  0.00     0.029 A 
BRANCH  19  23
HETATM   23  C   UNL     1     -45.650  60.174 -60.312  1.00  0.00     0.293 C 
HETATM   24  O   UNL     1     -46.011  60.923 -59.415  1.00  0.00    -0.259 OA
BRANCH  23  25
HETATM   25  O   UNL     1     -46.386  59.763 -61.368  1.00  0.00    -0.323 OA
HETATM   26  C   UNL     1     -47.587  59.077 -61.009  1.00  0.00     0.213 C 
ENDBRANCH  23  25
ENDBRANCH  19  23
ENDBRANCH  15  17
ENDBRANCH  13  15
ENDBRANCH  11  13
ENDBRANCH  10  11
ENDBRANCH   4  10
BRANCH   1  27
HETATM   27  C   UNL     1     -41.251  55.109 -52.460  1.00  0.00     0.038 A 
HETATM   28  N   UNL     1     -40.812  54.666 -51.225  1.00  0.00    -0.277 N 
HETATM   29  C   UNL     1     -40.881  55.341 -49.948  1.00  0.00     0.179 C 
HETATM   30  N   UNL     1     -40.265  53.445 -51.257  1.00  0.00    -0.170 NA
HETATM   31  C   UNL     1     -40.451  53.024 -52.510  1.00  0.00     0.112 A 
HETATM   32  C   UNL     1     -41.042  54.030 -53.303  1.00  0.00     0.063 A 
BRANCH  31  33
HETATM   33  C   UNL     1     -40.098  51.652 -52.969  1.00  0.00     0.105 A 
HETATM   34  O   UNL     1     -39.648  50.650 -52.151  1.00  0.00    -0.320 OA
HETATM   35  C   UNL     1     -39.393  49.573 -52.939  1.00  0.00     0.142 A 
HETATM   36  C   UNL     1     -39.677  49.857 -54.253  1.00  0.00     0.027 A 
HETATM   37  C   UNL     1     -40.138  51.195 -54.273  1.00  0.00     0.041 A 
ENDBRANCH  31  33
ENDBRANCH   1  27
TORSDOF 9
ENDMDL
MODEL 6
REMARK VINA RESULT:      -7.5      4.178      9.179
REMARK  9 active torsions:
REMARK  status: ('A' for Active; 'I' for Inactive)
REMARK    1  A    between atoms: C_4  and  C_5 
REMARK    2  A    between atoms: C_11  and  C_12 
REMARK    3  A    between atoms: C_15  and  C_16 
REMARK    4  A    between atoms: C_16  and  N_17 
REMARK    5  A    between atoms: N_17  and  C_18 
REMARK    6  A    between atoms: C_18  and  N_19 
REMARK    7  A    between atoms: N_19  and  C_20 
REMARK    8  A    between atoms: C_22  and  C_23 
REMARK    9  A    between atoms: C_23  and  O_24 
ROOT
HETATM    1  C   UNL     1     -43.476  61.312 -52.436  1.00  0.00     0.067 C 
HETATM    2  C   UNL     1     -44.496  61.040 -53.577  1.00  0.00     0.001 C 
HETATM    3  C   UNL     1     -45.040  59.596 -53.503  1.00  0.00     0.040 C 
HETATM    4  C   UNL     1     -43.907  58.579 -53.719  1.00  0.00     0.206 C 
HETATM    5  N   UNL     1     -42.583  59.353 -53.707  1.00  0.00    -0.065 N 
HETATM    6  H   UNL     1     -41.811  58.672 -53.738  1.00  0.00     0.280 HD
HETATM    7  C   UNL     1     -42.397  60.206 -52.464  1.00  0.00     0.246 C 
HETATM    8  C   UNL     1     -43.733  61.174 -54.915  1.00  0.00     0.033 C 
HETATM    9  C   UNL     1     -42.518  60.237 -54.941  1.00  0.00     0.236 C 
ENDROOT
BRANCH   4  10
HETATM   10  C   UNL     1     -43.899  57.371 -52.761  1.00  0.00     0.155 C 
BRANCH  10  11
HETATM   11  N   UNL     1     -43.899  56.066 -53.414  1.00  0.00    -0.365 N 
HETATM   12  H   UNL     1     -44.793  55.720 -53.745  1.00  0.00     0.161 HD
BRANCH  11  13
HETATM   13  C   UNL     1     -42.837  55.516 -54.080  1.00  0.00     0.172 C 
HETATM   14  S   UNL     1     -42.907  54.969 -55.654  1.00  0.00    -0.041 SA
BRANCH  13  15
HETATM   15  N   UNL     1     -41.631  55.548 -53.432  1.00  0.00    -0.333 N 
HETATM   16  H   UNL     1     -40.994  56.262 -53.777  1.00  0.00     0.168 HD
BRANCH  15  17
HETATM   17  C   UNL     1     -41.099  54.673 -52.456  1.00  0.00     0.035 A 
HETATM   18  C   UNL     1     -40.505  53.451 -52.772  1.00  0.00     0.047 A 
HETATM   19  C   UNL     1     -40.050  52.586 -51.769  1.00  0.00     0.041 A 
HETATM   20  C   UNL     1     -40.123  52.977 -50.433  1.00  0.00     0.018 A 
HETATM   21  C   UNL     1     -40.653  54.231 -50.112  1.00  0.00     0.003 A 
HETATM   22  C   UNL     1     -41.134  55.075 -51.120  1.00  0.00     0.029 A 
BRANCH  19  23
HETATM   23  C   UNL     1     -39.541  51.261 -52.202  1.00  0.00     0.293 C 
HETATM   24  O   UNL     1     -39.391  50.331 -51.422  1.00  0.00    -0.259 OA
BRANCH  23  25
HETATM   25  O   UNL     1     -39.308  51.246 -53.533  1.00  0.00    -0.323 OA
HETATM   26  C   UNL     1     -39.756  50.058 -54.190  1.00  0.00     0.213 C 
ENDBRANCH  23  25
ENDBRANCH  19  23
ENDBRANCH  15  17
ENDBRANCH  13  15
ENDBRANCH  11  13
ENDBRANCH  10  11
ENDBRANCH   4  10
BRANCH   1  27
HETATM   27  C   UNL     1     -44.085  61.499 -51.071  1.00  0.00     0.038 A 
HETATM   28  N   UNL     1     -44.817  62.616 -50.712  1.00  0.00    -0.277 N 
HETATM   29  C   UNL     1     -45.158  63.769 -51.516  1.00  0.00     0.179 C 
HETATM   30  N   UNL     1     -45.258  62.584 -49.448  1.00  0.00    -0.170 NA
HETATM   31  C   UNL     1     -44.913  61.375 -49.001  1.00  0.00     0.112 A 
HETATM   32  C   UNL     1     -44.164  60.669 -49.966  1.00  0.00     0.063 A 
BRANCH  31  33
HETATM   33  C   UNL     1     -45.311  60.859 -47.662  1.00  0.00     0.105 A 
HETATM   34  O   UNL     1     -46.290  59.926 -47.448  1.00  0.00    -0.320 OA
HETATM   35  C   UNL     1     -46.390  59.750 -46.104  1.00  0.00     0.142 A 
HETATM   36  C   UNL     1     -45.487  60.547 -45.443  1.00  0.00     0.027 A 
HETATM   37  C   UNL     1     -44.785  61.258 -46.447  1.00  0.00     0.041 A 
ENDBRANCH  31  33
ENDBRANCH   1  27
TORSDOF 9
ENDMDL
MODEL 7
REMARK VINA RESULT:      -7.4     16.477     19.713
REMARK  9 active torsions:
REMARK  status: ('A' for Active; 'I' for Inactive)
REMARK    1  A    between atoms: C_4  and  C_5 
REMARK    2  A    between atoms: C_11  and  C_12 
REMARK    3  A    between atoms: C_15  and  C_16 
REMARK    4  A    between atoms: C_16  and  N_17 
REMARK    5  A    between atoms: N_17  and  C_18 
REMARK    6  A    between atoms: C_18  and  N_19 
REMARK    7  A    between atoms: N_19  and  C_20 
REMARK    8  A    between atoms: C_22  and  C_23 
REMARK    9  A    between atoms: C_23  and  O_24 
ROOT
HETATM    1  C   UNL     1     -36.176  39.243 -57.562  1.00  0.00     0.067 C 
HETATM    2  C   UNL     1     -36.347  40.562 -58.367  1.00  0.00     0.001 C 
HETATM    3  C   UNL     1     -35.799  41.771 -57.576  1.00  0.00     0.040 C 
HETATM    4  C   UNL     1     -36.599  41.978 -56.280  1.00  0.00     0.206 C 
HETATM    5  N   UNL     1     -37.524  40.768 -56.110  1.00  0.00    -0.065 N 
HETATM    6  H   UNL     1     -37.983  40.840 -55.190  1.00  0.00     0.280 HD
HETATM    7  C   UNL     1     -36.791  39.438 -56.158  1.00  0.00     0.246 C 
HETATM    8  C   UNL     1     -37.865  40.789 -58.555  1.00  0.00     0.033 C 
HETATM    9  C   UNL     1     -38.583  40.800 -57.199  1.00  0.00     0.236 C 
ENDROOT
BRANCH   4  10
HETATM   10  C   UNL     1     -35.764  42.272 -55.017  1.00  0.00     0.155 C 
BRANCH  10  11
HETATM   11  N   UNL     1     -36.529  42.357 -53.778  1.00  0.00    -0.365 N 
HETATM   12  H   UNL     1     -37.490  42.671 -53.855  1.00  0.00     0.161 HD
BRANCH  11  13
HETATM   13  C   UNL     1     -36.306  41.603 -52.657  1.00  0.00     0.172 C 
HETATM   14  S   UNL     1     -37.314  40.377 -52.144  1.00  0.00    -0.041 SA
BRANCH  13  15
HETATM   15  N   UNL     1     -35.113  41.806 -52.016  1.00  0.00    -0.333 N 
HETATM   16  H   UNL     1     -34.972  42.760 -51.693  1.00  0.00     0.168 HD
BRANCH  15  17
HETATM   17  C   UNL     1     -34.013  40.933 -51.845  1.00  0.00     0.035 A 
HETATM   18  C   UNL     1     -33.522  40.563 -50.592  1.00  0.00     0.047 A 
HETATM   19  C   UNL     1     -32.391  39.748 -50.470  1.00  0.00     0.041 A 
HETATM   20  C   UNL     1     -31.780  39.235 -51.613  1.00  0.00     0.018 A 
HETATM   21  C   UNL     1     -32.308  39.543 -52.871  1.00  0.00     0.003 A 
HETATM   22  C   UNL     1     -33.421  40.385 -52.984  1.00  0.00     0.029 A 
BRANCH  19  23
HETATM   23  C   UNL     1     -31.879  39.507 -49.097  1.00  0.00     0.293 C 
HETATM   24  O   UNL     1     -30.735  39.787 -48.767  1.00  0.00    -0.259 OA
BRANCH  23  25
HETATM   25  O   UNL     1     -32.843  38.981 -48.309  1.00  0.00    -0.323 OA
HETATM   26  C   UNL     1     -32.823  37.554 -48.239  1.00  0.00     0.213 C 
ENDBRANCH  23  25
ENDBRANCH  19  23
ENDBRANCH  15  17
ENDBRANCH  13  15
ENDBRANCH  11  13
ENDBRANCH  10  11
ENDBRANCH   4  10
BRANCH   1  27
HETATM   27  C   UNL     1     -34.770  38.707 -57.515  1.00  0.00     0.038 A 
HETATM   28  N   UNL     1     -34.194  37.990 -58.547  1.00  0.00    -0.277 N 
HETATM   29  C   UNL     1     -34.766  37.634 -59.828  1.00  0.00     0.179 C 
HETATM   30  N   UNL     1     -32.940  37.598 -58.294  1.00  0.00    -0.170 NA
HETATM   31  C   UNL     1     -32.639  38.165 -57.124  1.00  0.00     0.112 A 
HETATM   32  C   UNL     1     -33.751  38.849 -56.588  1.00  0.00     0.063 A 
BRANCH  31  33
HETATM   33  C   UNL     1     -31.285  38.092 -56.507  1.00  0.00     0.105 A 
HETATM   34  O   UNL     1     -30.194  38.798 -56.939  1.00  0.00    -0.320 OA
HETATM   35  C   UNL     1     -29.144  38.430 -56.160  1.00  0.00     0.142 A 
HETATM   36  C   UNL     1     -29.536  37.503 -55.225  1.00  0.00     0.027 A 
HETATM   37  C   UNL     1     -30.918  37.289 -55.443  1.00  0.00     0.041 A 
ENDBRANCH  31  33
ENDBRANCH   1  27
TORSDOF 9
ENDMDL
MODEL 8
REMARK VINA RESULT:      -7.3      2.639      9.828
REMARK  9 active torsions:
REMARK  status: ('A' for Active; 'I' for Inactive)
REMARK    1  A    between atoms: C_4  and  C_5 
REMARK    2  A    between atoms: C_11  and  C_12 
REMARK    3  A    between atoms: C_15  and  C_16 
REMARK    4  A    between atoms: C_16  and  N_17 
REMARK    5  A    between atoms: N_17  and  C_18 
REMARK    6  A    between atoms: C_18  and  N_19 
REMARK    7  A    between atoms: N_19  and  C_20 
REMARK    8  A    between atoms: C_22  and  C_23 
REMARK    9  A    between atoms: C_23  and  O_24 
ROOT
HETATM    1  C   UNL     1     -43.121  58.246 -60.555  1.00  0.00     0.067 C 
HETATM    2  C   UNL     1     -44.470  57.927 -59.851  1.00  0.00     0.001 C 
HETATM    3  C   UNL     1     -44.302  57.899 -58.315  1.00  0.00     0.040 C 
HETATM    4  C   UNL     1     -43.346  56.771 -57.896  1.00  0.00     0.206 C 
HETATM    5  N   UNL     1     -42.710  56.205 -59.171  1.00  0.00    -0.065 N 
HETATM    6  H   UNL     1     -41.986  55.526 -58.897  1.00  0.00     0.280 HD
HETATM    7  C   UNL     1     -42.047  57.266 -60.034  1.00  0.00     0.246 C 
HETATM    8  C   UNL     1     -44.890  56.506 -60.291  1.00  0.00     0.033 C 
HETATM    9  C   UNL     1     -43.781  55.493 -59.980  1.00  0.00     0.236 C 
ENDROOT
BRANCH   4  10
HETATM   10  C   UNL     1     -42.301  57.142 -56.823  1.00  0.00     0.155 C 
BRANCH  10  11
HETATM   11  N   UNL     1     -41.867  56.035 -55.977  1.00  0.00    -0.365 N 
HETATM   12  H   UNL     1     -40.876  55.978 -55.771  1.00  0.00     0.161 HD
BRANCH  11  13
HETATM   13  C   UNL     1     -42.641  55.408 -55.037  1.00  0.00     0.172 C 
HETATM   14  S   UNL     1     -43.942  56.123 -54.276  1.00  0.00    -0.041 SA
BRANCH  13  15
HETATM   15  N   UNL     1     -42.386  54.079 -54.828  1.00  0.00    -0.333 N 
HETATM   16  H   UNL     1     -42.935  53.453 -55.413  1.00  0.00     0.168 HD
BRANCH  15  17
HETATM   17  C   UNL     1     -41.577  53.452 -53.852  1.00  0.00     0.035 A 
HETATM   18  C   UNL     1     -41.636  53.771 -52.495  1.00  0.00     0.047 A 
HETATM   19  C   UNL     1     -40.771  53.171 -51.571  1.00  0.00     0.041 A 
HETATM   20  C   UNL     1     -39.882  52.185 -51.996  1.00  0.00     0.018 A 
HETATM   21  C   UNL     1     -39.865  51.808 -53.342  1.00  0.00     0.003 A 
HETATM   22  C   UNL     1     -40.712  52.437 -54.264  1.00  0.00     0.029 A 
BRANCH  19  23
HETATM   23  C   UNL     1     -40.833  53.663 -50.172  1.00  0.00     0.293 C 
HETATM   24  O   UNL     1     -40.048  53.289 -49.312  1.00  0.00    -0.259 OA
BRANCH  23  25
HETATM   25  O   UNL     1     -41.831  54.562 -50.022  1.00  0.00    -0.323 OA
HETATM   26  C   UNL     1     -41.389  55.860 -49.615  1.00  0.00     0.213 C 
ENDBRANCH  23  25
ENDBRANCH  19  23
ENDBRANCH  15  17
ENDBRANCH  13  15
ENDBRANCH  11  13
ENDBRANCH  10  11
ENDBRANCH   4  10
BRANCH   1  27
HETATM   27  C   UNL     1     -42.688  59.687 -60.471  1.00  0.00     0.038 A 
HETATM   28  N   UNL     1     -43.256  60.697 -61.225  1.00  0.00    -0.277 N 
HETATM   29  C   UNL     1     -44.336  60.610 -62.183  1.00  0.00     0.179 C 
HETATM   30  N   UNL     1     -42.714  61.900 -61.004  1.00  0.00    -0.170 NA
HETATM   31  C   UNL     1     -41.853  61.704 -60.003  1.00  0.00     0.112 A 
HETATM   32  C   UNL     1     -41.785  60.340 -59.649  1.00  0.00     0.063 A 
BRANCH  31  33
HETATM   33  C   UNL     1     -41.102  62.810 -59.346  1.00  0.00     0.105 A 
HETATM   34  O   UNL     1     -41.673  63.794 -58.585  1.00  0.00    -0.320 OA
HETATM   35  C   UNL     1     -40.677  64.636 -58.204  1.00  0.00     0.142 A 
HETATM   36  C   UNL     1     -39.468  64.210 -58.697  1.00  0.00     0.027 A 
HETATM   37  C   UNL     1     -39.739  63.029 -59.429  1.00  0.00     0.041 A 
ENDBRANCH  31  33
ENDBRANCH   1  27
TORSDOF 9
ENDMDL
MODEL 9
REMARK VINA RESULT:      -7.3      4.959      8.501
REMARK  9 active torsions:
REMARK  status: ('A' for Active; 'I' for Inactive)
REMARK    1  A    between atoms: C_4  and  C_5 
REMARK    2  A    between atoms: C_11  and  C_12 
REMARK    3  A    between atoms: C_15  and  C_16 
REMARK    4  A    between atoms: C_16  and  N_17 
REMARK    5  A    between atoms: N_17  and  C_18 
REMARK    6  A    between atoms: C_18  and  N_19 
REMARK    7  A    between atoms: N_19  and  C_20 
REMARK    8  A    between atoms: C_22  and  C_23 
REMARK    9  A    between atoms: C_23  and  O_24 
ROOT
HETATM    1  C   UNL     1     -41.260  55.615 -52.589  1.00  0.00     0.067 C 
HETATM    2  C   UNL     1     -41.924  54.479 -51.762  1.00  0.00     0.001 C 
HETATM    3  C   UNL     1     -43.421  54.774 -51.517  1.00  0.00     0.040 C 
HETATM    4  C   UNL     1     -43.592  56.047 -50.672  1.00  0.00     0.206 C 
HETATM    5  N   UNL     1     -42.215  56.712 -50.555  1.00  0.00    -0.065 N 
HETATM    6  H   UNL     1     -42.335  57.622 -50.088  1.00  0.00     0.280 HD
HETATM    7  C   UNL     1     -41.554  56.966 -51.900  1.00  0.00     0.246 C 
HETATM    8  C   UNL     1     -41.232  54.454 -50.379  1.00  0.00     0.033 C 
HETATM    9  C   UNL     1     -41.313  55.831 -49.708  1.00  0.00     0.236 C 
ENDROOT
BRANCH   4  10
HETATM   10  C   UNL     1     -44.687  57.024 -51.146  1.00  0.00     0.155 C 
BRANCH  10  11
HETATM   11  N   UNL     1     -44.677  58.327 -50.488  1.00  0.00    -0.365 N 
HETATM   12  H   UNL     1     -44.509  58.333 -49.489  1.00  0.00     0.161 HD
BRANCH  11  13
HETATM   13  C   UNL     1     -44.350  59.513 -51.089  1.00  0.00     0.172 C 
HETATM   14  S   UNL     1     -44.867  59.958 -52.611  1.00  0.00    -0.041 SA
BRANCH  13  15
HETATM   15  N   UNL     1     -43.665  60.416 -50.321  1.00  0.00    -0.333 N 
HETATM   16  H   UNL     1     -42.653  60.337 -50.390  1.00  0.00     0.168 HD
BRANCH  15  17
HETATM   17  C   UNL     1     -44.142  61.345 -49.367  1.00  0.00     0.035 A 
HETATM   18  C   UNL     1     -44.911  60.975 -48.264  1.00  0.00     0.047 A 
HETATM   19  C   UNL     1     -45.417  61.936 -47.379  1.00  0.00     0.041 A 
HETATM   20  C   UNL     1     -45.092  63.279 -47.557  1.00  0.00     0.018 A 
HETATM   21  C   UNL     1     -44.263  63.651 -48.620  1.00  0.00     0.003 A 
HETATM   22  C   UNL     1     -43.788  62.687 -49.518  1.00  0.00     0.029 A 
BRANCH  19  23
HETATM   23  C   UNL     1     -46.321  61.453 -46.305  1.00  0.00     0.293 C 
HETATM   24  O   UNL     1     -47.304  62.084 -45.944  1.00  0.00    -0.259 OA
BRANCH  23  25
HETATM   25  O   UNL     1     -45.912  60.253 -45.835  1.00  0.00    -0.323 OA
HETATM   26  C   UNL     1     -46.953  59.278 -45.744  1.00  0.00     0.213 C 
ENDBRANCH  23  25
ENDBRANCH  19  23
ENDBRANCH  15  17
ENDBRANCH  13  15
ENDBRANCH  11  13
ENDBRANCH  10  11
ENDBRANCH   4  10
BRANCH   1  27
HETATM   27  C   UNL     1     -41.606  55.618 -54.054  1.00  0.00     0.038 A 
HETATM   28  N   UNL     1     -41.114  54.690 -54.954  1.00  0.00    -0.277 N 
HETATM   29  C   UNL     1     -40.234  53.569 -54.705  1.00  0.00     0.179 C 
HETATM   30  N   UNL     1     -41.539  54.882 -56.209  1.00  0.00    -0.170 NA
HETATM   31  C   UNL     1     -42.419  55.882 -56.117  1.00  0.00     0.112 A 
HETATM   32  C   UNL     1     -42.481  56.388 -54.801  1.00  0.00     0.063 A 
BRANCH  31  33
HETATM   33  C   UNL     1     -43.235  56.356 -57.270  1.00  0.00     0.105 A 
HETATM   34  O   UNL     1     -44.195  57.330 -57.195  1.00  0.00    -0.320 OA
HETATM   35  C   UNL     1     -44.744  57.448 -58.432  1.00  0.00     0.142 A 
HETATM   36  C   UNL     1     -44.151  56.573 -59.310  1.00  0.00     0.027 A 
HETATM   37  C   UNL     1     -43.173  55.873 -58.564  1.00  0.00     0.041 A 
ENDBRANCH  31  33
ENDBRANCH   1  27
TORSDOF 9
ENDMDL
MODEL 10
REMARK VINA RESULT:      -7.3      4.381      8.829
REMARK  9 active torsions:
REMARK  status: ('A' for Active; 'I' for Inactive)
REMARK    1  A    between atoms: C_4  and  C_5 
REMARK    2  A    between atoms: C_11  and  C_12 
REMARK    3  A    between atoms: C_15  and  C_16 
REMARK    4  A    between atoms: C_16  and  N_17 
REMARK    5  A    between atoms: N_17  and  C_18 
REMARK    6  A    between atoms: C_18  and  N_19 
REMARK    7  A    between atoms: N_19  and  C_20 
REMARK    8  A    between atoms: C_22  and  C_23 
REMARK    9  A    between atoms: C_23  and  O_24 
ROOT
HETATM    1  C   UNL     1     -43.335  61.602 -52.545  1.00  0.00     0.067 C 
HETATM    2  C   UNL     1     -44.404  61.596 -53.673  1.00  0.00     0.001 C 
HETATM    3  C   UNL     1     -45.155  60.246 -53.720  1.00  0.00     0.040 C 
HETATM    4  C   UNL     1     -44.190  59.101 -54.066  1.00  0.00     0.206 C 
HETATM    5  N   UNL     1     -42.766  59.667 -54.023  1.00  0.00    -0.065 N 
HETATM    6  H   UNL     1     -42.104  58.887 -54.142  1.00  0.00     0.280 HD
HETATM    7  C   UNL     1     -42.433  60.359 -52.711  1.00  0.00     0.246 C 
HETATM    8  C   UNL     1     -43.653  61.747 -55.016  1.00  0.00     0.033 C 
HETATM    9  C   UNL     1     -42.592  60.649 -55.169  1.00  0.00     0.236 C 
ENDROOT
BRANCH   4  10
HETATM   10  C   UNL     1     -44.345  57.816 -53.227  1.00  0.00     0.155 C 
BRANCH  10  11
HETATM   11  N   UNL     1     -44.681  56.618 -53.989  1.00  0.00    -0.365 N 
HETATM   12  H   UNL     1     -45.633  56.544 -54.329  1.00  0.00     0.161 HD
BRANCH  11  13
HETATM   13  C   UNL     1     -43.795  55.875 -54.724  1.00  0.00     0.172 C 
HETATM   14  S   UNL     1     -42.896  56.484 -55.989  1.00  0.00    -0.041 SA
BRANCH  13  15
HETATM   15  N   UNL     1     -43.564  54.598 -54.287  1.00  0.00    -0.333 N 
HETATM   16  H   UNL     1     -44.314  53.944 -54.500  1.00  0.00     0.168 HD
BRANCH  15  17
HETATM   17  C   UNL     1     -42.514  54.086 -53.491  1.00  0.00     0.035 A 
HETATM   18  C   UNL     1     -42.449  54.267 -52.109  1.00  0.00     0.047 A 
HETATM   19  C   UNL     1     -41.357  53.798 -51.367  1.00  0.00     0.041 A 
HETATM   20  C   UNL     1     -40.349  53.075 -52.003  1.00  0.00     0.018 A 
HETATM   21  C   UNL     1     -40.441  52.828 -53.376  1.00  0.00     0.003 A 
HETATM   22  C   UNL     1     -41.520  53.329 -54.114  1.00  0.00     0.029 A 
BRANCH  19  23
HETATM   23  C   UNL     1     -41.326  54.142 -49.924  1.00  0.00     0.293 C 
HETATM   24  O   UNL     1     -42.315  54.542 -49.325  1.00  0.00    -0.259 OA
BRANCH  23  25
HETATM   25  O   UNL     1     -40.097  53.927 -49.404  1.00  0.00    -0.323 OA
HETATM   26  C   UNL     1     -40.066  53.899 -47.975  1.00  0.00     0.213 C 
ENDBRANCH  23  25
ENDBRANCH  19  23
ENDBRANCH  15  17
ENDBRANCH  13  15
ENDBRANCH  11  13
ENDBRANCH  10  11
ENDBRANCH   4  10
BRANCH   1  27
HETATM   27  C   UNL     1     -43.887  61.742 -51.150  1.00  0.00     0.038 A 
HETATM   28  N   UNL     1     -44.387  62.928 -50.646  1.00  0.00    -0.277 N 
HETATM   29  C   UNL     1     -44.507  64.210 -51.305  1.00  0.00     0.179 C 
HETATM   30  N   UNL     1     -44.816  62.834 -49.381  1.00  0.00    -0.170 NA
HETATM   31  C   UNL     1     -44.706  61.538 -49.083  1.00  0.00     0.112 A 
HETATM   32  C   UNL     1     -44.114  60.819 -50.143  1.00  0.00     0.063 A 
BRANCH  31  33
HETATM   33  C   UNL     1     -45.185  60.954 -47.799  1.00  0.00     0.105 A 
HETATM   34  O   UNL     1     -46.160  59.998 -47.695  1.00  0.00    -0.320 OA
HETATM   35  C   UNL     1     -46.348  59.759 -46.371  1.00  0.00     0.142 A 
HETATM   36  C   UNL     1     -45.506  60.538 -45.614  1.00  0.00     0.027 A 
HETATM   37  C   UNL     1     -44.751  61.305 -46.534  1.00  0.00     0.041 A 
ENDBRANCH  31  33
ENDBRANCH   1  27
TORSDOF 9
ENDMDL
