MODEL 1
REMARK VINA RESULT:      -8.8      0.000      0.000
REMARK  6 active torsions:
REMARK  status: ('A' for Active; 'I' for Inactive)
REMARK    1  A    between atoms: C_7  and  C_8 
REMARK    2  A    between atoms: N_9  and  N_10 
REMARK       I    between atoms: N_10  and  C_11 
REMARK    3  A    between atoms: C_11  and  C_12 
REMARK    4  A    between atoms: C_12  and  N_13 
REMARK       I    between atoms: N_13  and  C_14 
REMARK    5  A    between atoms: C_14  and  C_15 
REMARK    6  A    between atoms: C_16  and  C_17 
ROOT
HETATM    1  N   UNL     1     -41.653  57.613 -53.506  1.00  0.00    -0.246 N 
HETATM    2  C   UNL     1     -41.058  58.860 -53.631  1.00  0.00     0.255 C 
HETATM    3  O   UNL     1     -39.927  59.161 -53.253  1.00  0.00    -0.270 OA
HETATM    4  H   UNL     1     -42.626  57.490 -53.798  1.00  0.00     0.192 HD
ENDROOT
BRANCH   1   5
HETATM    5  N   UNL     1     -40.974  56.588 -52.916  1.00  0.00    -0.184 NA
HETATM    6  C   UNL     1     -41.658  55.511 -52.707  1.00  0.00     0.153 C 
BRANCH   6   7
HETATM    7  C   UNL     1     -41.025  54.360 -52.088  1.00  0.00     0.018 A 
HETATM    8  C   UNL     1     -40.719  54.269 -50.736  1.00  0.00     0.018 A 
HETATM    9  C   UNL     1     -40.926  55.227 -49.619  1.00  0.00     0.069 C 
HETATM   10  N   UNL     1     -40.137  53.043 -50.522  1.00  0.00    -0.358 N 
HETATM   11  H   UNL     1     -39.811  52.700 -49.628  1.00  0.00     0.166 HD
HETATM   12  C   UNL     1     -40.054  52.332 -51.693  1.00  0.00     0.043 A 
HETATM   13  C   UNL     1     -40.604  53.129 -52.697  1.00  0.00     0.004 A 
HETATM   14  C   UNL     1     -39.539  51.052 -51.933  1.00  0.00     0.030 A 
HETATM   15  C   UNL     1     -40.636  52.612 -54.011  1.00  0.00     0.014 A 
HETATM   16  C   UNL     1     -40.125  51.335 -54.270  1.00  0.00     0.001 A 
HETATM   17  C   UNL     1     -39.585  50.567 -53.243  1.00  0.00     0.002 A 
ENDBRANCH   6   7
ENDBRANCH   1   5
BRANCH   2  18
HETATM   18  C   UNL     1     -41.956  59.872 -54.342  1.00  0.00     0.227 C 
BRANCH  18  19
HETATM   19  N   UNL     1     -42.641  59.294 -55.487  1.00  0.00    -0.349 N 
HETATM   20  C   UNL     1     -42.288  59.614 -56.770  1.00  0.00     0.241 C 
HETATM   21  O   UNL     1     -41.332  60.334 -57.041  1.00  0.00    -0.269 OA
HETATM   22  H   UNL     1     -43.361  58.608 -55.304  1.00  0.00     0.163 HD
BRANCH  20  23
HETATM   23  C   UNL     1     -43.150  58.976 -57.793  1.00  0.00     0.075 C 
HETATM   24  C   UNL     1     -43.308  57.644 -57.793  1.00  0.00     0.017 C 
BRANCH  24  25
HETATM   25  C   UNL     1     -44.139  56.903 -58.756  1.00  0.00    -0.036 A 
HETATM   26  C   UNL     1     -43.701  55.733 -59.393  1.00  0.00     0.011 A 
HETATM   27  C   UNL     1     -44.536  55.050 -60.281  1.00  0.00     0.001 A 
HETATM   28  C   UNL     1     -45.824  55.518 -60.530  1.00  0.00     0.000 A 
HETATM   29  C   UNL     1     -46.279  56.667 -59.890  1.00  0.00     0.001 A 
HETATM   30  C   UNL     1     -45.442  57.352 -59.003  1.00  0.00     0.011 A 
ENDBRANCH  24  25
ENDBRANCH  20  23
ENDBRANCH  18  19
ENDBRANCH   2  18
TORSDOF 6
ENDMDL
MODEL 2
REMARK VINA RESULT:      -8.5      4.465      7.439
REMARK  6 active torsions:
REMARK  status: ('A' for Active; 'I' for Inactive)
REMARK    1  A    between atoms: C_7  and  C_8 
REMARK    2  A    between atoms: N_9  and  N_10 
REMARK       I    between atoms: N_10  and  C_11 
REMARK    3  A    between atoms: C_11  and  C_12 
REMARK    4  A    between atoms: C_12  and  N_13 
REMARK       I    between atoms: N_13  and  C_14 
REMARK    5  A    between atoms: C_14  and  C_15 
REMARK    6  A    between atoms: C_16  and  C_17 
ROOT
HETATM    1  N   UNL     1     -41.868  57.774 -52.794  1.00  0.00    -0.246 N 
HETATM    2  C   UNL     1     -41.177  58.940 -53.095  1.00  0.00     0.255 C 
HETATM    3  O   UNL     1     -39.957  59.047 -53.201  1.00  0.00    -0.270 OA
HETATM    4  H   UNL     1     -42.882  57.812 -52.667  1.00  0.00     0.192 HD
ENDROOT
BRANCH   1   5
HETATM    5  N   UNL     1     -41.188  56.613 -52.581  1.00  0.00    -0.184 NA
HETATM    6  C   UNL     1     -41.707  55.811 -51.710  1.00  0.00     0.153 C 
BRANCH   6   7
HETATM    7  C   UNL     1     -41.062  54.544 -51.414  1.00  0.00     0.018 A 
HETATM    8  C   UNL     1     -40.754  54.104 -50.133  1.00  0.00     0.018 A 
HETATM    9  C   UNL     1     -40.971  54.733 -48.804  1.00  0.00     0.069 C 
HETATM   10  N   UNL     1     -40.158  52.871 -50.248  1.00  0.00    -0.358 N 
HETATM   11  H   UNL     1     -39.829  52.309 -49.475  1.00  0.00     0.166 HD
HETATM   12  C   UNL     1     -40.069  52.495 -51.565  1.00  0.00     0.043 A 
HETATM   13  C   UNL     1     -40.628  53.522 -52.324  1.00  0.00     0.004 A 
HETATM   14  C   UNL     1     -39.539  51.328 -52.132  1.00  0.00     0.030 A 
HETATM   15  C   UNL     1     -40.655  53.369 -53.729  1.00  0.00     0.014 A 
HETATM   16  C   UNL     1     -40.130  52.210 -54.314  1.00  0.00     0.001 A 
HETATM   17  C   UNL     1     -39.581  51.205 -53.523  1.00  0.00     0.002 A 
ENDBRANCH   6   7
ENDBRANCH   1   5
BRANCH   2  18
HETATM   18  C   UNL     1     -42.105  60.130 -53.330  1.00  0.00     0.227 C 
BRANCH  18  19
HETATM   19  N   UNL     1     -42.442  60.821 -52.096  1.00  0.00    -0.349 N 
HETATM   20  C   UNL     1     -43.599  60.551 -51.416  1.00  0.00     0.241 C 
HETATM   21  O   UNL     1     -44.379  59.666 -51.750  1.00  0.00    -0.269 OA
HETATM   22  H   UNL     1     -41.767  61.479 -51.729  1.00  0.00     0.163 HD
BRANCH  20  23
HETATM   23  C   UNL     1     -43.792  61.408 -50.223  1.00  0.00     0.075 C 
HETATM   24  C   UNL     1     -44.521  60.959 -49.191  1.00  0.00     0.017 C 
BRANCH  24  25
HETATM   25  C   UNL     1     -44.779  61.718 -47.957  1.00  0.00    -0.036 A 
HETATM   26  C   UNL     1     -44.887  61.109 -46.699  1.00  0.00     0.011 A 
HETATM   27  C   UNL     1     -45.107  61.877 -45.552  1.00  0.00     0.001 A 
HETATM   28  C   UNL     1     -45.207  63.263 -45.647  1.00  0.00     0.000 A 
HETATM   29  C   UNL     1     -45.082  63.883 -46.887  1.00  0.00     0.001 A 
HETATM   30  C   UNL     1     -44.865  63.115 -48.035  1.00  0.00     0.011 A 
ENDBRANCH  24  25
ENDBRANCH  20  23
ENDBRANCH  18  19
ENDBRANCH   2  18
TORSDOF 6
ENDMDL
MODEL 3
REMARK VINA RESULT:      -8.1      3.110      5.110
REMARK  6 active torsions:
REMARK  status: ('A' for Active; 'I' for Inactive)
REMARK    1  A    between atoms: C_7  and  C_8 
REMARK    2  A    between atoms: N_9  and  N_10 
REMARK       I    between atoms: N_10  and  C_11 
REMARK    3  A    between atoms: C_11  and  C_12 
REMARK    4  A    between atoms: C_12  and  N_13 
REMARK       I    between atoms: N_13  and  C_14 
REMARK    5  A    between atoms: C_14  and  C_15 
REMARK    6  A    between atoms: C_16  and  C_17 
ROOT
HETATM    1  N   UNL     1     -41.625  55.001 -56.163  1.00  0.00    -0.246 N 
HETATM    2  C   UNL     1     -42.446  56.119 -56.184  1.00  0.00     0.255 C 
HETATM    3  O   UNL     1     -42.659  56.876 -55.239  1.00  0.00    -0.270 OA
HETATM    4  H   UNL     1     -41.571  54.403 -56.992  1.00  0.00     0.192 HD
ENDROOT
BRANCH   1   5
HETATM    5  N   UNL     1     -40.970  54.656 -55.018  1.00  0.00    -0.184 NA
HETATM    6  C   UNL     1     -41.617  53.873 -54.218  1.00  0.00     0.153 C 
BRANCH   6   7
HETATM    7  C   UNL     1     -41.004  53.443 -52.973  1.00  0.00     0.018 A 
HETATM    8  C   UNL     1     -40.200  52.318 -52.846  1.00  0.00     0.018 A 
HETATM    9  C   UNL     1     -39.761  51.311 -53.846  1.00  0.00     0.069 C 
HETATM   10  N   UNL     1     -39.804  52.235 -51.532  1.00  0.00    -0.358 N 
HETATM   11  H   UNL     1     -39.209  51.515 -51.148  1.00  0.00     0.166 HD
HETATM   12  C   UNL     1     -40.327  53.272 -50.800  1.00  0.00     0.043 A 
HETATM   13  C   UNL     1     -41.085  54.050 -51.674  1.00  0.00     0.004 A 
HETATM   14  C   UNL     1     -40.182  53.573 -49.440  1.00  0.00     0.030 A 
HETATM   15  C   UNL     1     -41.733  55.192 -51.152  1.00  0.00     0.014 A 
HETATM   16  C   UNL     1     -41.601  55.509 -49.796  1.00  0.00     0.001 A 
HETATM   17  C   UNL     1     -40.834  54.710 -48.954  1.00  0.00     0.002 A 
ENDBRANCH   6   7
ENDBRANCH   1   5
BRANCH   2  18
HETATM   18  C   UNL     1     -43.070  56.365 -57.557  1.00  0.00     0.227 C 
BRANCH  18  19
HETATM   19  N   UNL     1     -42.361  57.386 -58.312  1.00  0.00    -0.349 N 
HETATM   20  C   UNL     1     -42.816  58.675 -58.377  1.00  0.00     0.241 C 
HETATM   21  O   UNL     1     -43.791  59.073 -57.748  1.00  0.00    -0.269 OA
HETATM   22  H   UNL     1     -41.490  57.122 -58.752  1.00  0.00     0.163 HD
BRANCH  20  23
HETATM   23  C   UNL     1     -41.994  59.545 -59.251  1.00  0.00     0.075 C 
HETATM   24  C   UNL     1     -41.731  60.806 -58.878  1.00  0.00     0.017 C 
BRANCH  24  25
HETATM   25  C   UNL     1     -40.927  61.758 -59.661  1.00  0.00    -0.036 A 
HETATM   26  C   UNL     1     -41.066  61.908 -61.048  1.00  0.00     0.011 A 
HETATM   27  C   UNL     1     -40.297  62.845 -61.745  1.00  0.00     0.001 A 
HETATM   28  C   UNL     1     -39.391  63.653 -61.061  1.00  0.00     0.000 A 
HETATM   29  C   UNL     1     -39.257  63.528 -59.681  1.00  0.00     0.001 A 
HETATM   30  C   UNL     1     -40.025  62.589 -58.985  1.00  0.00     0.011 A 
ENDBRANCH  24  25
ENDBRANCH  20  23
ENDBRANCH  18  19
ENDBRANCH   2  18
TORSDOF 6
ENDMDL
MODEL 4
REMARK VINA RESULT:      -8.1      3.070      4.576
REMARK  6 active torsions:
REMARK  status: ('A' for Active; 'I' for Inactive)
REMARK    1  A    between atoms: C_7  and  C_8 
REMARK    2  A    between atoms: N_9  and  N_10 
REMARK       I    between atoms: N_10  and  C_11 
REMARK    3  A    between atoms: C_11  and  C_12 
REMARK    4  A    between atoms: C_12  and  N_13 
REMARK       I    between atoms: N_13  and  C_14 
REMARK    5  A    between atoms: C_14  and  C_15 
REMARK    6  A    between atoms: C_16  and  C_17 
ROOT
HETATM    1  N   UNL     1     -41.727  56.164 -55.894  1.00  0.00    -0.246 N 
HETATM    2  C   UNL     1     -42.807  55.680 -56.619  1.00  0.00     0.255 C 
HETATM    3  O   UNL     1     -43.241  54.530 -56.586  1.00  0.00    -0.270 OA
HETATM    4  H   UNL     1     -41.411  57.125 -56.047  1.00  0.00     0.192 HD
ENDROOT
BRANCH   1   5
HETATM    5  N   UNL     1     -41.041  55.336 -55.056  1.00  0.00    -0.184 NA
HETATM    6  C   UNL     1     -41.661  54.997 -53.973  1.00  0.00     0.153 C 
BRANCH   6   7
HETATM    7  C   UNL     1     -41.019  54.113 -53.016  1.00  0.00     0.018 A 
HETATM    8  C   UNL     1     -40.731  54.461 -51.702  1.00  0.00     0.018 A 
HETATM    9  C   UNL     1     -40.971  55.719 -50.948  1.00  0.00     0.069 C 
HETATM   10  N   UNL     1     -40.132  53.378 -51.106  1.00  0.00    -0.358 N 
HETATM   11  H   UNL     1     -39.814  53.342 -50.147  1.00  0.00     0.166 HD
HETATM   12  C   UNL     1     -40.020  52.335 -51.992  1.00  0.00     0.043 A 
HETATM   13  C   UNL     1     -40.569  52.762 -53.200  1.00  0.00     0.004 A 
HETATM   14  C   UNL     1     -39.480  51.055 -51.809  1.00  0.00     0.030 A 
HETATM   15  C   UNL     1     -40.572  51.855 -54.284  1.00  0.00     0.014 A 
HETATM   16  C   UNL     1     -40.036  50.573 -54.121  1.00  0.00     0.001 A 
HETATM   17  C   UNL     1     -39.499  50.181 -52.899  1.00  0.00     0.002 A 
ENDBRANCH   6   7
ENDBRANCH   1   5
BRANCH   2  18
HETATM   18  C   UNL     1     -43.468  56.756 -57.478  1.00  0.00     0.227 C 
BRANCH  18  19
HETATM   19  N   UNL     1     -42.577  57.873 -57.749  1.00  0.00    -0.349 N 
HETATM   20  C   UNL     1     -42.983  59.170 -57.590  1.00  0.00     0.241 C 
HETATM   21  O   UNL     1     -44.081  59.475 -57.136  1.00  0.00    -0.269 OA
HETATM   22  H   UNL     1     -41.626  57.657 -58.018  1.00  0.00     0.163 HD
BRANCH  20  23
HETATM   23  C   UNL     1     -41.954  60.160 -57.984  1.00  0.00     0.075 C 
HETATM   24  C   UNL     1     -42.019  60.745 -59.189  1.00  0.00     0.017 C 
BRANCH  24  25
HETATM   25  C   UNL     1     -41.057  61.741 -59.687  1.00  0.00    -0.036 A 
HETATM   26  C   UNL     1     -40.139  62.394 -58.852  1.00  0.00     0.011 A 
HETATM   27  C   UNL     1     -39.227  63.314 -59.376  1.00  0.00     0.001 A 
HETATM   28  C   UNL     1     -39.212  63.581 -60.744  1.00  0.00     0.000 A 
HETATM   29  C   UNL     1     -40.104  62.926 -61.587  1.00  0.00     0.001 A 
HETATM   30  C   UNL     1     -41.018  62.007 -61.062  1.00  0.00     0.011 A 
ENDBRANCH  24  25
ENDBRANCH  20  23
ENDBRANCH  18  19
ENDBRANCH   2  18
TORSDOF 6
ENDMDL
MODEL 5
REMARK VINA RESULT:      -8.1      2.348      8.554
REMARK  6 active torsions:
REMARK  status: ('A' for Active; 'I' for Inactive)
REMARK    1  A    between atoms: C_7  and  C_8 
REMARK    2  A    between atoms: N_9  and  N_10 
REMARK       I    between atoms: N_10  and  C_11 
REMARK    3  A    between atoms: C_11  and  C_12 
REMARK    4  A    between atoms: C_12  and  N_13 
REMARK       I    between atoms: N_13  and  C_14 
REMARK    5  A    between atoms: C_14  and  C_15 
REMARK    6  A    between atoms: C_16  and  C_17 
ROOT
HETATM    1  N   UNL     1     -43.832  56.842 -54.700  1.00  0.00    -0.246 N 
HETATM    2  C   UNL     1     -44.213  57.670 -53.654  1.00  0.00     0.255 C 
HETATM    3  O   UNL     1     -44.598  58.834 -53.758  1.00  0.00    -0.270 OA
HETATM    4  H   UNL     1     -43.465  55.910 -54.493  1.00  0.00     0.192 HD
ENDROOT
BRANCH   1   5
HETATM    5  N   UNL     1     -43.861  57.304 -55.982  1.00  0.00    -0.184 NA
HETATM    6  C   UNL     1     -42.862  56.955 -56.726  1.00  0.00     0.153 C 
BRANCH   6   7
HETATM    7  C   UNL     1     -42.802  57.391 -58.110  1.00  0.00     0.018 A 
HETATM    8  C   UNL     1     -43.183  56.610 -59.193  1.00  0.00     0.018 A 
HETATM    9  C   UNL     1     -43.719  55.226 -59.261  1.00  0.00     0.069 C 
HETATM   10  N   UNL     1     -42.990  57.354 -60.332  1.00  0.00    -0.358 N 
HETATM   11  H   UNL     1     -43.184  57.041 -61.273  1.00  0.00     0.166 HD
HETATM   12  C   UNL     1     -42.494  58.596 -60.024  1.00  0.00     0.043 A 
HETATM   13  C   UNL     1     -42.365  58.654 -58.637  1.00  0.00     0.004 A 
HETATM   14  C   UNL     1     -42.156  59.663 -60.866  1.00  0.00     0.030 A 
HETATM   15  C   UNL     1     -41.868  59.847 -58.066  1.00  0.00     0.014 A 
HETATM   16  C   UNL     1     -41.524  60.924 -58.891  1.00  0.00     0.001 A 
HETATM   17  C   UNL     1     -41.668  60.831 -60.272  1.00  0.00     0.002 A 
ENDBRANCH   6   7
ENDBRANCH   1   5
BRANCH   2  18
HETATM   18  C   UNL     1     -44.144  56.973 -52.296  1.00  0.00     0.227 C 
BRANCH  18  19
HETATM   19  N   UNL     1     -43.611  55.624 -52.394  1.00  0.00    -0.349 N 
HETATM   20  C   UNL     1     -42.267  55.390 -52.508  1.00  0.00     0.241 C 
HETATM   21  O   UNL     1     -41.427  56.282 -52.454  1.00  0.00    -0.269 OA
HETATM   22  H   UNL     1     -44.266  54.856 -52.327  1.00  0.00     0.163 HD
BRANCH  20  23
HETATM   23  C   UNL     1     -41.932  53.956 -52.665  1.00  0.00     0.075 C 
HETATM   24  C   UNL     1     -40.664  53.547 -52.509  1.00  0.00     0.017 C 
BRANCH  24  25
HETATM   25  C   UNL     1     -40.214  52.152 -52.639  1.00  0.00    -0.036 A 
HETATM   26  C   UNL     1     -39.830  51.372 -51.539  1.00  0.00     0.011 A 
HETATM   27  C   UNL     1     -39.434  50.043 -51.711  1.00  0.00     0.001 A 
HETATM   28  C   UNL     1     -39.433  49.472 -52.982  1.00  0.00     0.000 A 
HETATM   29  C   UNL     1     -39.830  50.229 -54.080  1.00  0.00     0.001 A 
HETATM   30  C   UNL     1     -40.224  51.560 -53.909  1.00  0.00     0.011 A 
ENDBRANCH  24  25
ENDBRANCH  20  23
ENDBRANCH  18  19
ENDBRANCH   2  18
TORSDOF 6
ENDMDL
MODEL 6
REMARK VINA RESULT:      -7.9      2.340      2.813
REMARK  6 active torsions:
REMARK  status: ('A' for Active; 'I' for Inactive)
REMARK    1  A    between atoms: C_7  and  C_8 
REMARK    2  A    between atoms: N_9  and  N_10 
REMARK       I    between atoms: N_10  and  C_11 
REMARK    3  A    between atoms: C_11  and  C_12 
REMARK    4  A    between atoms: C_12  and  N_13 
REMARK       I    between atoms: N_13  and  C_14 
REMARK    5  A    between atoms: C_14  and  C_15 
REMARK    6  A    between atoms: C_16  and  C_17 
ROOT
HETATM    1  N   UNL     1     -41.793  57.955 -52.089  1.00  0.00    -0.246 N 
HETATM    2  C   UNL     1     -41.091  59.087 -52.478  1.00  0.00     0.255 C 
HETATM    3  O   UNL     1     -39.867  59.203 -52.504  1.00  0.00    -0.270 OA
HETATM    4  H   UNL     1     -42.815  57.989 -52.045  1.00  0.00     0.192 HD
ENDROOT
BRANCH   1   5
HETATM    5  N   UNL     1     -41.121  56.840 -51.685  1.00  0.00    -0.184 NA
HETATM    6  C   UNL     1     -41.721  55.715 -51.901  1.00  0.00     0.153 C 
BRANCH   6   7
HETATM    7  C   UNL     1     -41.086  54.468 -51.511  1.00  0.00     0.018 A 
HETATM    8  C   UNL     1     -40.803  54.113 -50.198  1.00  0.00     0.018 A 
HETATM    9  C   UNL     1     -41.040  54.828 -48.918  1.00  0.00     0.069 C 
HETATM   10  N   UNL     1     -40.210  52.873 -50.220  1.00  0.00    -0.358 N 
HETATM   11  H   UNL     1     -39.897  52.362 -49.407  1.00  0.00     0.166 HD
HETATM   12  C   UNL     1     -40.100  52.410 -51.508  1.00  0.00     0.043 A 
HETATM   13  C   UNL     1     -40.641  53.386 -52.344  1.00  0.00     0.004 A 
HETATM   14  C   UNL     1     -39.566  51.207 -51.987  1.00  0.00     0.030 A 
HETATM   15  C   UNL     1     -40.644  53.141 -53.735  1.00  0.00     0.014 A 
HETATM   16  C   UNL     1     -40.114  51.945 -54.233  1.00  0.00     0.001 A 
HETATM   17  C   UNL     1     -39.583  50.992 -53.368  1.00  0.00     0.002 A 
ENDBRANCH   6   7
ENDBRANCH   1   5
BRANCH   2  18
HETATM   18  C   UNL     1     -42.009  60.223 -52.927  1.00  0.00     0.227 C 
BRANCH  18  19
HETATM   19  N   UNL     1     -42.212  60.234 -54.367  1.00  0.00    -0.349 N 
HETATM   20  C   UNL     1     -43.164  59.453 -54.964  1.00  0.00     0.241 C 
HETATM   21  O   UNL     1     -43.956  58.763 -54.330  1.00  0.00    -0.269 OA
HETATM   22  H   UNL     1     -41.653  60.877 -54.913  1.00  0.00     0.163 HD
BRANCH  20  23
HETATM   23  C   UNL     1     -43.166  59.555 -56.442  1.00  0.00     0.075 C 
HETATM   24  C   UNL     1     -42.060  59.961 -57.083  1.00  0.00     0.017 C 
BRANCH  24  25
HETATM   25  C   UNL     1     -41.944  60.099 -58.543  1.00  0.00    -0.036 A 
HETATM   26  C   UNL     1     -42.092  59.017 -59.422  1.00  0.00     0.011 A 
HETATM   27  C   UNL     1     -41.998  59.203 -60.804  1.00  0.00     0.001 A 
HETATM   28  C   UNL     1     -41.772  60.475 -61.325  1.00  0.00     0.000 A 
HETATM   29  C   UNL     1     -41.643  61.562 -60.465  1.00  0.00     0.001 A 
HETATM   30  C   UNL     1     -41.734  61.375 -59.082  1.00  0.00     0.011 A 
ENDBRANCH  24  25
ENDBRANCH  20  23
ENDBRANCH  18  19
ENDBRANCH   2  18
TORSDOF 6
ENDMDL
MODEL 7
REMARK VINA RESULT:      -7.9      5.780      9.578
REMARK  6 active torsions:
REMARK  status: ('A' for Active; 'I' for Inactive)
REMARK    1  A    between atoms: C_7  and  C_8 
REMARK    2  A    between atoms: N_9  and  N_10 
REMARK       I    between atoms: N_10  and  C_11 
REMARK    3  A    between atoms: C_11  and  C_12 
REMARK    4  A    between atoms: C_12  and  N_13 
REMARK       I    between atoms: N_13  and  C_14 
REMARK    5  A    between atoms: C_14  and  C_15 
REMARK    6  A    between atoms: C_16  and  C_17 
ROOT
HETATM    1  N   UNL     1     -45.514  59.341 -51.730  1.00  0.00    -0.246 N 
HETATM    2  C   UNL     1     -45.085  58.026 -51.625  1.00  0.00     0.255 C 
HETATM    3  O   UNL     1     -45.098  57.342 -50.603  1.00  0.00    -0.270 OA
HETATM    4  H   UNL     1     -45.398  59.837 -52.617  1.00  0.00     0.192 HD
ENDROOT
BRANCH   1   5
HETATM    5  N   UNL     1     -45.999  59.991 -50.634  1.00  0.00    -0.184 NA
HETATM    6  C   UNL     1     -45.717  61.250 -50.559  1.00  0.00     0.153 C 
BRANCH   6   7
HETATM    7  C   UNL     1     -46.192  62.034 -49.432  1.00  0.00     0.018 A 
HETATM    8  C   UNL     1     -47.152  63.034 -49.525  1.00  0.00     0.018 A 
HETATM    9  C   UNL     1     -47.912  63.556 -50.690  1.00  0.00     0.069 C 
HETATM   10  N   UNL     1     -47.344  63.545 -48.264  1.00  0.00    -0.358 N 
HETATM   11  H   UNL     1     -47.989  64.286 -48.027  1.00  0.00     0.166 HD
HETATM   12  C   UNL     1     -46.539  62.908 -47.352  1.00  0.00     0.043 A 
HETATM   13  C   UNL     1     -45.803  61.952 -48.052  1.00  0.00     0.004 A 
HETATM   14  C   UNL     1     -46.414  63.106 -45.971  1.00  0.00     0.030 A 
HETATM   15  C   UNL     1     -44.891  61.155 -47.325  1.00  0.00     0.014 A 
HETATM   16  C   UNL     1     -44.750  61.339 -45.945  1.00  0.00     0.001 A 
HETATM   17  C   UNL     1     -45.504  62.302 -45.279  1.00  0.00     0.002 A 
ENDBRANCH   6   7
ENDBRANCH   1   5
BRANCH   2  18
HETATM   18  C   UNL     1     -44.604  57.456 -52.958  1.00  0.00     0.227 C 
BRANCH  18  19
HETATM   19  N   UNL     1     -43.951  56.166 -52.805  1.00  0.00    -0.349 N 
HETATM   20  C   UNL     1     -43.127  55.660 -53.774  1.00  0.00     0.241 C 
HETATM   21  O   UNL     1     -42.821  56.284 -54.784  1.00  0.00    -0.269 OA
HETATM   22  H   UNL     1     -44.090  55.672 -51.934  1.00  0.00     0.163 HD
BRANCH  20  23
HETATM   23  C   UNL     1     -42.616  54.305 -53.461  1.00  0.00     0.075 C 
HETATM   24  C   UNL     1     -41.326  54.012 -53.682  1.00  0.00     0.017 C 
BRANCH  24  25
HETATM   25  C   UNL     1     -40.708  52.704 -53.409  1.00  0.00    -0.036 A 
HETATM   26  C   UNL     1     -40.620  51.690 -54.373  1.00  0.00     0.011 A 
HETATM   27  C   UNL     1     -40.000  50.473 -54.073  1.00  0.00     0.001 A 
HETATM   28  C   UNL     1     -39.448  50.262 -52.811  1.00  0.00     0.000 A 
HETATM   29  C   UNL     1     -39.512  51.268 -51.851  1.00  0.00     0.001 A 
HETATM   30  C   UNL     1     -40.134  52.483 -52.150  1.00  0.00     0.011 A 
ENDBRANCH  24  25
ENDBRANCH  20  23
ENDBRANCH  18  19
ENDBRANCH   2  18
TORSDOF 6
ENDMDL
MODEL 8
REMARK VINA RESULT:      -7.8      2.970      9.401
REMARK  6 active torsions:
REMARK  status: ('A' for Active; 'I' for Inactive)
REMARK    1  A    between atoms: C_7  and  C_8 
REMARK    2  A    between atoms: N_9  and  N_10 
REMARK       I    between atoms: N_10  and  C_11 
REMARK    3  A    between atoms: C_11  and  C_12 
REMARK    4  A    between atoms: C_12  and  N_13 
REMARK       I    between atoms: N_13  and  C_14 
REMARK    5  A    between atoms: C_14  and  C_15 
REMARK    6  A    between atoms: C_16  and  C_17 
ROOT
HETATM    1  N   UNL     1     -42.465  58.415 -55.999  1.00  0.00    -0.246 N 
HETATM    2  C   UNL     1     -43.257  57.280 -55.895  1.00  0.00     0.255 C 
HETATM    3  O   UNL     1     -43.654  56.589 -56.832  1.00  0.00    -0.270 OA
HETATM    4  H   UNL     1     -42.246  58.952 -55.157  1.00  0.00     0.192 HD
ENDROOT
BRANCH   1   5
HETATM    5  N   UNL     1     -42.062  58.856 -57.224  1.00  0.00    -0.184 NA
HETATM    6  C   UNL     1     -42.777  59.801 -57.742  1.00  0.00     0.153 C 
BRANCH   6   7
HETATM    7  C   UNL     1     -42.427  60.344 -59.043  1.00  0.00     0.018 A 
HETATM    8  C   UNL     1     -43.050  59.987 -60.232  1.00  0.00     0.018 A 
HETATM    9  C   UNL     1     -44.156  59.034 -60.510  1.00  0.00     0.069 C 
HETATM   10  N   UNL     1     -42.459  60.704 -61.244  1.00  0.00    -0.358 N 
HETATM   11  H   UNL     1     -42.711  60.650 -62.222  1.00  0.00     0.166 HD
HETATM   12  C   UNL     1     -41.470  61.518 -60.751  1.00  0.00     0.043 A 
HETATM   13  C   UNL     1     -41.424  61.318 -59.371  1.00  0.00     0.004 A 
HETATM   14  C   UNL     1     -40.622  62.410 -61.420  1.00  0.00     0.030 A 
HETATM   15  C   UNL     1     -40.474  62.052 -58.626  1.00  0.00     0.014 A 
HETATM   16  C   UNL     1     -39.618  62.947 -59.278  1.00  0.00     0.001 A 
HETATM   17  C   UNL     1     -39.694  63.122 -60.656  1.00  0.00     0.002 A 
ENDBRANCH   6   7
ENDBRANCH   1   5
BRANCH   2  18
HETATM   18  C   UNL     1     -43.584  56.921 -54.447  1.00  0.00     0.227 C 
BRANCH  18  19
HETATM   19  N   UNL     1     -42.783  55.810 -53.958  1.00  0.00    -0.349 N 
HETATM   20  C   UNL     1     -41.513  55.995 -53.483  1.00  0.00     0.241 C 
HETATM   21  O   UNL     1     -41.000  57.103 -53.361  1.00  0.00    -0.269 OA
HETATM   22  H   UNL     1     -43.216  54.896 -53.937  1.00  0.00     0.163 HD
BRANCH  20  23
HETATM   23  C   UNL     1     -40.840  54.733 -53.098  1.00  0.00     0.075 C 
HETATM   24  C   UNL     1     -41.149  53.593 -53.734  1.00  0.00     0.017 C 
BRANCH  24  25
HETATM   25  C   UNL     1     -40.546  52.283 -53.440  1.00  0.00    -0.036 A 
HETATM   26  C   UNL     1     -39.991  51.966 -52.192  1.00  0.00     0.011 A 
HETATM   27  C   UNL     1     -39.453  50.698 -51.953  1.00  0.00     0.001 A 
HETATM   28  C   UNL     1     -39.477  49.728 -52.952  1.00  0.00     0.000 A 
HETATM   29  C   UNL     1     -40.042  50.023 -54.190  1.00  0.00     0.001 A 
HETATM   30  C   UNL     1     -40.578  51.292 -54.430  1.00  0.00     0.011 A 
ENDBRANCH  24  25
ENDBRANCH  20  23
ENDBRANCH  18  19
ENDBRANCH   2  18
TORSDOF 6
ENDMDL
MODEL 9
REMARK VINA RESULT:      -7.7     15.680     18.475
REMARK  6 active torsions:
REMARK  status: ('A' for Active; 'I' for Inactive)
REMARK    1  A    between atoms: C_7  and  C_8 
REMARK    2  A    between atoms: N_9  and  N_10 
REMARK       I    between atoms: N_10  and  C_11 
REMARK    3  A    between atoms: C_11  and  C_12 
REMARK    4  A    between atoms: C_12  and  N_13 
REMARK       I    between atoms: N_13  and  C_14 
REMARK    5  A    between atoms: C_14  and  C_15 
REMARK    6  A    between atoms: C_16  and  C_17 
ROOT
HETATM    1  N   UNL     1     -39.846  40.210 -51.709  1.00  0.00    -0.246 N 
HETATM    2  C   UNL     1     -41.165  40.010 -52.090  1.00  0.00     0.255 C 
HETATM    3  O   UNL     1     -41.685  40.415 -53.129  1.00  0.00    -0.270 OA
HETATM    4  H   UNL     1     -39.535  39.883 -50.790  1.00  0.00     0.192 HD
ENDROOT
BRANCH   1   5
HETATM    5  N   UNL     1     -39.002  40.915 -52.514  1.00  0.00    -0.184 NA
HETATM    6  C   UNL     1     -37.786  40.478 -52.569  1.00  0.00     0.153 C 
BRANCH   6   7
HETATM    7  C   UNL     1     -36.809  41.156 -53.402  1.00  0.00     0.018 A 
HETATM    8  C   UNL     1     -35.629  41.714 -52.927  1.00  0.00     0.018 A 
HETATM    9  C   UNL     1     -35.061  41.780 -51.556  1.00  0.00     0.069 C 
HETATM   10  N   UNL     1     -34.965  42.260 -53.999  1.00  0.00    -0.358 N 
HETATM   11  H   UNL     1     -34.073  42.734 -53.952  1.00  0.00     0.166 HD
HETATM   12  C   UNL     1     -35.676  42.075 -55.158  1.00  0.00     0.043 A 
HETATM   13  C   UNL     1     -36.839  41.384 -54.820  1.00  0.00     0.004 A 
HETATM   14  C   UNL     1     -35.375  42.465 -56.469  1.00  0.00     0.030 A 
HETATM   15  C   UNL     1     -37.748  41.070 -55.855  1.00  0.00     0.014 A 
HETATM   16  C   UNL     1     -37.465  41.452 -57.171  1.00  0.00     0.001 A 
HETATM   17  C   UNL     1     -36.292  42.139 -57.471  1.00  0.00     0.002 A 
ENDBRANCH   6   7
ENDBRANCH   1   5
BRANCH   2  18
HETATM   18  C   UNL     1     -41.950  39.174 -51.080  1.00  0.00     0.227 C 
BRANCH  18  19
HETATM   19  N   UNL     1     -41.442  39.323 -49.726  1.00  0.00    -0.349 N 
HETATM   20  C   UNL     1     -41.041  38.242 -48.988  1.00  0.00     0.241 C 
HETATM   21  O   UNL     1     -41.004  37.101 -49.439  1.00  0.00    -0.269 OA
HETATM   22  H   UNL     1     -41.350  40.261 -49.361  1.00  0.00     0.163 HD
BRANCH  20  23
HETATM   23  C   UNL     1     -40.622  38.593 -47.611  1.00  0.00     0.075 C 
HETATM   24  C   UNL     1     -41.500  39.163 -46.773  1.00  0.00     0.017 C 
BRANCH  24  25
HETATM   25  C   UNL     1     -41.198  39.554 -45.386  1.00  0.00    -0.036 A 
HETATM   26  C   UNL     1     -41.404  40.853 -44.901  1.00  0.00     0.011 A 
HETATM   27  C   UNL     1     -41.126  41.168 -43.568  1.00  0.00     0.001 A 
HETATM   28  C   UNL     1     -40.654  40.186 -42.701  1.00  0.00     0.000 A 
HETATM   29  C   UNL     1     -40.464  38.887 -43.164  1.00  0.00     0.001 A 
HETATM   30  C   UNL     1     -40.740  38.572 -44.498  1.00  0.00     0.011 A 
ENDBRANCH  24  25
ENDBRANCH  20  23
ENDBRANCH  18  19
ENDBRANCH   2  18
TORSDOF 6
ENDMDL
MODEL 10
REMARK VINA RESULT:      -7.6      1.765      8.172
REMARK  6 active torsions:
REMARK  status: ('A' for Active; 'I' for Inactive)
REMARK    1  A    between atoms: C_7  and  C_8 
REMARK    2  A    between atoms: N_9  and  N_10 
REMARK       I    between atoms: N_10  and  C_11 
REMARK    3  A    between atoms: C_11  and  C_12 
REMARK    4  A    between atoms: C_12  and  N_13 
REMARK       I    between atoms: N_13  and  C_14 
REMARK    5  A    between atoms: C_14  and  C_15 
REMARK    6  A    between atoms: C_16  and  C_17 
ROOT
HETATM    1  N   UNL     1     -41.955  58.123 -55.072  1.00  0.00    -0.246 N 
HETATM    2  C   UNL     1     -42.336  58.411 -53.769  1.00  0.00     0.255 C 
HETATM    3  O   UNL     1     -43.427  58.856 -53.418  1.00  0.00    -0.270 OA
HETATM    4  H   UNL     1     -40.997  57.816 -55.258  1.00  0.00     0.192 HD
ENDROOT
BRANCH   1   5
HETATM    5  N   UNL     1     -42.824  58.336 -56.100  1.00  0.00    -0.184 NA
HETATM    6  C   UNL     1     -43.503  57.304 -56.483  1.00  0.00     0.153 C 
BRANCH   6   7
HETATM    7  C   UNL     1     -44.460  57.428 -57.568  1.00  0.00     0.018 A 
HETATM    8  C   UNL     1     -45.405  58.442 -57.666  1.00  0.00     0.018 A 
HETATM    9  C   UNL     1     -45.695  59.597 -56.778  1.00  0.00     0.069 C 
HETATM   10  N   UNL     1     -46.124  58.232 -58.818  1.00  0.00    -0.358 N 
HETATM   11  H   UNL     1     -46.879  58.816 -59.148  1.00  0.00     0.166 HD
HETATM   12  C   UNL     1     -45.676  57.112 -59.474  1.00  0.00     0.043 A 
HETATM   13  C   UNL     1     -44.631  56.583 -58.717  1.00  0.00     0.004 A 
HETATM   14  C   UNL     1     -46.116  56.537 -60.673  1.00  0.00     0.030 A 
HETATM   15  C   UNL     1     -43.996  55.413 -59.190  1.00  0.00     0.014 A 
HETATM   16  C   UNL     1     -44.423  54.823 -60.385  1.00  0.00     0.001 A 
HETATM   17  C   UNL     1     -45.469  55.380 -61.115  1.00  0.00     0.002 A 
ENDBRANCH   6   7
ENDBRANCH   1   5
BRANCH   2  18
HETATM   18  C   UNL     1     -41.246  58.080 -52.751  1.00  0.00     0.227 C 
BRANCH  18  19
HETATM   19  N   UNL     1     -41.031  56.648 -52.615  1.00  0.00    -0.349 N 
HETATM   20  C   UNL     1     -41.485  55.955 -51.526  1.00  0.00     0.241 C 
HETATM   21  O   UNL     1     -42.165  56.469 -50.643  1.00  0.00    -0.269 OA
HETATM   22  H   UNL     1     -40.573  56.169 -53.379  1.00  0.00     0.163 HD
BRANCH  20  23
HETATM   23  C   UNL     1     -41.107  54.523 -51.541  1.00  0.00     0.075 C 
HETATM   24  C   UNL     1     -40.646  53.968 -52.672  1.00  0.00     0.017 C 
BRANCH  24  25
HETATM   25  C   UNL     1     -40.238  52.560 -52.805  1.00  0.00    -0.036 A 
HETATM   26  C   UNL     1     -39.760  51.803 -51.727  1.00  0.00     0.011 A 
HETATM   27  C   UNL     1     -39.410  50.460 -51.899  1.00  0.00     0.001 A 
HETATM   28  C   UNL     1     -39.549  49.856 -53.146  1.00  0.00     0.000 A 
HETATM   29  C   UNL     1     -40.041  50.590 -54.220  1.00  0.00     0.001 A 
HETATM   30  C   UNL     1     -40.389  51.934 -54.049  1.00  0.00     0.011 A 
ENDBRANCH  24  25
ENDBRANCH  20  23
ENDBRANCH  18  19
ENDBRANCH   2  18
TORSDOF 6
ENDMDL
