MODEL 1
REMARK VINA RESULT:      -7.2      0.000      0.000
REMARK  7 active torsions:
REMARK  status: ('A' for Active; 'I' for Inactive)
REMARK    1  A    between atoms: C_2  and  C_3 
REMARK    2  A    between atoms: C_3  and  O_4 
REMARK    3  A    between atoms: O_4  and  C_5 
REMARK    4  A    between atoms: C_8  and  C_9 
REMARK    5  A    between atoms: C_9  and  N_10 
REMARK    6  A    between atoms: N_10  and  C_11 
REMARK    7  A    between atoms: C_18  and  C_19 
REMARK       I    between atoms: C_19  and  N_20 
ROOT
HETATM    1  C   UNL     1     -43.363  58.470 -56.352  1.00  0.00     0.009 A 
HETATM    2  C   UNL     1     -43.893  57.452 -57.165  1.00  0.00     0.039 A 
HETATM    3  C   UNL     1     -43.380  57.228 -58.460  1.00  0.00     0.030 A 
HETATM    4  C   UNL     1     -42.318  58.006 -58.899  1.00  0.00     0.063 A 
HETATM    5  N   UNL     1     -42.039  57.559 -60.160  1.00  0.00    -0.277 N 
HETATM    6  H   UNL     1     -41.315  57.899 -60.784  1.00  0.00     0.189 HD
HETATM    7  N   UNL     1     -42.828  56.559 -60.585  1.00  0.00    -0.168 NA
HETATM    8  C   UNL     1     -43.661  56.340 -59.541  1.00  0.00     0.156 A 
HETATM    9  C   UNL     1     -41.732  58.998 -58.114  1.00  0.00     0.034 A 
HETATM   10  C   UNL     1     -42.268  59.201 -56.833  1.00  0.00     0.026 A 
ENDROOT
BRANCH   1  11
HETATM   11  N   UNL     1     -43.861  58.603 -55.050  1.00  0.00    -0.289 NA
HETATM   12  H   UNL     1     -44.416  59.450 -54.938  1.00  0.00     0.128 HD
BRANCH  11  13
HETATM   13  C   UNL     1     -42.980  58.370 -53.915  1.00  0.00     0.131 C 
BRANCH  13  14
HETATM   14  C   UNL     1     -42.600  56.909 -53.861  1.00  0.00    -0.045 A 
HETATM   15  C   UNL     1     -43.581  55.929 -53.654  1.00  0.00     0.011 A 
HETATM   16  C   UNL     1     -43.245  54.572 -53.625  1.00  0.00     0.037 A 
HETATM   17  C   UNL     1     -41.921  54.174 -53.804  1.00  0.00     0.068 A 
HETATM   18  C   UNL     1     -40.936  55.148 -53.987  1.00  0.00     0.037 A 
HETATM   19  C   UNL     1     -41.268  56.505 -54.016  1.00  0.00     0.011 A 
BRANCH  17  20
HETATM   20  O   UNL     1     -41.461  52.887 -53.813  1.00  0.00    -0.351 OA
BRANCH  20  21
HETATM   21  C   UNL     1     -40.194  52.656 -54.432  1.00  0.00     0.179 C 
BRANCH  21  22
HETATM   22  C   UNL     1     -39.533  51.437 -53.769  1.00  0.00     0.002 C 
HETATM   23  C   UNL     1     -40.167  50.130 -54.250  1.00  0.00     0.011 C 
HETATM   24  C   UNL     1     -39.624  51.543 -52.248  1.00  0.00     0.011 C 
ENDBRANCH  21  22
ENDBRANCH  20  21
ENDBRANCH  17  20
ENDBRANCH  13  14
ENDBRANCH  11  13
ENDBRANCH   1  11
BRANCH   8  25
HETATM   25  C   UNL     1     -44.701  55.305 -59.597  1.00  0.00     0.270 C 
HETATM   26  N   UNL     1     -45.976  55.796 -59.655  1.00  0.00    -0.365 N 
HETATM   27  H   UNL     1     -46.109  56.801 -59.653  1.00  0.00     0.159 HD
HETATM   28  H   UNL     1     -46.757  55.161 -59.696  1.00  0.00     0.159 HD
HETATM   29  O   UNL     1     -44.484  54.097 -59.593  1.00  0.00    -0.266 OA
ENDBRANCH   8  25
TORSDOF 7
ENDMDL
MODEL 2
REMARK VINA RESULT:      -7.0      1.016      1.475
REMARK  7 active torsions:
REMARK  status: ('A' for Active; 'I' for Inactive)
REMARK    1  A    between atoms: C_2  and  C_3 
REMARK    2  A    between atoms: C_3  and  O_4 
REMARK    3  A    between atoms: O_4  and  C_5 
REMARK    4  A    between atoms: C_8  and  C_9 
REMARK    5  A    between atoms: C_9  and  N_10 
REMARK    6  A    between atoms: N_10  and  C_11 
REMARK    7  A    between atoms: C_18  and  C_19 
REMARK       I    between atoms: C_19  and  N_20 
ROOT
HETATM    1  C   UNL     1     -43.686  58.872 -56.767  1.00  0.00     0.009 A 
HETATM    2  C   UNL     1     -44.110  57.719 -57.452  1.00  0.00     0.039 A 
HETATM    3  C   UNL     1     -43.384  57.236 -58.561  1.00  0.00     0.030 A 
HETATM    4  C   UNL     1     -42.225  57.900 -58.938  1.00  0.00     0.063 A 
HETATM    5  N   UNL     1     -41.746  57.208 -60.014  1.00  0.00    -0.277 N 
HETATM    6  H   UNL     1     -40.906  57.408 -60.547  1.00  0.00     0.189 HD
HETATM    7  N   UNL     1     -42.494  56.152 -60.377  1.00  0.00    -0.168 NA
HETATM    8  C   UNL     1     -43.510  56.155 -59.484  1.00  0.00     0.156 A 
HETATM    9  C   UNL     1     -41.742  59.021 -58.264  1.00  0.00     0.034 A 
HETATM   10  C   UNL     1     -42.489  59.480 -57.168  1.00  0.00     0.026 A 
ENDROOT
BRANCH   1  11
HETATM   11  N   UNL     1     -44.403  59.267 -55.630  1.00  0.00    -0.289 NA
HETATM   12  H   UNL     1     -45.094  59.984 -55.845  1.00  0.00     0.128 HD
BRANCH  11  13
HETATM   13  C   UNL     1     -43.692  59.545 -54.392  1.00  0.00     0.131 C 
BRANCH  13  14
HETATM   14  C   UNL     1     -43.100  58.264 -53.850  1.00  0.00    -0.045 A 
HETATM   15  C   UNL     1     -43.932  57.187 -53.513  1.00  0.00     0.011 A 
HETATM   16  C   UNL     1     -43.396  55.989 -53.031  1.00  0.00     0.037 A 
HETATM   17  C   UNL     1     -42.017  55.849 -52.882  1.00  0.00     0.068 A 
HETATM   18  C   UNL     1     -41.185  56.927 -53.194  1.00  0.00     0.037 A 
HETATM   19  C   UNL     1     -41.718  58.127 -53.674  1.00  0.00     0.011 A 
BRANCH  17  20
HETATM   20  O   UNL     1     -41.364  54.733 -52.439  1.00  0.00    -0.351 OA
BRANCH  20  21
HETATM   21  C   UNL     1     -41.616  53.514 -53.140  1.00  0.00     0.179 C 
BRANCH  21  22
HETATM   22  C   UNL     1     -40.338  53.094 -53.881  1.00  0.00     0.002 C 
HETATM   23  C   UNL     1     -40.133  53.923 -55.151  1.00  0.00     0.011 C 
HETATM   24  C   UNL     1     -40.383  51.606 -54.221  1.00  0.00     0.011 C 
ENDBRANCH  21  22
ENDBRANCH  20  21
ENDBRANCH  17  20
ENDBRANCH  13  14
ENDBRANCH  11  13
ENDBRANCH   1  11
BRANCH   8  25
HETATM   25  C   UNL     1     -44.571  55.142 -59.530  1.00  0.00     0.270 C 
HETATM   26  N   UNL     1     -45.825  55.654 -59.722  1.00  0.00    -0.365 N 
HETATM   27  H   UNL     1     -45.929  56.658 -59.813  1.00  0.00     0.159 HD
HETATM   28  H   UNL     1     -46.618  55.034 -59.768  1.00  0.00     0.159 HD
HETATM   29  O   UNL     1     -44.388  53.934 -59.410  1.00  0.00    -0.266 OA
ENDBRANCH   8  25
TORSDOF 7
ENDMDL
MODEL 3
REMARK VINA RESULT:      -7.0     15.710     17.290
REMARK  7 active torsions:
REMARK  status: ('A' for Active; 'I' for Inactive)
REMARK    1  A    between atoms: C_2  and  C_3 
REMARK    2  A    between atoms: C_3  and  O_4 
REMARK    3  A    between atoms: O_4  and  C_5 
REMARK    4  A    between atoms: C_8  and  C_9 
REMARK    5  A    between atoms: C_9  and  N_10 
REMARK    6  A    between atoms: N_10  and  C_11 
REMARK    7  A    between atoms: C_18  and  C_19 
REMARK       I    between atoms: C_19  and  N_20 
ROOT
HETATM    1  C   UNL     1     -37.390  39.287 -60.284  1.00  0.00     0.009 A 
HETATM    2  C   UNL     1     -38.731  38.878 -60.395  1.00  0.00     0.039 A 
HETATM    3  C   UNL     1     -39.206  38.292 -61.586  1.00  0.00     0.030 A 
HETATM    4  C   UNL     1     -38.315  38.093 -62.631  1.00  0.00     0.063 A 
HETATM    5  N   UNL     1     -39.048  37.510 -63.626  1.00  0.00    -0.277 N 
HETATM    6  H   UNL     1     -38.718  37.219 -64.540  1.00  0.00     0.189 HD
HETATM    7  N   UNL     1     -40.343  37.314 -63.324  1.00  0.00    -0.168 NA
HETATM    8  C   UNL     1     -40.454  37.790 -62.062  1.00  0.00     0.156 A 
HETATM    9  C   UNL     1     -36.968  38.443 -62.554  1.00  0.00     0.034 A 
HETATM   10  C   UNL     1     -36.527  39.029 -61.357  1.00  0.00     0.026 A 
ENDROOT
BRANCH   1  11
HETATM   11  N   UNL     1     -36.954  39.799 -59.054  1.00  0.00    -0.289 NA
HETATM   12  H   UNL     1     -37.492  39.426 -58.274  1.00  0.00     0.128 HD
BRANCH  11  13
HETATM   13  C   UNL     1     -36.704  41.226 -58.918  1.00  0.00     0.131 C 
BRANCH  13  14
HETATM   14  C   UNL     1     -36.501  41.567 -57.460  1.00  0.00    -0.045 A 
HETATM   15  C   UNL     1     -35.287  42.118 -57.024  1.00  0.00     0.011 A 
HETATM   16  C   UNL     1     -35.094  42.459 -55.681  1.00  0.00     0.037 A 
HETATM   17  C   UNL     1     -36.115  42.255 -54.754  1.00  0.00     0.068 A 
HETATM   18  C   UNL     1     -37.317  41.684 -55.178  1.00  0.00     0.037 A 
HETATM   19  C   UNL     1     -37.513  41.341 -56.519  1.00  0.00     0.011 A 
BRANCH  17  20
HETATM   20  O   UNL     1     -36.064  42.556 -53.422  1.00  0.00    -0.351 OA
BRANCH  20  21
HETATM   21  C   UNL     1     -36.678  41.630 -52.525  1.00  0.00     0.179 C 
BRANCH  21  22
HETATM   22  C   UNL     1     -35.599  41.043 -51.600  1.00  0.00     0.002 C 
HETATM   23  C   UNL     1     -34.510  42.073 -51.294  1.00  0.00     0.011 C 
HETATM   24  C   UNL     1     -34.985  39.792 -52.224  1.00  0.00     0.011 C 
ENDBRANCH  21  22
ENDBRANCH  20  21
ENDBRANCH  17  20
ENDBRANCH  13  14
ENDBRANCH  11  13
ENDBRANCH   1  11
BRANCH   8  25
HETATM   25  C   UNL     1     -41.736  37.762 -61.346  1.00  0.00     0.270 C 
HETATM   26  N   UNL     1     -42.690  38.586 -61.877  1.00  0.00    -0.365 N 
HETATM   27  H   UNL     1     -42.454  39.138 -62.694  1.00  0.00     0.159 HD
HETATM   28  H   UNL     1     -43.603  38.635 -61.452  1.00  0.00     0.159 HD
HETATM   29  O   UNL     1     -41.967  37.075 -60.356  1.00  0.00    -0.266 OA
ENDBRANCH   8  25
TORSDOF 7
ENDMDL
MODEL 4
REMARK VINA RESULT:      -6.9      3.680      8.308
REMARK  7 active torsions:
REMARK  status: ('A' for Active; 'I' for Inactive)
REMARK    1  A    between atoms: C_2  and  C_3 
REMARK    2  A    between atoms: C_3  and  O_4 
REMARK    3  A    between atoms: O_4  and  C_5 
REMARK    4  A    between atoms: C_8  and  C_9 
REMARK    5  A    between atoms: C_9  and  N_10 
REMARK    6  A    between atoms: N_10  and  C_11 
REMARK    7  A    between atoms: C_18  and  C_19 
REMARK       I    between atoms: C_19  and  N_20 
ROOT
HETATM    1  C   UNL     1     -40.715  53.993 -54.484  1.00  0.00     0.009 A 
HETATM    2  C   UNL     1     -41.087  54.378 -53.183  1.00  0.00     0.039 A 
HETATM    3  C   UNL     1     -40.808  53.543 -52.081  1.00  0.00     0.030 A 
HETATM    4  C   UNL     1     -40.128  52.353 -52.303  1.00  0.00     0.063 A 
HETATM    5  N   UNL     1     -39.998  51.777 -51.071  1.00  0.00    -0.277 N 
HETATM    6  H   UNL     1     -39.546  50.896 -50.852  1.00  0.00     0.189 HD
HETATM    7  N   UNL     1     -40.537  52.483 -50.063  1.00  0.00    -0.168 NA
HETATM    8  C   UNL     1     -41.040  53.581 -50.674  1.00  0.00     0.156 A 
HETATM    9  C   UNL     1     -39.703  51.949 -53.567  1.00  0.00     0.034 A 
HETATM   10  C   UNL     1     -39.999  52.800 -54.644  1.00  0.00     0.026 A 
ENDROOT
BRANCH   1  11
HETATM   11  N   UNL     1     -40.953  54.892 -55.533  1.00  0.00    -0.289 NA
HETATM   12  H   UNL     1     -40.097  55.131 -56.031  1.00  0.00     0.128 HD
BRANCH  11  13
HETATM   13  C   UNL     1     -41.798  56.054 -55.305  1.00  0.00     0.131 C 
BRANCH  13  14
HETATM   14  C   UNL     1     -42.513  56.419 -56.586  1.00  0.00    -0.045 A 
HETATM   15  C   UNL     1     -42.957  55.416 -57.459  1.00  0.00     0.011 A 
HETATM   16  C   UNL     1     -43.639  55.739 -58.636  1.00  0.00     0.037 A 
HETATM   17  C   UNL     1     -43.890  57.073 -58.956  1.00  0.00     0.068 A 
HETATM   18  C   UNL     1     -43.429  58.077 -58.101  1.00  0.00     0.037 A 
HETATM   19  C   UNL     1     -42.746  57.757 -56.925  1.00  0.00     0.011 A 
BRANCH  17  20
HETATM   20  O   UNL     1     -44.556  57.524 -60.061  1.00  0.00    -0.351 OA
BRANCH  20  21
HETATM   21  C   UNL     1     -45.475  58.601 -59.869  1.00  0.00     0.179 C 
BRANCH  21  22
HETATM   22  C   UNL     1     -46.865  58.019 -59.565  1.00  0.00     0.002 C 
HETATM   23  C   UNL     1     -47.125  57.958 -58.058  1.00  0.00     0.011 C 
HETATM   24  C   UNL     1     -47.009  56.631 -60.185  1.00  0.00     0.011 C 
ENDBRANCH  21  22
ENDBRANCH  20  21
ENDBRANCH  17  20
ENDBRANCH  13  14
ENDBRANCH  11  13
ENDBRANCH   1  11
BRANCH   8  25
HETATM   25  C   UNL     1     -41.727  54.631 -49.912  1.00  0.00     0.270 C 
HETATM   26  N   UNL     1     -43.063  54.740 -50.189  1.00  0.00    -0.365 N 
HETATM   27  H   UNL     1     -43.467  54.113 -50.876  1.00  0.00     0.159 HD
HETATM   28  H   UNL     1     -43.619  55.433 -49.715  1.00  0.00     0.159 HD
HETATM   29  O   UNL     1     -41.186  55.367 -49.092  1.00  0.00    -0.266 OA
ENDBRANCH   8  25
TORSDOF 7
ENDMDL
MODEL 5
REMARK VINA RESULT:      -6.8      4.009      8.459
REMARK  7 active torsions:
REMARK  status: ('A' for Active; 'I' for Inactive)
REMARK    1  A    between atoms: C_2  and  C_3 
REMARK    2  A    between atoms: C_3  and  O_4 
REMARK    3  A    between atoms: O_4  and  C_5 
REMARK    4  A    between atoms: C_8  and  C_9 
REMARK    5  A    between atoms: C_9  and  N_10 
REMARK    6  A    between atoms: N_10  and  C_11 
REMARK    7  A    between atoms: C_18  and  C_19 
REMARK       I    between atoms: C_19  and  N_20 
ROOT
HETATM    1  C   UNL     1     -40.951  54.455 -54.576  1.00  0.00     0.009 A 
HETATM    2  C   UNL     1     -40.560  53.118 -54.382  1.00  0.00     0.039 A 
HETATM    3  C   UNL     1     -40.292  52.630 -53.086  1.00  0.00     0.030 A 
HETATM    4  C   UNL     1     -40.459  53.485 -52.005  1.00  0.00     0.063 A 
HETATM    5  N   UNL     1     -40.142  52.742 -50.904  1.00  0.00    -0.277 N 
HETATM    6  H   UNL     1     -40.156  53.044 -49.936  1.00  0.00     0.189 HD
HETATM    7  N   UNL     1     -39.778  51.476 -51.170  1.00  0.00    -0.168 NA
HETATM    8  C   UNL     1     -39.870  51.391 -52.518  1.00  0.00     0.156 A 
HETATM    9  C   UNL     1     -40.885  54.805 -52.144  1.00  0.00     0.034 A 
HETATM   10  C   UNL     1     -41.138  55.262 -53.447  1.00  0.00     0.026 A 
ENDROOT
BRANCH   1  11
HETATM   11  N   UNL     1     -41.272  54.868 -55.876  1.00  0.00    -0.289 NA
HETATM   12  H   UNL     1     -40.728  55.679 -56.165  1.00  0.00     0.128 HD
BRANCH  11  13
HETATM   13  C   UNL     1     -42.668  54.975 -56.271  1.00  0.00     0.131 C 
BRANCH  13  14
HETATM   14  C   UNL     1     -42.812  56.033 -57.341  1.00  0.00    -0.045 A 
HETATM   15  C   UNL     1     -42.487  57.368 -57.064  1.00  0.00     0.011 A 
HETATM   16  C   UNL     1     -42.594  58.353 -58.052  1.00  0.00     0.037 A 
HETATM   17  C   UNL     1     -43.027  58.014 -59.333  1.00  0.00     0.068 A 
HETATM   18  C   UNL     1     -43.376  56.690 -59.607  1.00  0.00     0.037 A 
HETATM   19  C   UNL     1     -43.271  55.704 -58.622  1.00  0.00     0.011 A 
BRANCH  17  20
HETATM   20  O   UNL     1     -43.162  58.872 -60.389  1.00  0.00    -0.351 OA
BRANCH  20  21
HETATM   21  C   UNL     1     -41.971  59.491 -60.877  1.00  0.00     0.179 C 
BRANCH  21  22
HETATM   22  C   UNL     1     -42.111  61.015 -60.736  1.00  0.00     0.002 C 
HETATM   23  C   UNL     1     -41.621  61.738 -61.993  1.00  0.00     0.011 C 
HETATM   24  C   UNL     1     -41.347  61.510 -59.509  1.00  0.00     0.011 C 
ENDBRANCH  21  22
ENDBRANCH  20  21
ENDBRANCH  17  20
ENDBRANCH  13  14
ENDBRANCH  11  13
ENDBRANCH   1  11
BRANCH   8  25
HETATM   25  C   UNL     1     -39.552  50.146 -53.228  1.00  0.00     0.270 C 
HETATM   26  N   UNL     1     -39.388  49.062 -52.410  1.00  0.00    -0.365 N 
HETATM   27  H   UNL     1     -39.492  49.191 -51.410  1.00  0.00     0.159 HD
HETATM   28  H   UNL     1     -39.167  48.163 -52.807  1.00  0.00     0.159 HD
HETATM   29  O   UNL     1     -39.434  50.048 -54.446  1.00  0.00    -0.266 OA
ENDBRANCH   8  25
TORSDOF 7
ENDMDL
MODEL 6
REMARK VINA RESULT:      -6.8      2.063      2.438
REMARK  7 active torsions:
REMARK  status: ('A' for Active; 'I' for Inactive)
REMARK    1  A    between atoms: C_2  and  C_3 
REMARK    2  A    between atoms: C_3  and  O_4 
REMARK    3  A    between atoms: O_4  and  C_5 
REMARK    4  A    between atoms: C_8  and  C_9 
REMARK    5  A    between atoms: C_9  and  N_10 
REMARK    6  A    between atoms: N_10  and  C_11 
REMARK    7  A    between atoms: C_18  and  C_19 
REMARK       I    between atoms: C_19  and  N_20 
ROOT
HETATM    1  C   UNL     1     -42.698  57.205 -57.311  1.00  0.00     0.009 A 
HETATM    2  C   UNL     1     -43.692  56.763 -58.203  1.00  0.00     0.039 A 
HETATM    3  C   UNL     1     -44.346  57.675 -59.057  1.00  0.00     0.030 A 
HETATM    4  C   UNL     1     -43.963  59.009 -59.026  1.00  0.00     0.063 A 
HETATM    5  N   UNL     1     -44.751  59.633 -59.951  1.00  0.00    -0.277 N 
HETATM    6  H   UNL     1     -44.742  60.616 -60.199  1.00  0.00     0.189 HD
HETATM    7  N   UNL     1     -45.619  58.825 -60.582  1.00  0.00    -0.168 NA
HETATM    8  C   UNL     1     -45.378  57.608 -60.041  1.00  0.00     0.156 A 
HETATM    9  C   UNL     1     -42.955  59.487 -58.190  1.00  0.00     0.034 A 
HETATM   10  C   UNL     1     -42.327  58.555 -57.348  1.00  0.00     0.026 A 
ENDROOT
BRANCH   1  11
HETATM   11  N   UNL     1     -42.031  56.247 -56.536  1.00  0.00    -0.289 NA
HETATM   12  H   UNL     1     -41.058  56.141 -56.816  1.00  0.00     0.128 HD
BRANCH  11  13
HETATM   13  C   UNL     1     -42.670  54.967 -56.271  1.00  0.00     0.131 C 
BRANCH  13  14
HETATM   14  C   UNL     1     -42.085  54.359 -55.017  1.00  0.00    -0.045 A 
HETATM   15  C   UNL     1     -42.788  54.421 -53.805  1.00  0.00     0.011 A 
HETATM   16  C   UNL     1     -42.267  53.843 -52.643  1.00  0.00     0.037 A 
HETATM   17  C   UNL     1     -41.036  53.191 -52.677  1.00  0.00     0.068 A 
HETATM   18  C   UNL     1     -40.320  53.147 -53.876  1.00  0.00     0.037 A 
HETATM   19  C   UNL     1     -40.837  53.725 -55.039  1.00  0.00     0.011 A 
BRANCH  17  20
HETATM   20  O   UNL     1     -40.423  52.574 -51.622  1.00  0.00    -0.351 OA
BRANCH  20  21
HETATM   21  C   UNL     1     -39.190  51.903 -51.892  1.00  0.00     0.179 C 
BRANCH  21  22
HETATM   22  C   UNL     1     -39.320  50.434 -51.459  1.00  0.00     0.002 C 
HETATM   23  C   UNL     1     -39.772  49.549 -52.622  1.00  0.00     0.011 C 
HETATM   24  C   UNL     1     -40.291  50.307 -50.287  1.00  0.00     0.011 C 
ENDBRANCH  21  22
ENDBRANCH  20  21
ENDBRANCH  17  20
ENDBRANCH  13  14
ENDBRANCH  11  13
ENDBRANCH   1  11
BRANCH   8  25
HETATM   25  C   UNL     1     -46.130  56.421 -60.465  1.00  0.00     0.270 C 
HETATM   26  N   UNL     1     -45.447  55.605 -61.325  1.00  0.00    -0.365 N 
HETATM   27  H   UNL     1     -44.508  55.869 -61.600  1.00  0.00     0.159 HD
HETATM   28  H   UNL     1     -45.882  54.765 -61.672  1.00  0.00     0.159 HD
HETATM   29  O   UNL     1     -47.271  56.151 -60.103  1.00  0.00    -0.266 OA
ENDBRANCH   8  25
TORSDOF 7
ENDMDL
MODEL 7
REMARK VINA RESULT:      -6.7      2.312      3.197
REMARK  7 active torsions:
REMARK  status: ('A' for Active; 'I' for Inactive)
REMARK    1  A    between atoms: C_2  and  C_3 
REMARK    2  A    between atoms: C_3  and  O_4 
REMARK    3  A    between atoms: O_4  and  C_5 
REMARK    4  A    between atoms: C_8  and  C_9 
REMARK    5  A    between atoms: C_9  and  N_10 
REMARK    6  A    between atoms: N_10  and  C_11 
REMARK    7  A    between atoms: C_18  and  C_19 
REMARK       I    between atoms: C_19  and  N_20 
ROOT
HETATM    1  C   UNL     1     -43.287  56.314 -58.322  1.00  0.00     0.009 A 
HETATM    2  C   UNL     1     -44.351  57.227 -58.197  1.00  0.00     0.039 A 
HETATM    3  C   UNL     1     -45.377  57.269 -59.163  1.00  0.00     0.030 A 
HETATM    4  C   UNL     1     -45.335  56.368 -60.219  1.00  0.00     0.063 A 
HETATM    5  N   UNL     1     -46.444  56.639 -60.969  1.00  0.00    -0.277 N 
HETATM    6  H   UNL     1     -46.738  56.170 -61.819  1.00  0.00     0.189 HD
HETATM    7  N   UNL     1     -47.205  57.642 -60.500  1.00  0.00    -0.168 NA
HETATM    8  C   UNL     1     -46.559  58.039 -59.379  1.00  0.00     0.156 A 
HETATM    9  C   UNL     1     -44.325  55.418 -60.363  1.00  0.00     0.034 A 
HETATM   10  C   UNL     1     -43.316  55.405 -59.387  1.00  0.00     0.026 A 
ENDROOT
BRANCH   1  11
HETATM   11  N   UNL     1     -42.333  56.266 -57.297  1.00  0.00    -0.289 NA
HETATM   12  H   UNL     1     -41.885  55.354 -57.236  1.00  0.00     0.128 HD
BRANCH  11  13
HETATM   13  C   UNL     1     -42.659  56.807 -55.986  1.00  0.00     0.131 C 
BRANCH  13  14
HETATM   14  C   UNL     1     -42.289  55.804 -54.919  1.00  0.00    -0.045 A 
HETATM   15  C   UNL     1     -43.282  55.231 -54.110  1.00  0.00     0.011 A 
HETATM   16  C   UNL     1     -42.955  54.285 -53.134  1.00  0.00     0.037 A 
HETATM   17  C   UNL     1     -41.629  53.895 -52.953  1.00  0.00     0.068 A 
HETATM   18  C   UNL     1     -40.634  54.480 -53.739  1.00  0.00     0.037 A 
HETATM   19  C   UNL     1     -40.957  55.427 -54.715  1.00  0.00     0.011 A 
BRANCH  17  20
HETATM   20  O   UNL     1     -41.178  52.974 -52.049  1.00  0.00    -0.351 OA
BRANCH  20  21
HETATM   21  C   UNL     1     -39.767  52.920 -51.831  1.00  0.00     0.179 C 
BRANCH  21  22
HETATM   22  C   UNL     1     -39.307  51.456 -51.920  1.00  0.00     0.002 C 
HETATM   23  C   UNL     1     -39.648  50.848 -53.282  1.00  0.00     0.011 C 
HETATM   24  C   UNL     1     -39.934  50.630 -50.799  1.00  0.00     0.011 C 
ENDBRANCH  21  22
ENDBRANCH  20  21
ENDBRANCH  17  20
ENDBRANCH  13  14
ENDBRANCH  11  13
ENDBRANCH   1  11
BRANCH   8  25
HETATM   25  C   UNL     1     -47.072  59.136 -58.550  1.00  0.00     0.270 C 
HETATM   26  N   UNL     1     -47.725  58.724 -57.420  1.00  0.00    -0.365 N 
HETATM   27  H   UNL     1     -47.807  57.729 -57.244  1.00  0.00     0.159 HD
HETATM   28  H   UNL     1     -48.114  59.405 -56.788  1.00  0.00     0.159 HD
HETATM   29  O   UNL     1     -46.948  60.328 -58.813  1.00  0.00    -0.266 OA
ENDBRANCH   8  25
TORSDOF 7
ENDMDL
MODEL 8
REMARK VINA RESULT:      -6.6      3.160      5.771
REMARK  7 active torsions:
REMARK  status: ('A' for Active; 'I' for Inactive)
REMARK    1  A    between atoms: C_2  and  C_3 
REMARK    2  A    between atoms: C_3  and  O_4 
REMARK    3  A    between atoms: O_4  and  C_5 
REMARK    4  A    between atoms: C_8  and  C_9 
REMARK    5  A    between atoms: C_9  and  N_10 
REMARK    6  A    between atoms: N_10  and  C_11 
REMARK    7  A    between atoms: C_18  and  C_19 
REMARK       I    between atoms: C_19  and  N_20 
ROOT
HETATM    1  C   UNL     1     -43.053  58.259 -54.848  1.00  0.00     0.009 A 
HETATM    2  C   UNL     1     -42.281  58.514 -53.701  1.00  0.00     0.039 A 
HETATM    3  C   UNL     1     -42.738  59.412 -52.714  1.00  0.00     0.030 A 
HETATM    4  C   UNL     1     -43.980  60.009 -52.881  1.00  0.00     0.063 A 
HETATM    5  N   UNL     1     -44.151  60.803 -51.782  1.00  0.00    -0.277 N 
HETATM    6  H   UNL     1     -44.951  61.386 -51.566  1.00  0.00     0.189 HD
HETATM    7  N   UNL     1     -43.126  60.781 -50.913  1.00  0.00    -0.168 NA
HETATM    8  C   UNL     1     -42.246  59.921 -51.475  1.00  0.00     0.156 A 
HETATM    9  C   UNL     1     -44.800  59.755 -53.979  1.00  0.00     0.034 A 
HETATM   10  C   UNL     1     -44.315  58.860 -54.946  1.00  0.00     0.026 A 
ENDROOT
BRANCH   1  11
HETATM   11  N   UNL     1     -42.585  57.305 -55.762  1.00  0.00    -0.289 NA
HETATM   12  H   UNL     1     -42.483  57.692 -56.698  1.00  0.00     0.128 HD
BRANCH  11  13
HETATM   13  C   UNL     1     -43.176  55.975 -55.778  1.00  0.00     0.131 C 
BRANCH  13  14
HETATM   14  C   UNL     1     -42.419  55.073 -54.832  1.00  0.00    -0.045 A 
HETATM   15  C   UNL     1     -42.964  54.738 -53.584  1.00  0.00     0.011 A 
HETATM   16  C   UNL     1     -42.283  53.886 -52.708  1.00  0.00     0.037 A 
HETATM   17  C   UNL     1     -41.047  53.354 -53.070  1.00  0.00     0.068 A 
HETATM   18  C   UNL     1     -40.488  53.703 -54.301  1.00  0.00     0.037 A 
HETATM   19  C   UNL     1     -41.165  54.555 -55.178  1.00  0.00     0.011 A 
BRANCH  17  20
HETATM   20  O   UNL     1     -40.287  52.501 -52.318  1.00  0.00    -0.351 OA
BRANCH  20  21
HETATM   21  C   UNL     1     -39.344  51.687 -53.017  1.00  0.00     0.179 C 
BRANCH  21  22
HETATM   22  C   UNL     1     -39.981  50.316 -53.293  1.00  0.00     0.002 C 
HETATM   23  C   UNL     1     -39.614  49.303 -52.206  1.00  0.00     0.011 C 
HETATM   24  C   UNL     1     -39.556  49.797 -54.665  1.00  0.00     0.011 C 
ENDBRANCH  21  22
ENDBRANCH  20  21
ENDBRANCH  17  20
ENDBRANCH  13  14
ENDBRANCH  11  13
ENDBRANCH   1  11
BRANCH   8  25
HETATM   25  C   UNL     1     -40.964  59.610 -50.829  1.00  0.00     0.270 C 
HETATM   26  N   UNL     1     -41.073  59.259 -49.511  1.00  0.00    -0.365 N 
HETATM   27  H   UNL     1     -41.995  59.242 -49.090  1.00  0.00     0.159 HD
HETATM   28  H   UNL     1     -40.247  59.028 -48.984  1.00  0.00     0.159 HD
HETATM   29  O   UNL     1     -39.873  59.650 -51.389  1.00  0.00    -0.266 OA
ENDBRANCH   8  25
TORSDOF 7
ENDMDL
MODEL 9
REMARK VINA RESULT:      -6.6     15.537     18.432
REMARK  7 active torsions:
REMARK  status: ('A' for Active; 'I' for Inactive)
REMARK    1  A    between atoms: C_2  and  C_3 
REMARK    2  A    between atoms: C_3  and  O_4 
REMARK    3  A    between atoms: O_4  and  C_5 
REMARK    4  A    between atoms: C_8  and  C_9 
REMARK    5  A    between atoms: C_9  and  N_10 
REMARK    6  A    between atoms: N_10  and  C_11 
REMARK    7  A    between atoms: C_18  and  C_19 
REMARK       I    between atoms: C_19  and  N_20 
ROOT
HETATM    1  C   UNL     1     -36.494  41.282 -52.128  1.00  0.00     0.009 A 
HETATM    2  C   UNL     1     -35.218  41.053 -51.582  1.00  0.00     0.039 A 
HETATM    3  C   UNL     1     -35.010  40.008 -50.659  1.00  0.00     0.030 A 
HETATM    4  C   UNL     1     -36.081  39.188 -50.329  1.00  0.00     0.063 A 
HETATM    5  N   UNL     1     -35.581  38.280 -49.440  1.00  0.00    -0.277 N 
HETATM    6  H   UNL     1     -36.084  37.523 -48.989  1.00  0.00     0.189 HD
HETATM    7  N   UNL     1     -34.277  38.437 -49.155  1.00  0.00    -0.168 NA
HETATM    8  C   UNL     1     -33.910  39.501 -49.905  1.00  0.00     0.156 A 
HETATM    9  C   UNL     1     -37.354  39.349 -50.876  1.00  0.00     0.034 A 
HETATM   10  C   UNL     1     -37.529  40.402 -51.788  1.00  0.00     0.026 A 
ENDROOT
BRANCH   1  11
HETATM   11  N   UNL     1     -36.629  42.289 -53.094  1.00  0.00    -0.289 NA
HETATM   12  H   UNL     1     -37.580  42.347 -53.454  1.00  0.00     0.128 HD
BRANCH  11  13
HETATM   13  C   UNL     1     -35.634  42.410 -54.149  1.00  0.00     0.131 C 
BRANCH  13  14
HETATM   14  C   UNL     1     -36.254  42.035 -55.475  1.00  0.00    -0.045 A 
HETATM   15  C   UNL     1     -37.536  41.470 -55.523  1.00  0.00     0.011 A 
HETATM   16  C   UNL     1     -38.130  41.139 -56.745  1.00  0.00     0.037 A 
HETATM   17  C   UNL     1     -37.449  41.371 -57.939  1.00  0.00     0.068 A 
HETATM   18  C   UNL     1     -36.162  41.911 -57.896  1.00  0.00     0.037 A 
HETATM   19  C   UNL     1     -35.566  42.242 -56.676  1.00  0.00     0.011 A 
BRANCH  17  20
HETATM   20  O   UNL     1     -37.918  41.109 -59.196  1.00  0.00    -0.351 OA
BRANCH  20  21
HETATM   21  C   UNL     1     -37.543  39.860 -59.780  1.00  0.00     0.179 C 
BRANCH  21  22
HETATM   22  C   UNL     1     -38.688  38.855 -59.580  1.00  0.00     0.002 C 
HETATM   23  C   UNL     1     -38.301  37.759 -58.585  1.00  0.00     0.011 C 
HETATM   24  C   UNL     1     -39.094  38.237 -60.917  1.00  0.00     0.011 C 
ENDBRANCH  21  22
ENDBRANCH  20  21
ENDBRANCH  17  20
ENDBRANCH  13  14
ENDBRANCH  11  13
ENDBRANCH   1  11
BRANCH   8  25
HETATM   25  C   UNL     1     -32.533  40.010 -49.886  1.00  0.00     0.270 C 
HETATM   26  N   UNL     1     -31.929  40.035 -51.113  1.00  0.00    -0.365 N 
HETATM   27  H   UNL     1     -32.453  39.711 -51.918  1.00  0.00     0.159 HD
HETATM   28  H   UNL     1     -30.982  40.368 -51.199  1.00  0.00     0.159 HD
HETATM   29  O   UNL     1     -31.942  40.387 -48.878  1.00  0.00    -0.266 OA
ENDBRANCH   8  25
TORSDOF 7
ENDMDL
MODEL 10
REMARK VINA RESULT:      -6.6     15.432     18.101
REMARK  7 active torsions:
REMARK  status: ('A' for Active; 'I' for Inactive)
REMARK    1  A    between atoms: C_2  and  C_3 
REMARK    2  A    between atoms: C_3  and  O_4 
REMARK    3  A    between atoms: O_4  and  C_5 
REMARK    4  A    between atoms: C_8  and  C_9 
REMARK    5  A    between atoms: C_9  and  N_10 
REMARK    6  A    between atoms: N_10  and  C_11 
REMARK    7  A    between atoms: C_18  and  C_19 
REMARK       I    between atoms: C_19  and  N_20 
ROOT
HETATM    1  C   UNL     1     -36.197  41.491 -52.394  1.00  0.00     0.009 A 
HETATM    2  C   UNL     1     -37.106  40.527 -51.920  1.00  0.00     0.039 A 
HETATM    3  C   UNL     1     -36.752  39.668 -50.860  1.00  0.00     0.030 A 
HETATM    4  C   UNL     1     -35.504  39.817 -50.270  1.00  0.00     0.063 A 
HETATM    5  N   UNL     1     -35.453  38.870 -49.286  1.00  0.00    -0.277 N 
HETATM    6  H   UNL     1     -34.687  38.693 -48.646  1.00  0.00     0.189 HD
HETATM    7  N   UNL     1     -36.558  38.112 -49.184  1.00  0.00    -0.168 NA
HETATM    8  C   UNL     1     -37.372  38.596 -50.150  1.00  0.00     0.156 A 
HETATM    9  C   UNL     1     -34.586  40.784 -50.676  1.00  0.00     0.034 A 
HETATM   10  C   UNL     1     -34.967  41.621 -51.738  1.00  0.00     0.026 A 
ENDROOT
BRANCH   1  11
HETATM   11  N   UNL     1     -36.626  42.365 -53.401  1.00  0.00    -0.289 NA
HETATM   12  H   UNL     1     -37.589  42.185 -53.679  1.00  0.00     0.128 HD
BRANCH  11  13
HETATM   13  C   UNL     1     -35.764  42.621 -54.545  1.00  0.00     0.131 C 
BRANCH  13  14
HETATM   14  C   UNL     1     -36.394  42.045 -55.792  1.00  0.00    -0.045 A 
HETATM   15  C   UNL     1     -37.628  41.383 -55.722  1.00  0.00     0.011 A 
HETATM   16  C   UNL     1     -38.231  40.865 -56.872  1.00  0.00     0.037 A 
HETATM   17  C   UNL     1     -37.610  41.005 -58.112  1.00  0.00     0.068 A 
HETATM   18  C   UNL     1     -36.370  41.643 -58.185  1.00  0.00     0.037 A 
HETATM   19  C   UNL     1     -35.763  42.161 -57.037  1.00  0.00     0.011 A 
BRANCH  17  20
HETATM   20  O   UNL     1     -38.096  40.561 -59.310  1.00  0.00    -0.351 OA
BRANCH  20  21
HETATM   21  C   UNL     1     -37.157  39.968 -60.210  1.00  0.00     0.179 C 
BRANCH  21  22
HETATM   22  C   UNL     1     -37.748  38.656 -60.749  1.00  0.00     0.002 C 
HETATM   23  C   UNL     1     -37.820  38.664 -62.278  1.00  0.00     0.011 C 
HETATM   24  C   UNL     1     -39.133  38.410 -60.154  1.00  0.00     0.011 C 
ENDBRANCH  21  22
ENDBRANCH  20  21
ENDBRANCH  17  20
ENDBRANCH  13  14
ENDBRANCH  11  13
ENDBRANCH   1  11
BRANCH   8  25
HETATM   25  C   UNL     1     -38.708  38.031 -50.377  1.00  0.00     0.270 C 
HETATM   26  N   UNL     1     -39.731  38.815 -49.918  1.00  0.00    -0.365 N 
HETATM   27  H   UNL     1     -39.504  39.695 -49.469  1.00  0.00     0.159 HD
HETATM   28  H   UNL     1     -40.685  38.509 -50.028  1.00  0.00     0.159 HD
HETATM   29  O   UNL     1     -38.927  36.955 -50.925  1.00  0.00    -0.266 OA
ENDBRANCH   8  25
TORSDOF 7
ENDMDL
