MODEL 1
REMARK VINA RESULT:      -7.2      0.000      0.000
REMARK  4 active torsions:
REMARK  status: ('A' for Active; 'I' for Inactive)
REMARK    1  A    between atoms: O_2  and  C_3 
REMARK    2  A    between atoms: C_5  and  N_6 
REMARK    3  A    between atoms: N_6  and  C_7 
REMARK    4  A    between atoms: C_7  and  C_8 
ROOT
HETATM    1  N   UNL     1     -43.133  55.029 -56.259  1.00  0.00    -0.372 N 
HETATM    2  H   UNL     1     -42.924  54.038 -56.245  1.00  0.00     0.161 HD
ENDROOT
BRANCH   1   3
HETATM    3  C   UNL     1     -43.043  55.730 -57.438  1.00  0.00     0.103 A 
HETATM    4  C   UNL     1     -43.596  55.329 -58.662  1.00  0.00     0.085 A 
HETATM    5  C   UNL     1     -43.429  56.116 -59.801  1.00  0.00     0.073 A 
HETATM    6  C   UNL     1     -42.683  57.284 -59.716  1.00  0.00     0.053 A 
HETATM    7  C   UNL     1     -42.134  57.641 -58.499  1.00  0.00     0.092 A 
HETATM    8  N   UNL     1     -42.326  56.867 -57.423  1.00  0.00    -0.352 N 
HETATM    9  H   UNL     1     -41.904  57.144 -56.543  1.00  0.00     0.166 HD
BRANCH   5  10
HETATM   10  O   UNL     1     -43.923  55.850 -61.043  1.00  0.00    -0.356 OA
HETATM   11  C   UNL     1     -45.034  54.963 -61.139  1.00  0.00     0.210 C 
ENDBRANCH   5  10
ENDBRANCH   1   3
BRANCH   1  12
HETATM   12  C   UNL     1     -43.003  55.652 -54.944  1.00  0.00     0.160 C 
BRANCH  12  13
HETATM   13  C   UNL     1     -42.137  54.815 -54.033  1.00  0.00    -0.036 A 
HETATM   14  C   UNL     1     -41.636  53.564 -54.467  1.00  0.00     0.031 A 
HETATM   15  C   UNL     1     -40.826  52.786 -53.633  1.00  0.00     0.047 A 
HETATM   16 BR   UNL     1     -40.161  51.131 -54.248  1.00  0.00    -0.048 Br
HETATM   17  C   UNL     1     -40.532  53.261 -52.372  1.00  0.00     0.122 A 
HETATM   18  C   UNL     1     -41.024  54.471 -51.943  1.00  0.00     0.107 A 
HETATM   19  O   UNL     1     -39.767  52.658 -51.421  1.00  0.00    -0.322 OA
HETATM   20  O   UNL     1     -40.634  54.776 -50.677  1.00  0.00    -0.323 OA
HETATM   21  C   UNL     1     -41.824  55.266 -52.740  1.00  0.00     0.048 A 
HETATM   22  C   UNL     1     -39.868  53.601 -50.334  1.00  0.00     0.352 A 
ENDBRANCH  12  13
ENDBRANCH   1  12
TORSDOF 4
ENDMDL
MODEL 2
REMARK VINA RESULT:      -7.1      1.625      2.290
REMARK  4 active torsions:
REMARK  status: ('A' for Active; 'I' for Inactive)
REMARK    1  A    between atoms: O_2  and  C_3 
REMARK    2  A    between atoms: C_5  and  N_6 
REMARK    3  A    between atoms: N_6  and  C_7 
REMARK    4  A    between atoms: C_7  and  C_8 
ROOT
HETATM    1  N   UNL     1     -42.558  55.389 -56.093  1.00  0.00    -0.372 N 
HETATM    2  H   UNL     1     -42.812  54.413 -56.003  1.00  0.00     0.161 HD
ENDROOT
BRANCH   1   3
HETATM    3  C   UNL     1     -42.673  56.016 -57.311  1.00  0.00     0.103 A 
HETATM    4  C   UNL     1     -43.253  55.455 -58.457  1.00  0.00     0.085 A 
HETATM    5  C   UNL     1     -43.302  56.181 -59.647  1.00  0.00     0.073 A 
HETATM    6  C   UNL     1     -42.740  57.450 -59.692  1.00  0.00     0.053 A 
HETATM    7  C   UNL     1     -42.157  57.965 -58.550  1.00  0.00     0.092 A 
HETATM    8  N   UNL     1     -42.141  57.245 -57.422  1.00  0.00    -0.352 N 
HETATM    9  H   UNL     1     -41.697  57.640 -56.599  1.00  0.00     0.166 HD
BRANCH   5  10
HETATM   10  O   UNL     1     -43.847  55.761 -60.824  1.00  0.00    -0.356 OA
HETATM   11  C   UNL     1     -45.020  54.954 -60.762  1.00  0.00     0.210 C 
ENDBRANCH   5  10
ENDBRANCH   1   3
BRANCH   1  12
HETATM   12  C   UNL     1     -41.640  55.833 -55.046  1.00  0.00     0.160 C 
BRANCH  12  13
HETATM   13  C   UNL     1     -41.127  54.661 -54.245  1.00  0.00    -0.036 A 
HETATM   14  C   UNL     1     -40.911  54.783 -52.850  1.00  0.00     0.031 A 
HETATM   15  C   UNL     1     -40.445  53.699 -52.098  1.00  0.00     0.047 A 
HETATM   16 BR   UNL     1     -40.183  53.891 -50.240  1.00  0.00    -0.048 Br
HETATM   17  C   UNL     1     -40.190  52.509 -52.747  1.00  0.00     0.122 A 
HETATM   18  C   UNL     1     -40.389  52.390 -54.102  1.00  0.00     0.107 A 
HETATM   19  O   UNL     1     -39.737  51.350 -52.196  1.00  0.00    -0.322 OA
HETATM   20  O   UNL     1     -40.086  51.149 -54.568  1.00  0.00    -0.323 OA
HETATM   21  C   UNL     1     -40.851  53.437 -54.875  1.00  0.00     0.048 A 
HETATM   22  C   UNL     1     -39.632  50.504 -53.359  1.00  0.00     0.352 A 
ENDBRANCH  12  13
ENDBRANCH   1  12
TORSDOF 4
ENDMDL
MODEL 3
REMARK VINA RESULT:      -6.8      2.012      3.087
REMARK  4 active torsions:
REMARK  status: ('A' for Active; 'I' for Inactive)
REMARK    1  A    between atoms: O_2  and  C_3 
REMARK    2  A    between atoms: C_5  and  N_6 
REMARK    3  A    between atoms: N_6  and  C_7 
REMARK    4  A    between atoms: C_7  and  C_8 
ROOT
HETATM    1  N   UNL     1     -43.274  55.072 -55.731  1.00  0.00    -0.372 N 
HETATM    2  H   UNL     1     -43.418  54.071 -55.770  1.00  0.00     0.161 HD
ENDROOT
BRANCH   1   3
HETATM    3  C   UNL     1     -43.101  55.785 -56.893  1.00  0.00     0.103 A 
HETATM    4  C   UNL     1     -42.542  57.068 -56.979  1.00  0.00     0.085 A 
HETATM    5  C   UNL     1     -42.429  57.704 -58.215  1.00  0.00     0.073 A 
HETATM    6  C   UNL     1     -42.904  57.066 -59.353  1.00  0.00     0.053 A 
HETATM    7  C   UNL     1     -43.468  55.811 -59.231  1.00  0.00     0.092 A 
HETATM    8  N   UNL     1     -43.548  55.224 -58.030  1.00  0.00    -0.352 N 
HETATM    9  H   UNL     1     -43.977  54.307 -57.963  1.00  0.00     0.166 HD
BRANCH   5  10
HETATM   10  O   UNL     1     -41.896  58.938 -58.439  1.00  0.00    -0.356 OA
HETATM   11  C   UNL     1     -41.908  59.872 -57.363  1.00  0.00     0.210 C 
ENDBRANCH   5  10
ENDBRANCH   1   3
BRANCH   1  12
HETATM   12  C   UNL     1     -42.769  55.519 -54.434  1.00  0.00     0.160 C 
BRANCH  12  13
HETATM   13  C   UNL     1     -41.884  54.468 -53.808  1.00  0.00    -0.036 A 
HETATM   14  C   UNL     1     -41.391  54.635 -52.491  1.00  0.00     0.031 A 
HETATM   15  C   UNL     1     -40.578  53.662 -51.899  1.00  0.00     0.047 A 
HETATM   16 BR   UNL     1     -39.952  53.908 -50.137  1.00  0.00    -0.048 Br
HETATM   17  C   UNL     1     -40.258  52.538 -52.631  1.00  0.00     0.122 A 
HETATM   18  C   UNL     1     -40.726  52.377 -53.914  1.00  0.00     0.107 A 
HETATM   19  O   UNL     1     -39.488  51.488 -52.236  1.00  0.00    -0.322 OA
HETATM   20  O   UNL     1     -40.310  51.213 -54.481  1.00  0.00    -0.323 OA
HETATM   21  C   UNL     1     -41.532  53.314 -54.528  1.00  0.00     0.048 A 
HETATM   22  C   UNL     1     -39.489  50.670 -53.424  1.00  0.00     0.352 A 
ENDBRANCH  12  13
ENDBRANCH   1  12
TORSDOF 4
ENDMDL
MODEL 4
REMARK VINA RESULT:      -6.8      3.884      7.475
REMARK  4 active torsions:
REMARK  status: ('A' for Active; 'I' for Inactive)
REMARK    1  A    between atoms: O_2  and  C_3 
REMARK    2  A    between atoms: C_5  and  N_6 
REMARK    3  A    between atoms: N_6  and  C_7 
REMARK    4  A    between atoms: C_7  and  C_8 
ROOT
HETATM    1  N   UNL     1     -40.194  53.674 -51.050  1.00  0.00    -0.372 N 
HETATM    2  H   UNL     1     -39.426  54.277 -51.316  1.00  0.00     0.161 HD
ENDROOT
BRANCH   1   3
HETATM    3  C   UNL     1     -40.063  52.311 -51.163  1.00  0.00     0.103 A 
HETATM    4  C   UNL     1     -39.750  51.623 -52.344  1.00  0.00     0.085 A 
HETATM    5  C   UNL     1     -39.657  50.232 -52.344  1.00  0.00     0.073 A 
HETATM    6  C   UNL     1     -39.909  49.534 -51.170  1.00  0.00     0.053 A 
HETATM    7  C   UNL     1     -40.236  50.240 -50.028  1.00  0.00     0.092 A 
HETATM    8  N   UNL     1     -40.303  51.577 -50.062  1.00  0.00    -0.352 N 
HETATM    9  H   UNL     1     -40.555  52.074 -49.214  1.00  0.00     0.166 HD
BRANCH   5  10
HETATM   10  O   UNL     1     -39.348  49.445 -53.414  1.00  0.00    -0.356 OA
HETATM   11  C   UNL     1     -39.770  49.882 -54.702  1.00  0.00     0.210 C 
ENDBRANCH   5  10
ENDBRANCH   1   3
BRANCH   1  12
HETATM   12  C   UNL     1     -41.485  54.360 -51.071  1.00  0.00     0.160 C 
BRANCH  12  13
HETATM   13  C   UNL     1     -41.715  55.038 -52.401  1.00  0.00    -0.036 A 
HETATM   14  C   UNL     1     -41.508  56.431 -52.542  1.00  0.00     0.031 A 
HETATM   15  C   UNL     1     -41.709  57.066 -53.773  1.00  0.00     0.047 A 
HETATM   16 BR   UNL     1     -41.409  58.922 -53.931  1.00  0.00    -0.048 Br
HETATM   17  C   UNL     1     -42.124  56.305 -54.846  1.00  0.00     0.122 A 
HETATM   18  C   UNL     1     -42.335  54.954 -54.710  1.00  0.00     0.107 A 
HETATM   19  O   UNL     1     -42.371  56.734 -56.114  1.00  0.00    -0.322 OA
HETATM   20  O   UNL     1     -42.741  54.369 -55.868  1.00  0.00    -0.323 OA
HETATM   21  C   UNL     1     -42.144  54.294 -53.512  1.00  0.00     0.048 A 
HETATM   22  C   UNL     1     -42.802  55.512 -56.748  1.00  0.00     0.352 A 
ENDBRANCH  12  13
ENDBRANCH   1  12
TORSDOF 4
ENDMDL
MODEL 5
REMARK VINA RESULT:      -6.8      5.040      7.671
REMARK  4 active torsions:
REMARK  status: ('A' for Active; 'I' for Inactive)
REMARK    1  A    between atoms: O_2  and  C_3 
REMARK    2  A    between atoms: C_5  and  N_6 
REMARK    3  A    between atoms: N_6  and  C_7 
REMARK    4  A    between atoms: C_7  and  C_8 
ROOT
HETATM    1  N   UNL     1     -40.238  53.809 -51.399  1.00  0.00    -0.372 N 
HETATM    2  H   UNL     1     -39.521  54.392 -51.812  1.00  0.00     0.161 HD
ENDROOT
BRANCH   1   3
HETATM    3  C   UNL     1     -40.086  52.443 -51.387  1.00  0.00     0.103 A 
HETATM    4  C   UNL     1     -39.781  51.653 -52.505  1.00  0.00     0.085 A 
HETATM    5  C   UNL     1     -39.664  50.270 -52.378  1.00  0.00     0.073 A 
HETATM    6  C   UNL     1     -39.884  49.681 -51.140  1.00  0.00     0.053 A 
HETATM    7  C   UNL     1     -40.202  50.485 -50.062  1.00  0.00     0.092 A 
HETATM    8  N   UNL     1     -40.293  51.812 -50.219  1.00  0.00    -0.352 N 
HETATM    9  H   UNL     1     -40.539  52.381 -49.416  1.00  0.00     0.166 HD
BRANCH   5  10
HETATM   10  O   UNL     1     -39.360  49.392 -53.376  1.00  0.00    -0.356 OA
HETATM   11  C   UNL     1     -39.707  49.757 -54.709  1.00  0.00     0.210 C 
ENDBRANCH   5  10
ENDBRANCH   1   3
BRANCH   1  12
HETATM   12  C   UNL     1     -41.540  54.470 -51.341  1.00  0.00     0.160 C 
BRANCH  12  13
HETATM   13  C   UNL     1     -41.443  55.898 -51.823  1.00  0.00    -0.036 A 
HETATM   14  C   UNL     1     -41.039  56.929 -50.940  1.00  0.00     0.031 A 
HETATM   15  C   UNL     1     -40.938  58.253 -51.381  1.00  0.00     0.047 A 
HETATM   16 BR   UNL     1     -40.382  59.600 -50.183  1.00  0.00    -0.048 Br
HETATM   17  C   UNL     1     -41.248  58.535 -52.695  1.00  0.00     0.122 A 
HETATM   18  C   UNL     1     -41.649  57.538 -53.552  1.00  0.00     0.107 A 
HETATM   19  O   UNL     1     -41.211  59.749 -53.309  1.00  0.00    -0.322 OA
HETATM   20  O   UNL     1     -41.914  58.000 -54.804  1.00  0.00    -0.323 OA
HETATM   21  C   UNL     1     -41.759  56.221 -53.153  1.00  0.00     0.048 A 
HETATM   22  C   UNL     1     -41.673  59.413 -54.633  1.00  0.00     0.352 A 
ENDBRANCH  12  13
ENDBRANCH   1  12
TORSDOF 4
ENDMDL
MODEL 6
REMARK VINA RESULT:      -6.8      3.056      4.257
REMARK  4 active torsions:
REMARK  status: ('A' for Active; 'I' for Inactive)
REMARK    1  A    between atoms: O_2  and  C_3 
REMARK    2  A    between atoms: C_5  and  N_6 
REMARK    3  A    between atoms: N_6  and  C_7 
REMARK    4  A    between atoms: C_7  and  C_8 
ROOT
HETATM    1  N   UNL     1     -41.801  54.485 -55.443  1.00  0.00    -0.372 N 
HETATM    2  H   UNL     1     -42.454  53.790 -55.781  1.00  0.00     0.161 HD
ENDROOT
BRANCH   1   3
HETATM    3  C   UNL     1     -42.084  55.821 -55.598  1.00  0.00     0.103 A 
HETATM    4  C   UNL     1     -42.310  56.727 -54.553  1.00  0.00     0.085 A 
HETATM    5  C   UNL     1     -42.604  58.062 -54.829  1.00  0.00     0.073 A 
HETATM    6  C   UNL     1     -42.701  58.476 -56.151  1.00  0.00     0.053 A 
HETATM    7  C   UNL     1     -42.493  57.553 -57.159  1.00  0.00     0.092 A 
HETATM    8  N   UNL     1     -42.199  56.283 -56.856  1.00  0.00    -0.352 N 
HETATM    9  H   UNL     1     -42.061  55.621 -57.612  1.00  0.00     0.166 HD
BRANCH   5  10
HETATM   10  O   UNL     1     -42.830  59.044 -53.911  1.00  0.00    -0.356 OA
HETATM   11  C   UNL     1     -41.746  59.908 -53.583  1.00  0.00     0.210 C 
ENDBRANCH   5  10
ENDBRANCH   1   3
BRANCH   1  12
HETATM   12  C   UNL     1     -40.443  53.964 -55.302  1.00  0.00     0.160 C 
BRANCH  12  13
HETATM   13  C   UNL     1     -40.292  53.192 -54.013  1.00  0.00    -0.036 A 
HETATM   14  C   UNL     1     -40.489  53.830 -52.765  1.00  0.00     0.031 A 
HETATM   15  C   UNL     1     -40.360  53.119 -51.567  1.00  0.00     0.047 A 
HETATM   16 BR   UNL     1     -40.645  53.996 -49.921  1.00  0.00    -0.048 Br
HETATM   17  C   UNL     1     -40.026  51.783 -51.627  1.00  0.00     0.122 A 
HETATM   18  C   UNL     1     -39.825  51.162 -52.837  1.00  0.00     0.107 A 
HETATM   19  O   UNL     1     -39.857  50.927 -50.582  1.00  0.00    -0.322 OA
HETATM   20  O   UNL     1     -39.503  49.847 -52.703  1.00  0.00    -0.323 OA
HETATM   21  C   UNL     1     -39.946  51.830 -54.038  1.00  0.00     0.048 A 
HETATM   22  C   UNL     1     -39.485  49.713 -51.266  1.00  0.00     0.352 A 
ENDBRANCH  12  13
ENDBRANCH   1  12
TORSDOF 4
ENDMDL
MODEL 7
REMARK VINA RESULT:      -6.7      2.623      7.552
REMARK  4 active torsions:
REMARK  status: ('A' for Active; 'I' for Inactive)
REMARK    1  A    between atoms: O_2  and  C_3 
REMARK    2  A    between atoms: C_5  and  N_6 
REMARK    3  A    between atoms: N_6  and  C_7 
REMARK    4  A    between atoms: C_7  and  C_8 
ROOT
HETATM    1  N   UNL     1     -40.936  55.300 -55.451  1.00  0.00    -0.372 N 
HETATM    2  H   UNL     1     -40.631  55.113 -56.398  1.00  0.00     0.161 HD
ENDROOT
BRANCH   1   3
HETATM    3  C   UNL     1     -40.661  54.397 -54.453  1.00  0.00     0.103 A 
HETATM    4  C   UNL     1     -40.165  53.100 -54.649  1.00  0.00     0.085 A 
HETATM    5  C   UNL     1     -39.936  52.262 -53.558  1.00  0.00     0.073 A 
HETATM    6  C   UNL     1     -40.235  52.715 -52.280  1.00  0.00     0.053 A 
HETATM    7  C   UNL     1     -40.742  53.990 -52.122  1.00  0.00     0.092 A 
HETATM    8  N   UNL     1     -40.936  54.772 -53.191  1.00  0.00    -0.352 N 
HETATM    9  H   UNL     1     -41.320  55.701 -53.052  1.00  0.00     0.166 HD
BRANCH   5  10
HETATM   10  O   UNL     1     -39.446  50.991 -53.608  1.00  0.00    -0.356 OA
HETATM   11  C   UNL     1     -40.182  50.024 -54.351  1.00  0.00     0.210 C 
ENDBRANCH   5  10
ENDBRANCH   1   3
BRANCH   1  12
HETATM   12  C   UNL     1     -42.050  56.245 -55.393  1.00  0.00     0.160 C 
BRANCH  12  13
HETATM   13  C   UNL     1     -42.548  56.578 -56.779  1.00  0.00    -0.036 A 
HETATM   14  C   UNL     1     -43.194  55.594 -57.567  1.00  0.00     0.031 A 
HETATM   15  C   UNL     1     -43.667  55.896 -58.848  1.00  0.00     0.047 A 
HETATM   16 BR   UNL     1     -44.537  54.567 -59.865  1.00  0.00    -0.048 Br
HETATM   17  C   UNL     1     -43.482  57.174 -59.333  1.00  0.00     0.122 A 
HETATM   18  C   UNL     1     -42.847  58.129 -58.575  1.00  0.00     0.107 A 
HETATM   19  O   UNL     1     -43.868  57.660 -60.544  1.00  0.00    -0.322 OA
HETATM   20  O   UNL     1     -42.754  59.326 -59.214  1.00  0.00    -0.323 OA
HETATM   21  C   UNL     1     -42.370  57.867 -57.307  1.00  0.00     0.048 A 
HETATM   22  C   UNL     1     -43.369  59.011 -60.481  1.00  0.00     0.352 A 
ENDBRANCH  12  13
ENDBRANCH   1  12
TORSDOF 4
ENDMDL
MODEL 8
REMARK VINA RESULT:      -6.6      1.891      2.701
REMARK  4 active torsions:
REMARK  status: ('A' for Active; 'I' for Inactive)
REMARK    1  A    between atoms: O_2  and  C_3 
REMARK    2  A    between atoms: C_5  and  N_6 
REMARK    3  A    between atoms: N_6  and  C_7 
REMARK    4  A    between atoms: C_7  and  C_8 
ROOT
HETATM    1  N   UNL     1     -43.144  54.921 -56.096  1.00  0.00    -0.372 N 
HETATM    2  H   UNL     1     -42.771  54.038 -56.421  1.00  0.00     0.161 HD
ENDROOT
BRANCH   1   3
HETATM    3  C   UNL     1     -42.794  56.087 -56.735  1.00  0.00     0.103 A 
HETATM    4  C   UNL     1     -42.456  57.289 -56.096  1.00  0.00     0.085 A 
HETATM    5  C   UNL     1     -42.130  58.417 -56.847  1.00  0.00     0.073 A 
HETATM    6  C   UNL     1     -42.175  58.346 -58.233  1.00  0.00     0.053 A 
HETATM    7  C   UNL     1     -42.531  57.153 -58.832  1.00  0.00     0.092 A 
HETATM    8  N   UNL     1     -42.825  56.086 -58.078  1.00  0.00    -0.352 N 
HETATM    9  H   UNL     1     -43.095  55.223 -58.540  1.00  0.00     0.166 HD
BRANCH   5  10
HETATM   10  O   UNL     1     -41.773  59.637 -56.354  1.00  0.00    -0.356 OA
HETATM   11  C   UNL     1     -42.431  60.096 -55.177  1.00  0.00     0.210 C 
ENDBRANCH   5  10
ENDBRANCH   1   3
BRANCH   1  12
HETATM   12  C   UNL     1     -43.585  54.871 -54.704  1.00  0.00     0.160 C 
BRANCH  12  13
HETATM   13  C   UNL     1     -42.502  54.310 -53.814  1.00  0.00    -0.036 A 
HETATM   14  C   UNL     1     -41.746  53.185 -54.224  1.00  0.00     0.031 A 
HETATM   15  C   UNL     1     -40.734  52.664 -53.410  1.00  0.00     0.047 A 
HETATM   16 BR   UNL     1     -39.734  51.175 -53.994  1.00  0.00    -0.048 Br
HETATM   17  C   UNL     1     -40.495  53.265 -52.192  1.00  0.00     0.122 A 
HETATM   18  C   UNL     1     -41.234  54.351 -51.786  1.00  0.00     0.107 A 
HETATM   19  O   UNL     1     -39.563  52.910 -51.267  1.00  0.00    -0.322 OA
HETATM   20  O   UNL     1     -40.861  54.809 -50.561  1.00  0.00    -0.323 OA
HETATM   21  C   UNL     1     -42.238  54.893 -52.564  1.00  0.00     0.048 A 
HETATM   22  C   UNL     1     -39.825  53.864 -50.217  1.00  0.00     0.352 A 
ENDBRANCH  12  13
ENDBRANCH   1  12
TORSDOF 4
ENDMDL
MODEL 9
REMARK VINA RESULT:      -6.6      4.596      7.333
REMARK  4 active torsions:
REMARK  status: ('A' for Active; 'I' for Inactive)
REMARK    1  A    between atoms: O_2  and  C_3 
REMARK    2  A    between atoms: C_5  and  N_6 
REMARK    3  A    between atoms: N_6  and  C_7 
REMARK    4  A    between atoms: C_7  and  C_8 
ROOT
HETATM    1  N   UNL     1     -40.092  53.632 -51.085  1.00  0.00    -0.372 N 
HETATM    2  H   UNL     1     -39.585  54.225 -51.730  1.00  0.00     0.161 HD
ENDROOT
BRANCH   1   3
HETATM    3  C   UNL     1     -39.993  52.265 -51.191  1.00  0.00     0.103 A 
HETATM    4  C   UNL     1     -39.677  51.566 -52.365  1.00  0.00     0.085 A 
HETATM    5  C   UNL     1     -39.618  50.173 -52.359  1.00  0.00     0.073 A 
HETATM    6  C   UNL     1     -39.908  49.486 -51.188  1.00  0.00     0.053 A 
HETATM    7  C   UNL     1     -40.237  50.204 -50.054  1.00  0.00     0.092 A 
HETATM    8  N   UNL     1     -40.270  51.542 -50.093  1.00  0.00    -0.352 N 
HETATM    9  H   UNL     1     -40.525  52.047 -49.250  1.00  0.00     0.166 HD
BRANCH   5  10
HETATM   10  O   UNL     1     -39.311  49.376 -53.421  1.00  0.00    -0.356 OA
HETATM   11  C   UNL     1     -39.793  49.764 -54.704  1.00  0.00     0.210 C 
ENDBRANCH   5  10
ENDBRANCH   1   3
BRANCH   1  12
HETATM   12  C   UNL     1     -41.236  54.308 -50.475  1.00  0.00     0.160 C 
BRANCH  12  13
HETATM   13  C   UNL     1     -42.080  54.993 -51.522  1.00  0.00    -0.036 A 
HETATM   14  C   UNL     1     -42.204  54.441 -52.820  1.00  0.00     0.031 A 
HETATM   15  C   UNL     1     -42.992  55.064 -53.794  1.00  0.00     0.047 A 
HETATM   16 BR   UNL     1     -43.149  54.293 -55.508  1.00  0.00    -0.048 Br
HETATM   17  C   UNL     1     -43.638  56.237 -53.465  1.00  0.00     0.122 A 
HETATM   18  C   UNL     1     -43.512  56.782 -52.210  1.00  0.00     0.107 A 
HETATM   19  O   UNL     1     -44.444  56.987 -54.266  1.00  0.00    -0.322 OA
HETATM   20  O   UNL     1     -44.217  57.936 -52.067  1.00  0.00    -0.323 OA
HETATM   21  C   UNL     1     -42.746  56.193 -51.223  1.00  0.00     0.048 A 
HETATM   22  C   UNL     1     -44.775  58.084 -53.390  1.00  0.00     0.352 A 
ENDBRANCH  12  13
ENDBRANCH   1  12
TORSDOF 4
ENDMDL
MODEL 10
REMARK VINA RESULT:      -6.6      4.772      6.749
REMARK  4 active torsions:
REMARK  status: ('A' for Active; 'I' for Inactive)
REMARK    1  A    between atoms: O_2  and  C_3 
REMARK    2  A    between atoms: C_5  and  N_6 
REMARK    3  A    between atoms: N_6  and  C_7 
REMARK    4  A    between atoms: C_7  and  C_8 
ROOT
HETATM    1  N   UNL     1     -40.481  53.810 -50.176  1.00  0.00    -0.372 N 
HETATM    2  H   UNL     1     -39.732  54.333 -49.741  1.00  0.00     0.161 HD
ENDROOT
BRANCH   1   3
HETATM    3  C   UNL     1     -40.256  53.147 -51.359  1.00  0.00     0.103 A 
HETATM    4  C   UNL     1     -40.533  53.655 -52.636  1.00  0.00     0.085 A 
HETATM    5  C   UNL     1     -40.276  52.886 -53.770  1.00  0.00     0.073 A 
HETATM    6  C   UNL     1     -39.774  51.600 -53.619  1.00  0.00     0.053 A 
HETATM    7  C   UNL     1     -39.532  51.121 -52.345  1.00  0.00     0.092 A 
HETATM    8  N   UNL     1     -39.778  51.893 -51.280  1.00  0.00    -0.352 N 
HETATM    9  H   UNL     1     -39.603  51.516 -50.354  1.00  0.00     0.166 HD
BRANCH   5  10
HETATM   10  O   UNL     1     -40.485  53.263 -55.063  1.00  0.00    -0.356 OA
HETATM   11  C   UNL     1     -40.963  54.584 -55.300  1.00  0.00     0.210 C 
ENDBRANCH   5  10
ENDBRANCH   1   3
BRANCH   1  12
HETATM   12  C   UNL     1     -41.805  54.257 -49.748  1.00  0.00     0.160 C 
BRANCH  12  13
HETATM   13  C   UNL     1     -42.125  55.619 -50.315  1.00  0.00    -0.036 A 
HETATM   14  C   UNL     1     -41.146  56.643 -50.322  1.00  0.00     0.031 A 
HETATM   15  C   UNL     1     -41.431  57.905 -50.855  1.00  0.00     0.047 A 
HETATM   16 BR   UNL     1     -40.099  59.241 -50.864  1.00  0.00    -0.048 Br
HETATM   17  C   UNL     1     -42.691  58.135 -51.365  1.00  0.00     0.122 A 
HETATM   18  C   UNL     1     -43.647  57.147 -51.351  1.00  0.00     0.107 A 
HETATM   19  O   UNL     1     -43.158  59.286 -51.923  1.00  0.00    -0.322 OA
HETATM   20  O   UNL     1     -44.827  57.553 -51.893  1.00  0.00    -0.323 OA
HETATM   21  C   UNL     1     -43.401  55.890 -50.837  1.00  0.00     0.048 A 
HETATM   22  C   UNL     1     -44.523  58.926 -52.218  1.00  0.00     0.352 A 
ENDBRANCH  12  13
ENDBRANCH   1  12
TORSDOF 4
ENDMDL
