MODEL 1
REMARK VINA RESULT:      -8.7      0.000      0.000
REMARK  3 active torsions:
REMARK  status: ('A' for Active; 'I' for Inactive)
REMARK    1  A    between atoms: C_3  and  C_4 
REMARK    2  A    between atoms: C_4  and  N_5 
REMARK       I    between atoms: N_5  and  C_6 
REMARK    3  A    between atoms: C_6  and  C_7 
ROOT
HETATM    1  C   UNL     1     -41.039  55.640 -52.954  1.00  0.00     0.155 A 
HETATM    2  N   UNL     1     -41.149  55.675 -51.605  1.00  0.00    -0.168 NA
HETATM    3  N   UNL     1     -40.836  54.418 -51.217  1.00  0.00    -0.276 N 
HETATM    4  H   UNL     1     -40.842  54.204 -50.225  1.00  0.00     0.189 HD
HETATM    5  C   UNL     1     -40.549  53.593 -52.256  1.00  0.00     0.074 A 
HETATM    6  C   UNL     1     -40.679  54.345 -53.392  1.00  0.00     0.031 A 
HETATM    7  C   UNL     1     -40.440  53.774 -54.736  1.00  0.00     0.219 A 
HETATM    8  O   UNL     1     -40.129  52.351 -54.764  1.00  0.00    -0.346 OA
HETATM    9  C   UNL     1     -39.977  51.657 -53.583  1.00  0.00     0.081 A 
HETATM   10  C   UNL     1     -40.171  52.204 -52.298  1.00  0.00     0.026 A 
HETATM   11  C   UNL     1     -39.613  50.317 -53.715  1.00  0.00     0.038 A 
HETATM   12  C   UNL     1     -39.436  49.525 -52.580  1.00  0.00     0.003 A 
HETATM   13  C   UNL     1     -39.624  50.069 -51.309  1.00  0.00     0.001 A 
HETATM   14  C   UNL     1     -39.993  51.410 -51.164  1.00  0.00     0.016 A 
ENDROOT
BRANCH   1  15
HETATM   15  C   UNL     1     -41.277  56.825 -53.792  1.00  0.00     0.272 C 
HETATM   16  N   UNL     1     -42.271  56.638 -54.722  1.00  0.00    -0.351 N 
HETATM   17  H   UNL     1     -42.700  55.717 -54.736  1.00  0.00     0.163 HD
HETATM   18  O   UNL     1     -40.640  57.865 -53.662  1.00  0.00    -0.266 OA
BRANCH  16  19
HETATM   19  C   UNL     1     -42.668  57.649 -55.670  1.00  0.00     0.163 C 
BRANCH  19  20
HETATM   20  C   UNL     1     -42.648  57.206 -57.117  1.00  0.00    -0.019 A 
HETATM   21  C   UNL     1     -43.058  55.920 -57.513  1.00  0.00     0.010 A 
HETATM   22  C   UNL     1     -43.023  55.532 -58.855  1.00  0.00     0.001 A 
HETATM   23  C   UNL     1     -42.581  56.420 -59.830  1.00  0.00     0.002 A 
HETATM   24  C   UNL     1     -42.175  57.701 -59.463  1.00  0.00     0.024 A 
HETATM   25  C   UNL     1     -42.209  58.092 -58.120  1.00  0.00     0.042 A 
HETATM   26 CL   UNL     1     -41.698  59.703 -57.749  1.00  0.00    -0.084 Cl
ENDBRANCH  19  20
ENDBRANCH  16  19
ENDBRANCH   1  15
TORSDOF 3
ENDMDL
MODEL 2
REMARK VINA RESULT:      -8.6      2.873      8.227
REMARK  3 active torsions:
REMARK  status: ('A' for Active; 'I' for Inactive)
REMARK    1  A    between atoms: C_3  and  C_4 
REMARK    2  A    between atoms: C_4  and  N_5 
REMARK       I    between atoms: N_5  and  C_6 
REMARK    3  A    between atoms: C_6  and  C_7 
ROOT
HETATM    1  C   UNL     1     -42.687  56.218 -56.204  1.00  0.00     0.155 A 
HETATM    2  N   UNL     1     -42.932  55.509 -57.332  1.00  0.00    -0.168 NA
HETATM    3  N   UNL     1     -42.741  56.401 -58.329  1.00  0.00    -0.276 N 
HETATM    4  H   UNL     1     -42.863  56.088 -59.287  1.00  0.00     0.189 HD
HETATM    5  C   UNL     1     -42.402  57.637 -57.883  1.00  0.00     0.074 A 
HETATM    6  C   UNL     1     -42.366  57.558 -56.518  1.00  0.00     0.031 A 
HETATM    7  C   UNL     1     -42.026  58.728 -55.678  1.00  0.00     0.219 A 
HETATM    8  O   UNL     1     -41.805  59.973 -56.400  1.00  0.00    -0.346 OA
HETATM    9  C   UNL     1     -41.820  59.981 -57.779  1.00  0.00     0.081 A 
HETATM   10  C   UNL     1     -42.110  58.861 -58.585  1.00  0.00     0.026 A 
HETATM   11  C   UNL     1     -41.530  61.206 -58.377  1.00  0.00     0.038 A 
HETATM   12  C   UNL     1     -41.521  61.321 -59.767  1.00  0.00     0.003 A 
HETATM   13  C   UNL     1     -41.804  60.211 -60.565  1.00  0.00     0.001 A 
HETATM   14  C   UNL     1     -42.101  58.978 -59.976  1.00  0.00     0.016 A 
ENDROOT
BRANCH   1  15
HETATM   15  C   UNL     1     -42.761  55.614 -54.865  1.00  0.00     0.272 C 
HETATM   16  N   UNL     1     -41.534  55.245 -54.370  1.00  0.00    -0.351 N 
HETATM   17  H   UNL     1     -40.739  55.408 -54.983  1.00  0.00     0.163 HD
HETATM   18  O   UNL     1     -43.821  55.459 -54.267  1.00  0.00    -0.266 OA
BRANCH  16  19
HETATM   19  C   UNL     1     -41.356  54.612 -53.087  1.00  0.00     0.163 C 
BRANCH  19  20
HETATM   20  C   UNL     1     -40.738  53.232 -53.139  1.00  0.00    -0.019 A 
HETATM   21  C   UNL     1     -40.857  52.399 -54.267  1.00  0.00     0.010 A 
HETATM   22  C   UNL     1     -40.285  51.124 -54.288  1.00  0.00     0.001 A 
HETATM   23  C   UNL     1     -39.579  50.655 -53.185  1.00  0.00     0.002 A 
HETATM   24  C   UNL     1     -39.443  51.462 -52.059  1.00  0.00     0.024 A 
HETATM   25  C   UNL     1     -40.015  52.739 -52.035  1.00  0.00     0.042 A 
HETATM   26 CL   UNL     1     -39.791  53.683 -50.602  1.00  0.00    -0.084 Cl
ENDBRANCH  19  20
ENDBRANCH  16  19
ENDBRANCH   1  15
TORSDOF 3
ENDMDL
MODEL 3
REMARK VINA RESULT:      -8.2      4.857      8.029
REMARK  3 active torsions:
REMARK  status: ('A' for Active; 'I' for Inactive)
REMARK    1  A    between atoms: C_3  and  C_4 
REMARK    2  A    between atoms: C_4  and  N_5 
REMARK       I    between atoms: N_5  and  C_6 
REMARK    3  A    between atoms: C_6  and  C_7 
ROOT
HETATM    1  C   UNL     1     -42.357  55.672 -50.660  1.00  0.00     0.155 A 
HETATM    2  N   UNL     1     -43.624  55.196 -50.726  1.00  0.00    -0.168 NA
HETATM    3  N   UNL     1     -44.364  56.278 -51.056  1.00  0.00    -0.276 N 
HETATM    4  H   UNL     1     -45.366  56.160 -51.173  1.00  0.00     0.189 HD
HETATM    5  C   UNL     1     -43.628  57.410 -51.186  1.00  0.00     0.074 A 
HETATM    6  C   UNL     1     -42.331  57.059 -50.929  1.00  0.00     0.031 A 
HETATM    7  C   UNL     1     -41.231  58.047 -50.978  1.00  0.00     0.219 A 
HETATM    8  O   UNL     1     -41.636  59.420 -51.248  1.00  0.00    -0.346 OA
HETATM    9  C   UNL     1     -42.954  59.705 -51.534  1.00  0.00     0.081 A 
HETATM   10  C   UNL     1     -44.001  58.760 -51.521  1.00  0.00     0.026 A 
HETATM   11  C   UNL     1     -43.228  61.036 -51.846  1.00  0.00     0.038 A 
HETATM   12  C   UNL     1     -44.532  61.429 -52.149  1.00  0.00     0.003 A 
HETATM   13  C   UNL     1     -45.567  60.493 -52.139  1.00  0.00     0.001 A 
HETATM   14  C   UNL     1     -45.305  59.156 -51.825  1.00  0.00     0.016 A 
ENDROOT
BRANCH   1  15
HETATM   15  C   UNL     1     -41.210  54.807 -50.345  1.00  0.00     0.272 C 
HETATM   16  N   UNL     1     -41.069  53.757 -51.219  1.00  0.00    -0.351 N 
HETATM   17  H   UNL     1     -41.771  53.689 -51.951  1.00  0.00     0.163 HD
HETATM   18  O   UNL     1     -40.467  55.016 -49.391  1.00  0.00    -0.266 OA
BRANCH  16  19
HETATM   19  C   UNL     1     -40.031  52.763 -51.102  1.00  0.00     0.163 C 
BRANCH  19  20
HETATM   20  C   UNL     1     -39.935  51.804 -52.268  1.00  0.00    -0.019 A 
HETATM   21  C   UNL     1     -40.085  52.227 -53.602  1.00  0.00     0.010 A 
HETATM   22  C   UNL     1     -40.000  51.320 -54.662  1.00  0.00     0.001 A 
HETATM   23  C   UNL     1     -39.759  49.972 -54.413  1.00  0.00     0.002 A 
HETATM   24  C   UNL     1     -39.602  49.530 -53.102  1.00  0.00     0.024 A 
HETATM   25  C   UNL     1     -39.687  50.436 -52.039  1.00  0.00     0.042 A 
HETATM   26 CL   UNL     1     -39.469  49.808 -50.441  1.00  0.00    -0.084 Cl
ENDBRANCH  19  20
ENDBRANCH  16  19
ENDBRANCH   1  15
TORSDOF 3
ENDMDL
MODEL 4
REMARK VINA RESULT:      -8.1      2.828      7.775
REMARK  3 active torsions:
REMARK  status: ('A' for Active; 'I' for Inactive)
REMARK    1  A    between atoms: C_3  and  C_4 
REMARK    2  A    between atoms: C_4  and  N_5 
REMARK       I    between atoms: N_5  and  C_6 
REMARK    3  A    between atoms: C_6  and  C_7 
ROOT
HETATM    1  C   UNL     1     -42.493  57.434 -54.828  1.00  0.00     0.155 A 
HETATM    2  N   UNL     1     -42.161  58.680 -54.414  1.00  0.00    -0.168 NA
HETATM    3  N   UNL     1     -42.000  59.375 -55.563  1.00  0.00    -0.276 N 
HETATM    4  H   UNL     1     -41.751  60.357 -55.502  1.00  0.00     0.189 HD
HETATM    5  C   UNL     1     -42.200  58.624 -56.675  1.00  0.00     0.074 A 
HETATM    6  C   UNL     1     -42.511  57.365 -56.239  1.00  0.00     0.031 A 
HETATM    7  C   UNL     1     -42.799  56.262 -57.183  1.00  0.00     0.219 A 
HETATM    8  O   UNL     1     -42.659  56.595 -58.594  1.00  0.00    -0.346 OA
HETATM    9  C   UNL     1     -42.377  57.891 -58.971  1.00  0.00     0.081 A 
HETATM   10  C   UNL     1     -42.135  58.952 -58.076  1.00  0.00     0.026 A 
HETATM   11  C   UNL     1     -42.331  58.121 -60.345  1.00  0.00     0.038 A 
HETATM   12  C   UNL     1     -42.051  59.399 -60.831  1.00  0.00     0.003 A 
HETATM   13  C   UNL     1     -41.815  60.450 -59.944  1.00  0.00     0.001 A 
HETATM   14  C   UNL     1     -41.856  60.230 -58.564  1.00  0.00     0.016 A 
ENDROOT
BRANCH   1  15
HETATM   15  C   UNL     1     -42.784  56.345 -53.883  1.00  0.00     0.272 C 
HETATM   16  N   UNL     1     -41.675  55.919 -53.192  1.00  0.00    -0.351 N 
HETATM   17  H   UNL     1     -40.800  56.380 -53.427  1.00  0.00     0.163 HD
HETATM   18  O   UNL     1     -43.908  55.874 -53.741  1.00  0.00    -0.266 OA
BRANCH  16  19
HETATM   19  C   UNL     1     -41.706  54.848 -52.228  1.00  0.00     0.163 C 
BRANCH  19  20
HETATM   20  C   UNL     1     -40.956  53.600 -52.639  1.00  0.00    -0.019 A 
HETATM   21  C   UNL     1     -41.058  53.055 -53.932  1.00  0.00     0.010 A 
HETATM   22  C   UNL     1     -40.361  51.896 -54.285  1.00  0.00     0.001 A 
HETATM   23  C   UNL     1     -39.545  51.259 -53.356  1.00  0.00     0.002 A 
HETATM   24  C   UNL     1     -39.424  51.781 -52.071  1.00  0.00     0.024 A 
HETATM   25  C   UNL     1     -40.121  52.942 -51.715  1.00  0.00     0.042 A 
HETATM   26 CL   UNL     1     -39.907  53.532 -50.102  1.00  0.00    -0.084 Cl
ENDBRANCH  19  20
ENDBRANCH  16  19
ENDBRANCH   1  15
TORSDOF 3
ENDMDL
MODEL 5
REMARK VINA RESULT:      -8.1      1.750      1.977
REMARK  3 active torsions:
REMARK  status: ('A' for Active; 'I' for Inactive)
REMARK    1  A    between atoms: C_3  and  C_4 
REMARK    2  A    between atoms: C_4  and  N_5 
REMARK       I    between atoms: N_5  and  C_6 
REMARK    3  A    between atoms: C_6  and  C_7 
ROOT
HETATM    1  C   UNL     1     -42.036  56.521 -53.762  1.00  0.00     0.155 A 
HETATM    2  N   UNL     1     -42.233  56.752 -52.442  1.00  0.00    -0.168 NA
HETATM    3  N   UNL     1     -41.740  55.647 -51.838  1.00  0.00    -0.276 N 
HETATM    4  H   UNL     1     -41.772  55.596 -50.825  1.00  0.00     0.189 HD
HETATM    5  C   UNL     1     -41.257  54.730 -52.713  1.00  0.00     0.074 A 
HETATM    6  C   UNL     1     -41.440  55.256 -53.963  1.00  0.00     0.031 A 
HETATM    7  C   UNL     1     -41.027  54.527 -55.183  1.00  0.00     0.219 A 
HETATM    8  O   UNL     1     -40.483  53.195 -54.962  1.00  0.00    -0.346 OA
HETATM    9  C   UNL     1     -40.292  52.735 -53.676  1.00  0.00     0.081 A 
HETATM   10  C   UNL     1     -40.652  53.439 -52.510  1.00  0.00     0.026 A 
HETATM   11  C   UNL     1     -39.703  51.476 -53.570  1.00  0.00     0.038 A 
HETATM   12  C   UNL     1     -39.467  50.918 -52.313  1.00  0.00     0.003 A 
HETATM   13  C   UNL     1     -39.821  51.617 -51.158  1.00  0.00     0.001 A 
HETATM   14  C   UNL     1     -40.416  52.879 -51.253  1.00  0.00     0.016 A 
ENDROOT
BRANCH   1  15
HETATM   15  C   UNL     1     -42.415  57.498 -54.794  1.00  0.00     0.272 C 
HETATM   16  N   UNL     1     -43.508  57.108 -55.531  1.00  0.00    -0.351 N 
HETATM   17  H   UNL     1     -43.902  56.202 -55.296  1.00  0.00     0.163 HD
HETATM   18  O   UNL     1     -41.803  58.547 -54.969  1.00  0.00    -0.266 OA
BRANCH  16  19
HETATM   19  C   UNL     1     -44.051  57.890 -56.613  1.00  0.00     0.163 C 
BRANCH  19  20
HETATM   20  C   UNL     1     -44.112  57.175 -57.946  1.00  0.00    -0.019 A 
HETATM   21  C   UNL     1     -43.042  56.400 -58.431  1.00  0.00     0.010 A 
HETATM   22  C   UNL     1     -43.119  55.756 -59.669  1.00  0.00     0.001 A 
HETATM   23  C   UNL     1     -44.266  55.869 -60.447  1.00  0.00     0.002 A 
HETATM   24  C   UNL     1     -45.341  56.625 -59.986  1.00  0.00     0.024 A 
HETATM   25  C   UNL     1     -45.266  57.271 -58.747  1.00  0.00     0.042 A 
HETATM   26 CL   UNL     1     -46.648  58.183 -58.243  1.00  0.00    -0.084 Cl
ENDBRANCH  19  20
ENDBRANCH  16  19
ENDBRANCH   1  15
TORSDOF 3
ENDMDL
MODEL 6
REMARK VINA RESULT:      -8.0      3.511      4.316
REMARK  3 active torsions:
REMARK  status: ('A' for Active; 'I' for Inactive)
REMARK    1  A    between atoms: C_3  and  C_4 
REMARK    2  A    between atoms: C_4  and  N_5 
REMARK       I    between atoms: N_5  and  C_6 
REMARK    3  A    between atoms: C_6  and  C_7 
ROOT
HETATM    1  C   UNL     1     -41.282  55.510 -52.896  1.00  0.00     0.155 A 
HETATM    2  N   UNL     1     -41.471  55.398 -54.233  1.00  0.00    -0.168 NA
HETATM    3  N   UNL     1     -41.131  54.119 -54.506  1.00  0.00    -0.276 N 
HETATM    4  H   UNL     1     -41.203  53.795 -55.466  1.00  0.00     0.189 HD
HETATM    5  C   UNL     1     -40.725  53.427 -53.412  1.00  0.00     0.074 A 
HETATM    6  C   UNL     1     -40.801  54.295 -52.357  1.00  0.00     0.031 A 
HETATM    7  C   UNL     1     -40.433  53.888 -50.983  1.00  0.00     0.219 A 
HETATM    8  O   UNL     1     -39.922  52.530 -50.850  1.00  0.00    -0.346 OA
HETATM    9  C   UNL     1     -39.903  51.692 -51.945  1.00  0.00     0.081 A 
HETATM   10  C   UNL     1     -40.285  52.066 -53.249  1.00  0.00     0.026 A 
HETATM   11  C   UNL     1     -39.461  50.393 -51.699  1.00  0.00     0.038 A 
HETATM   12  C   UNL     1     -39.401  49.466 -52.740  1.00  0.00     0.003 A 
HETATM   13  C   UNL     1     -39.783  49.835 -54.031  1.00  0.00     0.001 A 
HETATM   14  C   UNL     1     -40.225  51.136 -54.289  1.00  0.00     0.016 A 
ENDROOT
BRANCH   1  15
HETATM   15  C   UNL     1     -41.559  56.757 -52.166  1.00  0.00     0.272 C 
HETATM   16  N   UNL     1     -40.889  57.842 -52.678  1.00  0.00    -0.351 N 
HETATM   17  H   UNL     1     -40.278  57.656 -53.468  1.00  0.00     0.163 HD
HETATM   18  O   UNL     1     -42.311  56.803 -51.198  1.00  0.00    -0.266 OA
BRANCH  16  19
HETATM   19  C   UNL     1     -40.984  59.167 -52.117  1.00  0.00     0.163 C 
BRANCH  19  20
HETATM   20  C   UNL     1     -41.964  60.084 -52.816  1.00  0.00    -0.019 A 
HETATM   21  C   UNL     1     -42.116  60.093 -54.215  1.00  0.00     0.010 A 
HETATM   22  C   UNL     1     -43.022  60.956 -54.838  1.00  0.00     0.001 A 
HETATM   23  C   UNL     1     -43.797  61.826 -54.078  1.00  0.00     0.002 A 
HETATM   24  C   UNL     1     -43.668  61.832 -52.691  1.00  0.00     0.024 A 
HETATM   25  C   UNL     1     -42.762  60.969 -52.065  1.00  0.00     0.042 A 
HETATM   26 CL   UNL     1     -42.670  61.032 -50.338  1.00  0.00    -0.084 Cl
ENDBRANCH  19  20
ENDBRANCH  16  19
ENDBRANCH   1  15
TORSDOF 3
ENDMDL
MODEL 7
REMARK VINA RESULT:      -8.0      3.034      3.641
REMARK  3 active torsions:
REMARK  status: ('A' for Active; 'I' for Inactive)
REMARK    1  A    between atoms: C_3  and  C_4 
REMARK    2  A    between atoms: C_4  and  N_5 
REMARK       I    between atoms: N_5  and  C_6 
REMARK    3  A    between atoms: C_6  and  C_7 
ROOT
HETATM    1  C   UNL     1     -41.028  55.378 -50.537  1.00  0.00     0.155 A 
HETATM    2  N   UNL     1     -40.862  54.812 -49.317  1.00  0.00    -0.168 NA
HETATM    3  N   UNL     1     -40.516  53.535 -49.592  1.00  0.00    -0.276 N 
HETATM    4  H   UNL     1     -40.328  52.908 -48.816  1.00  0.00     0.189 HD
HETATM    5  C   UNL     1     -40.470  53.267 -50.922  1.00  0.00     0.074 A 
HETATM    6  C   UNL     1     -40.803  54.430 -51.561  1.00  0.00     0.031 A 
HETATM    7  C   UNL     1     -40.858  54.520 -53.037  1.00  0.00     0.219 A 
HETATM    8  O   UNL     1     -40.602  53.276 -53.749  1.00  0.00    -0.346 OA
HETATM    9  C   UNL     1     -40.237  52.145 -53.050  1.00  0.00     0.081 A 
HETATM   10  C   UNL     1     -40.151  52.063 -51.645  1.00  0.00     0.026 A 
HETATM   11  C   UNL     1     -39.948  51.025 -53.827  1.00  0.00     0.038 A 
HETATM   12  C   UNL     1     -39.570  49.828 -53.216  1.00  0.00     0.003 A 
HETATM   13  C   UNL     1     -39.482  49.749 -51.825  1.00  0.00     0.001 A 
HETATM   14  C   UNL     1     -39.773  50.865 -51.036  1.00  0.00     0.016 A 
ENDROOT
BRANCH   1  15
HETATM   15  C   UNL     1     -41.393  56.793 -50.703  1.00  0.00     0.272 C 
HETATM   16  N   UNL     1     -42.738  56.982 -50.913  1.00  0.00    -0.351 N 
HETATM   17  H   UNL     1     -43.305  56.140 -50.951  1.00  0.00     0.163 HD
HETATM   18  O   UNL     1     -40.567  57.699 -50.659  1.00  0.00    -0.266 OA
BRANCH  16  19
HETATM   19  C   UNL     1     -43.330  58.279 -51.124  1.00  0.00     0.163 C 
BRANCH  19  20
HETATM   20  C   UNL     1     -43.947  58.481 -52.492  1.00  0.00    -0.019 A 
HETATM   21  C   UNL     1     -43.806  57.536 -53.525  1.00  0.00     0.010 A 
HETATM   22  C   UNL     1     -44.378  57.749 -54.782  1.00  0.00     0.001 A 
HETATM   23  C   UNL     1     -45.104  58.908 -55.034  1.00  0.00     0.002 A 
HETATM   24  C   UNL     1     -45.262  59.856 -54.026  1.00  0.00     0.024 A 
HETATM   25  C   UNL     1     -44.691  59.645 -52.766  1.00  0.00     0.042 A 
HETATM   26 CL   UNL     1     -44.942  60.866 -51.566  1.00  0.00    -0.084 Cl
ENDBRANCH  19  20
ENDBRANCH  16  19
ENDBRANCH   1  15
TORSDOF 3
ENDMDL
MODEL 8
REMARK VINA RESULT:      -7.9      2.715      3.394
REMARK  3 active torsions:
REMARK  status: ('A' for Active; 'I' for Inactive)
REMARK    1  A    between atoms: C_3  and  C_4 
REMARK    2  A    between atoms: C_4  and  N_5 
REMARK       I    between atoms: N_5  and  C_6 
REMARK    3  A    between atoms: C_6  and  C_7 
ROOT
HETATM    1  C   UNL     1     -42.560  56.015 -55.203  1.00  0.00     0.155 A 
HETATM    2  N   UNL     1     -43.323  56.514 -54.202  1.00  0.00    -0.168 NA
HETATM    3  N   UNL     1     -42.951  55.798 -53.117  1.00  0.00    -0.276 N 
HETATM    4  H   UNL     1     -43.392  56.006 -52.227  1.00  0.00     0.189 HD
HETATM    5  C   UNL     1     -42.004  54.865 -53.391  1.00  0.00     0.074 A 
HETATM    6  C   UNL     1     -41.734  54.970 -54.728  1.00  0.00     0.031 A 
HETATM    7  C   UNL     1     -40.738  54.101 -55.393  1.00  0.00     0.219 A 
HETATM    8  O   UNL     1     -40.125  53.090 -54.543  1.00  0.00    -0.346 OA
HETATM    9  C   UNL     1     -40.413  53.058 -53.195  1.00  0.00     0.081 A 
HETATM   10  C   UNL     1     -41.336  53.905 -52.551  1.00  0.00     0.026 A 
HETATM   11  C   UNL     1     -39.723  52.097 -52.457  1.00  0.00     0.038 A 
HETATM   12  C   UNL     1     -39.943  51.980 -51.084  1.00  0.00     0.003 A 
HETATM   13  C   UNL     1     -40.855  52.823 -50.445  1.00  0.00     0.001 A 
HETATM   14  C   UNL     1     -41.555  53.787 -51.177  1.00  0.00     0.016 A 
ENDROOT
BRANCH   1  15
HETATM   15  C   UNL     1     -42.630  56.534 -56.578  1.00  0.00     0.272 C 
HETATM   16  N   UNL     1     -43.277  55.686 -57.444  1.00  0.00    -0.351 N 
HETATM   17  H   UNL     1     -43.603  54.809 -57.047  1.00  0.00     0.163 HD
HETATM   18  O   UNL     1     -42.150  57.616 -56.901  1.00  0.00    -0.266 OA
BRANCH  16  19
HETATM   19  C   UNL     1     -43.450  55.968 -58.846  1.00  0.00     0.163 C 
BRANCH  19  20
HETATM   20  C   UNL     1     -44.796  56.554 -59.215  1.00  0.00    -0.019 A 
HETATM   21  C   UNL     1     -45.357  57.641 -58.519  1.00  0.00     0.010 A 
HETATM   22  C   UNL     1     -46.606  58.159 -58.874  1.00  0.00     0.001 A 
HETATM   23  C   UNL     1     -47.319  57.604 -59.932  1.00  0.00     0.002 A 
HETATM   24  C   UNL     1     -46.782  56.531 -60.639  1.00  0.00     0.024 A 
HETATM   25  C   UNL     1     -45.532  56.011 -60.286  1.00  0.00     0.042 A 
HETATM   26 CL   UNL     1     -44.932  54.685 -61.221  1.00  0.00    -0.084 Cl
ENDBRANCH  19  20
ENDBRANCH  16  19
ENDBRANCH   1  15
TORSDOF 3
ENDMDL
MODEL 9
REMARK VINA RESULT:      -7.9      3.269      4.530
REMARK  3 active torsions:
REMARK  status: ('A' for Active; 'I' for Inactive)
REMARK    1  A    between atoms: C_3  and  C_4 
REMARK    2  A    between atoms: C_4  and  N_5 
REMARK       I    between atoms: N_5  and  C_6 
REMARK    3  A    between atoms: C_6  and  C_7 
ROOT
HETATM    1  C   UNL     1     -41.238  55.492 -52.354  1.00  0.00     0.155 A 
HETATM    2  N   UNL     1     -41.188  55.319 -51.012  1.00  0.00    -0.168 NA
HETATM    3  N   UNL     1     -40.773  54.042 -50.860  1.00  0.00    -0.276 N 
HETATM    4  H   UNL     1     -40.651  53.682 -49.919  1.00  0.00     0.189 HD
HETATM    5  C   UNL     1     -40.574  53.400 -52.039  1.00  0.00     0.074 A 
HETATM    6  C   UNL     1     -40.873  54.302 -53.024  1.00  0.00     0.031 A 
HETATM    7  C   UNL     1     -40.770  53.952 -54.458  1.00  0.00     0.219 A 
HETATM    8  O   UNL     1     -40.399  52.573 -54.740  1.00  0.00    -0.346 OA
HETATM    9  C   UNL     1     -40.076  51.722 -53.705  1.00  0.00     0.081 A 
HETATM   10  C   UNL     1     -40.140  52.060 -52.338  1.00  0.00     0.026 A 
HETATM   11  C   UNL     1     -39.669  50.443 -54.082  1.00  0.00     0.038 A 
HETATM   12  C   UNL     1     -39.321  49.504 -53.110  1.00  0.00     0.003 A 
HETATM   13  C   UNL     1     -39.381  49.841 -51.757  1.00  0.00     0.001 A 
HETATM   14  C   UNL     1     -39.792  51.119 -51.367  1.00  0.00     0.016 A 
ENDROOT
BRANCH   1  15
HETATM   15  C   UNL     1     -41.629  56.770 -52.967  1.00  0.00     0.272 C 
HETATM   16  N   UNL     1     -40.793  57.808 -52.631  1.00  0.00    -0.351 N 
HETATM   17  H   UNL     1     -40.034  57.580 -51.995  1.00  0.00     0.163 HD
HETATM   18  O   UNL     1     -42.608  56.882 -53.699  1.00  0.00    -0.266 OA
BRANCH  16  19
HETATM   19  C   UNL     1     -40.985  59.160 -53.092  1.00  0.00     0.163 C 
BRANCH  19  20
HETATM   20  C   UNL     1     -42.049  59.939 -52.350  1.00  0.00    -0.019 A 
HETATM   21  C   UNL     1     -43.217  60.404 -52.982  1.00  0.00     0.010 A 
HETATM   22  C   UNL     1     -44.182  61.129 -52.276  1.00  0.00     0.001 A 
HETATM   23  C   UNL     1     -44.002  61.402 -50.924  1.00  0.00     0.002 A 
HETATM   24  C   UNL     1     -42.857  60.948 -50.275  1.00  0.00     0.024 A 
HETATM   25  C   UNL     1     -41.890  60.222 -50.979  1.00  0.00     0.042 A 
HETATM   26 CL   UNL     1     -40.502  59.685 -50.096  1.00  0.00    -0.084 Cl
ENDBRANCH  19  20
ENDBRANCH  16  19
ENDBRANCH   1  15
TORSDOF 3
ENDMDL
MODEL 10
REMARK VINA RESULT:      -7.8      3.175      5.051
REMARK  3 active torsions:
REMARK  status: ('A' for Active; 'I' for Inactive)
REMARK    1  A    between atoms: C_3  and  C_4 
REMARK    2  A    between atoms: C_4  and  N_5 
REMARK       I    between atoms: N_5  and  C_6 
REMARK    3  A    between atoms: C_6  and  C_7 
ROOT
HETATM    1  C   UNL     1     -42.039  56.506 -54.794  1.00  0.00     0.155 A 
HETATM    2  N   UNL     1     -41.913  55.953 -56.025  1.00  0.00    -0.168 NA
HETATM    3  N   UNL     1     -41.362  54.742 -55.785  1.00  0.00    -0.276 N 
HETATM    4  H   UNL     1     -41.178  54.131 -56.575  1.00  0.00     0.189 HD
HETATM    5  C   UNL     1     -41.124  54.513 -54.469  1.00  0.00     0.074 A 
HETATM    6  C   UNL     1     -41.540  55.633 -53.802  1.00  0.00     0.031 A 
HETATM    7  C   UNL     1     -41.435  55.747 -52.330  1.00  0.00     0.219 A 
HETATM    8  O   UNL     1     -40.799  54.621 -51.659  1.00  0.00    -0.346 OA
HETATM    9  C   UNL     1     -40.433  53.507 -52.384  1.00  0.00     0.081 A 
HETATM   10  C   UNL     1     -40.561  53.380 -53.781  1.00  0.00     0.026 A 
HETATM   11  C   UNL     1     -39.895  52.457 -51.640  1.00  0.00     0.038 A 
HETATM   12  C   UNL     1     -39.491  51.284 -52.278  1.00  0.00     0.003 A 
HETATM   13  C   UNL     1     -39.622  51.157 -53.662  1.00  0.00     0.001 A 
HETATM   14  C   UNL     1     -40.157  52.205 -54.418  1.00  0.00     0.016 A 
ENDROOT
BRANCH   1  15
HETATM   15  C   UNL     1     -42.625  57.839 -54.590  1.00  0.00     0.272 C 
HETATM   16  N   UNL     1     -41.686  58.809 -54.332  1.00  0.00    -0.351 N 
HETATM   17  H   UNL     1     -40.721  58.493 -54.292  1.00  0.00     0.163 HD
HETATM   18  O   UNL     1     -43.834  58.046 -54.643  1.00  0.00    -0.266 OA
BRANCH  16  19
HETATM   19  C   UNL     1     -42.021  60.187 -54.077  1.00  0.00     0.163 C 
BRANCH  19  20
HETATM   20  C   UNL     1     -42.444  60.485 -52.654  1.00  0.00    -0.019 A 
HETATM   21  C   UNL     1     -41.715  60.022 -51.543  1.00  0.00     0.010 A 
HETATM   22  C   UNL     1     -42.130  60.303 -50.238  1.00  0.00     0.001 A 
HETATM   23  C   UNL     1     -43.279  61.055 -50.016  1.00  0.00     0.002 A 
HETATM   24  C   UNL     1     -44.014  61.529 -51.099  1.00  0.00     0.024 A 
HETATM   25  C   UNL     1     -43.601  61.249 -52.406  1.00  0.00     0.042 A 
HETATM   26 CL   UNL     1     -44.564  61.883 -53.697  1.00  0.00    -0.084 Cl
ENDBRANCH  19  20
ENDBRANCH  16  19
ENDBRANCH   1  15
TORSDOF 3
ENDMDL
