MODEL 1
REMARK VINA RESULT:      -7.7      0.000      0.000
REMARK  10 active torsions:
REMARK  status: ('A' for Active; 'I' for Inactive)
REMARK    1  A    between atoms: C_3  and  C_4 
REMARK    2  A    between atoms: C_4  and  C_5 
REMARK       I    between atoms: C_5  and  N_6 
REMARK    3  A    between atoms: N_6  and  C_7 
REMARK    4  A    between atoms: C_7  and  C_8 
REMARK    5  A    between atoms: C_18  and  N_19 
REMARK    6  A    between atoms: N_19  and  C_20 
REMARK    7  A    between atoms: C_20  and  C_21 
REMARK    8  A    between atoms: C_26  and  C_27 
REMARK    9  A    between atoms: C_27  and  O_28 
REMARK   10  A    between atoms: C_30  and  O_31 
ROOT
HETATM    1  C   UNL     1     -40.414  57.991 -53.456  1.00  0.00     0.016 C 
HETATM    2  C   UNL     1     -41.736  57.293 -53.932  1.00  0.00    -0.030 C 
HETATM    3  C   UNL     1     -42.526  56.945 -52.573  1.00  0.00     0.056 C 
HETATM    4  C   UNL     1     -43.425  58.089 -52.172  1.00  0.00     0.056 A 
HETATM    5  C   UNL     1     -43.622  59.233 -52.907  1.00  0.00     0.012 A 
HETATM    6  S   UNL     1     -44.699  60.281 -52.106  1.00  0.00    -0.055 SA
HETATM    7  C   UNL     1     -44.777  59.175 -50.785  1.00  0.00     0.167 A 
HETATM    8  N   UNL     1     -44.075  58.078 -50.954  1.00  0.00    -0.228 NA
HETATM    9  C   UNL     1     -42.979  59.581 -54.195  1.00  0.00     0.055 C 
HETATM   10  C   UNL     1     -42.461  58.316 -54.926  1.00  0.00     0.012 C 
HETATM   11  C   UNL     1     -43.486  57.714 -55.974  1.00  0.00     0.008 C 
HETATM   12  C   UNL     1     -43.717  58.748 -57.119  1.00  0.00     0.020 C 
HETATM   13  C   UNL     1     -42.852  56.459 -56.644  1.00  0.00     0.128 C 
HETATM   14  C   UNL     1     -42.315  55.440 -55.648  1.00  0.00     0.033 C 
HETATM   15  C   UNL     1     -41.267  56.050 -54.731  1.00  0.00     0.013 C 
ENDROOT
BRANCH   3  16
HETATM   16  C   UNL     1     -43.236  55.578 -52.516  1.00  0.00     0.114 C 
BRANCH  16  17
HETATM   17  C   UNL     1     -42.999  54.808 -51.229  1.00  0.00     0.218 C 
HETATM   18  N   UNL     1     -41.787  54.223 -51.003  1.00  0.00    -0.357 N 
HETATM   19  H   UNL     1     -41.703  53.850 -50.068  1.00  0.00     0.162 HD
HETATM   20  O   UNL     1     -43.861  54.763 -50.349  1.00  0.00    -0.274 OA
BRANCH  18  21
HETATM   21  C   UNL     1     -40.651  54.164 -51.902  1.00  0.00     0.162 C 
BRANCH  21  22
HETATM   22  C   UNL     1     -40.304  52.808 -52.449  1.00  0.00    -0.023 A 
HETATM   23  C   UNL     1     -39.776  51.762 -51.700  1.00  0.00     0.125 A 
HETATM   24  N   UNL     1     -39.484  50.533 -52.193  1.00  0.00    -0.273 NA
HETATM   25  C   UNL     1     -39.746  50.325 -53.499  1.00  0.00     0.116 A 
HETATM   26  C   UNL     1     -40.275  51.289 -54.338  1.00  0.00     0.020 A 
HETATM   27  C   UNL     1     -40.553  52.544 -53.803  1.00  0.00     0.012 A 
ENDBRANCH  21  22
ENDBRANCH  18  21
ENDBRANCH  16  17
ENDBRANCH   3  16
BRANCH  11  28
HETATM   28  C   UNL     1     -44.881  57.416 -55.366  1.00  0.00     0.176 C 
BRANCH  28  29
HETATM   29  O   UNL     1     -45.953  57.658 -56.273  1.00  0.00    -0.400 OA
HETATM   30  H   UNL     1     -46.645  56.993 -56.067  1.00  0.00     0.209 HD
ENDBRANCH  28  29
ENDBRANCH  11  28
BRANCH   7  31
HETATM   31  N   UNL     1     -45.522  59.480 -49.705  1.00  0.00    -0.366 N 
HETATM   32  H   UNL     1     -46.395  58.989 -49.564  1.00  0.00     0.162 HD
BRANCH  31  33
HETATM   33  C   UNL     1     -45.449  60.790 -49.103  1.00  0.00     0.148 C 
BRANCH  33  34
HETATM   34  C   UNL     1     -45.641  60.726 -47.610  1.00  0.00    -0.018 C 
HETATM   35  C   UNL     1     -44.770  61.032 -46.637  1.00  0.00     0.008 C 
ENDBRANCH  33  34
ENDBRANCH  31  33
ENDBRANCH   7  31
BRANCH  13  36
HETATM   36  O   UNL     1     -43.800  55.800 -57.486  1.00  0.00    -0.395 OA
HETATM   37  H   UNL     1     -44.380  55.268 -56.909  1.00  0.00     0.210 HD
ENDBRANCH  13  36
TORSDOF 10
ENDMDL
MODEL 2
REMARK VINA RESULT:      -7.7      3.009      6.775
REMARK  10 active torsions:
REMARK  status: ('A' for Active; 'I' for Inactive)
REMARK    1  A    between atoms: C_3  and  C_4 
REMARK    2  A    between atoms: C_4  and  C_5 
REMARK       I    between atoms: C_5  and  N_6 
REMARK    3  A    between atoms: N_6  and  C_7 
REMARK    4  A    between atoms: C_7  and  C_8 
REMARK    5  A    between atoms: C_18  and  N_19 
REMARK    6  A    between atoms: N_19  and  C_20 
REMARK    7  A    between atoms: C_20  and  C_21 
REMARK    8  A    between atoms: C_26  and  C_27 
REMARK    9  A    between atoms: C_27  and  O_28 
REMARK   10  A    between atoms: C_30  and  O_31 
ROOT
HETATM    1  C   UNL     1     -40.134  58.734 -53.248  1.00  0.00     0.016 C 
HETATM    2  C   UNL     1     -41.612  58.209 -53.289  1.00  0.00    -0.030 C 
HETATM    3  C   UNL     1     -41.474  56.618 -53.497  1.00  0.00     0.056 C 
HETATM    4  C   UNL     1     -41.395  55.912 -52.166  1.00  0.00     0.056 A 
HETATM    5  C   UNL     1     -41.519  56.521 -50.941  1.00  0.00     0.012 A 
HETATM    6  S   UNL     1     -41.358  55.381 -49.687  1.00  0.00    -0.055 SA
HETATM    7  C   UNL     1     -41.055  54.151 -50.856  1.00  0.00     0.167 A 
HETATM    8  N   UNL     1     -41.111  54.562 -52.102  1.00  0.00    -0.228 NA
HETATM    9  C   UNL     1     -41.715  57.967 -50.685  1.00  0.00     0.055 C 
HETATM   10  C   UNL     1     -42.305  58.683 -51.927  1.00  0.00     0.012 C 
HETATM   11  C   UNL     1     -43.885  58.798 -51.912  1.00  0.00     0.008 C 
HETATM   12  C   UNL     1     -44.324  59.694 -50.712  1.00  0.00     0.020 C 
HETATM   13  C   UNL     1     -44.353  59.539 -53.201  1.00  0.00     0.128 C 
HETATM   14  C   UNL     1     -43.788  58.949 -54.485  1.00  0.00     0.033 C 
HETATM   15  C   UNL     1     -42.268  58.952 -54.481  1.00  0.00     0.013 C 
ENDROOT
BRANCH   3  16
HETATM   16  C   UNL     1     -42.474  55.958 -54.466  1.00  0.00     0.114 C 
BRANCH  16  17
HETATM   17  C   UNL     1     -41.824  55.230 -55.630  1.00  0.00     0.218 C 
HETATM   18  N   UNL     1     -42.053  55.654 -56.907  1.00  0.00    -0.357 N 
HETATM   19  H   UNL     1     -41.474  55.179 -57.584  1.00  0.00     0.162 HD
HETATM   20  O   UNL     1     -41.033  54.305 -55.437  1.00  0.00    -0.274 OA
BRANCH  18  21
HETATM   21  C   UNL     1     -42.940  56.715 -57.342  1.00  0.00     0.162 C 
BRANCH  21  22
HETATM   22  C   UNL     1     -43.911  56.366 -58.435  1.00  0.00    -0.023 A 
HETATM   23  C   UNL     1     -44.968  57.171 -58.843  1.00  0.00     0.125 A 
HETATM   24  N   UNL     1     -45.829  56.862 -59.844  1.00  0.00    -0.273 NA
HETATM   25  C   UNL     1     -45.619  55.695 -60.486  1.00  0.00     0.116 A 
HETATM   26  C   UNL     1     -44.598  54.819 -60.170  1.00  0.00     0.020 A 
HETATM   27  C   UNL     1     -43.738  55.160 -59.130  1.00  0.00     0.012 A 
ENDBRANCH  21  22
ENDBRANCH  18  21
ENDBRANCH  16  17
ENDBRANCH   3  16
BRANCH  11  28
HETATM   28  C   UNL     1     -44.598  57.434 -51.725  1.00  0.00     0.176 C 
BRANCH  28  29
HETATM   29  O   UNL     1     -45.756  57.515 -50.899  1.00  0.00    -0.400 OA
HETATM   30  H   UNL     1     -46.494  57.124 -51.418  1.00  0.00     0.209 HD
ENDBRANCH  28  29
ENDBRANCH  11  28
BRANCH   7  31
HETATM   31  N   UNL     1     -40.794  52.894 -50.448  1.00  0.00    -0.366 N 
HETATM   32  H   UNL     1     -40.860  52.682 -49.461  1.00  0.00     0.162 HD
BRANCH  31  33
HETATM   33  C   UNL     1     -39.906  52.041 -51.203  1.00  0.00     0.148 C 
BRANCH  33  34
HETATM   34  C   UNL     1     -39.901  50.633 -50.667  1.00  0.00    -0.018 C 
HETATM   35  C   UNL     1     -39.690  49.484 -51.326  1.00  0.00     0.008 C 
ENDBRANCH  33  34
ENDBRANCH  31  33
ENDBRANCH   7  31
BRANCH  13  36
HETATM   36  O   UNL     1     -45.779  59.532 -53.299  1.00  0.00    -0.395 OA
HETATM   37  H   UNL     1     -46.132  59.405 -52.398  1.00  0.00     0.210 HD
ENDBRANCH  13  36
TORSDOF 10
ENDMDL
MODEL 3
REMARK VINA RESULT:      -7.6      2.911      5.725
REMARK  10 active torsions:
REMARK  status: ('A' for Active; 'I' for Inactive)
REMARK    1  A    between atoms: C_3  and  C_4 
REMARK    2  A    between atoms: C_4  and  C_5 
REMARK       I    between atoms: C_5  and  N_6 
REMARK    3  A    between atoms: N_6  and  C_7 
REMARK    4  A    between atoms: C_7  and  C_8 
REMARK    5  A    between atoms: C_18  and  N_19 
REMARK    6  A    between atoms: N_19  and  C_20 
REMARK    7  A    between atoms: C_20  and  C_21 
REMARK    8  A    between atoms: C_26  and  C_27 
REMARK    9  A    between atoms: C_27  and  O_28 
REMARK   10  A    between atoms: C_30  and  O_31 
ROOT
HETATM    1  C   UNL     1     -43.970  55.862 -51.127  1.00  0.00     0.016 C 
HETATM    2  C   UNL     1     -42.813  56.783 -51.652  1.00  0.00    -0.030 C 
HETATM    3  C   UNL     1     -42.525  56.262 -53.148  1.00  0.00     0.056 C 
HETATM    4  C   UNL     1     -43.388  56.998 -54.143  1.00  0.00     0.056 A 
HETATM    5  C   UNL     1     -44.236  58.035 -53.837  1.00  0.00     0.012 A 
HETATM    6  S   UNL     1     -45.038  58.585 -55.235  1.00  0.00    -0.055 SA
HETATM    7  C   UNL     1     -44.261  57.351 -56.154  1.00  0.00     0.167 A 
HETATM    8  N   UNL     1     -43.428  56.605 -55.466  1.00  0.00    -0.228 NA
HETATM    9  C   UNL     1     -44.493  58.603 -52.493  1.00  0.00     0.055 C 
HETATM   10  C   UNL     1     -43.330  58.290 -51.517  1.00  0.00     0.012 C 
HETATM   11  C   UNL     1     -42.236  59.433 -51.434  1.00  0.00     0.008 C 
HETATM   12  C   UNL     1     -42.886  60.725 -50.849  1.00  0.00     0.020 C 
HETATM   13  C   UNL     1     -41.131  59.007 -50.422  1.00  0.00     0.128 C 
HETATM   14  C   UNL     1     -40.558  57.622 -50.688  1.00  0.00     0.033 C 
HETATM   15  C   UNL     1     -41.641  56.554 -50.662  1.00  0.00     0.013 C 
ENDROOT
BRANCH   3  16
HETATM   16  C   UNL     1     -41.048  56.184 -53.581  1.00  0.00     0.114 C 
BRANCH  16  17
HETATM   17  C   UNL     1     -40.679  54.899 -54.302  1.00  0.00     0.218 C 
HETATM   18  N   UNL     1     -40.412  53.771 -53.581  1.00  0.00    -0.357 N 
HETATM   19  H   UNL     1     -40.304  52.954 -54.163  1.00  0.00     0.162 HD
HETATM   20  O   UNL     1     -40.685  54.837 -55.532  1.00  0.00    -0.274 OA
BRANCH  18  21
HETATM   21  C   UNL     1     -40.354  53.635 -52.138  1.00  0.00     0.162 C 
BRANCH  21  22
HETATM   22  C   UNL     1     -40.129  52.246 -51.609  1.00  0.00    -0.023 A 
HETATM   23  C   UNL     1     -40.424  51.835 -50.314  1.00  0.00     0.125 A 
HETATM   24  N   UNL     1     -40.240  50.576 -49.846  1.00  0.00    -0.273 NA
HETATM   25  C   UNL     1     -39.749  49.670 -50.717  1.00  0.00     0.116 A 
HETATM   26  C   UNL     1     -39.426  49.965 -52.028  1.00  0.00     0.020 A 
HETATM   27  C   UNL     1     -39.616  51.270 -52.474  1.00  0.00     0.012 A 
ENDBRANCH  21  22
ENDBRANCH  18  21
ENDBRANCH  16  17
ENDBRANCH   3  16
BRANCH  11  28
HETATM   28  C   UNL     1     -41.650  59.825 -52.815  1.00  0.00     0.176 C 
BRANCH  28  29
HETATM   29  O   UNL     1     -42.120  61.083 -53.289  1.00  0.00    -0.400 OA
HETATM   30  H   UNL     1     -42.697  61.447 -52.581  1.00  0.00     0.209 HD
ENDBRANCH  28  29
ENDBRANCH  11  28
BRANCH   7  31
HETATM   31  N   UNL     1     -44.536  57.226 -57.468  1.00  0.00    -0.366 N 
HETATM   32  H   UNL     1     -45.500  57.277 -57.767  1.00  0.00     0.162 HD
BRANCH  31  33
HETATM   33  C   UNL     1     -43.658  56.481 -58.339  1.00  0.00     0.148 C 
BRANCH  33  34
HETATM   34  C   UNL     1     -44.421  55.806 -59.448  1.00  0.00    -0.018 C 
HETATM   35  C   UNL     1     -44.467  54.503 -59.765  1.00  0.00     0.008 C 
ENDBRANCH  33  34
ENDBRANCH  31  33
ENDBRANCH   7  31
BRANCH  13  36
HETATM   36  O   UNL     1     -40.050  59.942 -50.428  1.00  0.00    -0.395 OA
HETATM   37  H   UNL     1     -39.691  59.965 -51.335  1.00  0.00     0.210 HD
ENDBRANCH  13  36
TORSDOF 10
ENDMDL
MODEL 4
REMARK VINA RESULT:      -7.6      3.170      5.956
REMARK  10 active torsions:
REMARK  status: ('A' for Active; 'I' for Inactive)
REMARK    1  A    between atoms: C_3  and  C_4 
REMARK    2  A    between atoms: C_4  and  C_5 
REMARK       I    between atoms: C_5  and  N_6 
REMARK    3  A    between atoms: N_6  and  C_7 
REMARK    4  A    between atoms: C_7  and  C_8 
REMARK    5  A    between atoms: C_18  and  N_19 
REMARK    6  A    between atoms: N_19  and  C_20 
REMARK    7  A    between atoms: C_20  and  C_21 
REMARK    8  A    between atoms: C_26  and  C_27 
REMARK    9  A    between atoms: C_27  and  O_28 
REMARK   10  A    between atoms: C_30  and  O_31 
ROOT
HETATM    1  C   UNL     1     -45.076  57.280 -53.666  1.00  0.00     0.016 C 
HETATM    2  C   UNL     1     -43.522  57.175 -53.476  1.00  0.00    -0.030 C 
HETATM    3  C   UNL     1     -42.975  56.615 -54.884  1.00  0.00     0.056 C 
HETATM    4  C   UNL     1     -42.655  57.754 -55.820  1.00  0.00     0.056 A 
HETATM    5  C   UNL     1     -42.724  59.087 -55.495  1.00  0.00     0.012 A 
HETATM    6  S   UNL     1     -42.295  60.052 -56.830  1.00  0.00    -0.055 SA
HETATM    7  C   UNL     1     -42.116  58.630 -57.788  1.00  0.00     0.167 A 
HETATM    8  N   UNL     1     -42.325  57.508 -57.139  1.00  0.00    -0.228 NA
HETATM    9  C   UNL     1     -43.153  59.662 -54.199  1.00  0.00     0.055 C 
HETATM   10  C   UNL     1     -43.013  58.630 -53.051  1.00  0.00     0.012 C 
HETATM   11  C   UNL     1     -41.638  58.724 -52.267  1.00  0.00     0.008 C 
HETATM   12  C   UNL     1     -41.549  60.106 -51.549  1.00  0.00     0.020 C 
HETATM   13  C   UNL     1     -41.621  57.648 -51.141  1.00  0.00     0.128 C 
HETATM   14  C   UNL     1     -41.960  56.246 -51.628  1.00  0.00     0.033 C 
HETATM   15  C   UNL     1     -43.330  56.199 -52.286  1.00  0.00     0.013 C 
ENDROOT
BRANCH   3  16
HETATM   16  C   UNL     1     -41.855  55.559 -54.820  1.00  0.00     0.114 C 
BRANCH  16  17
HETATM   17  C   UNL     1     -42.308  54.151 -55.164  1.00  0.00     0.218 C 
HETATM   18  N   UNL     1     -41.555  53.082 -54.772  1.00  0.00    -0.357 N 
HETATM   19  H   UNL     1     -42.014  52.199 -54.943  1.00  0.00     0.162 HD
HETATM   20  O   UNL     1     -43.384  53.952 -55.731  1.00  0.00    -0.274 OA
BRANCH  18  21
HETATM   21  C   UNL     1     -40.271  53.103 -54.100  1.00  0.00     0.162 C 
BRANCH  21  22
HETATM   22  C   UNL     1     -39.981  51.948 -53.182  1.00  0.00    -0.023 A 
HETATM   23  C   UNL     1     -39.902  52.039 -51.796  1.00  0.00     0.125 A 
HETATM   24  N   UNL     1     -39.661  50.991 -50.970  1.00  0.00    -0.273 NA
HETATM   25  C   UNL     1     -39.506  49.783 -51.550  1.00  0.00     0.116 A 
HETATM   26  C   UNL     1     -39.569  49.575 -52.915  1.00  0.00     0.020 A 
HETATM   27  C   UNL     1     -39.807  50.673 -53.737  1.00  0.00     0.012 A 
ENDBRANCH  21  22
ENDBRANCH  18  21
ENDBRANCH  16  17
ENDBRANCH   3  16
BRANCH  11  28
HETATM   28  C   UNL     1     -40.397  58.629 -53.191  1.00  0.00     0.176 C 
BRANCH  28  29
HETATM   29  O   UNL     1     -39.224  59.197 -52.616  1.00  0.00    -0.400 OA
HETATM   30  H   UNL     1     -38.884  58.537 -51.973  1.00  0.00     0.209 HD
ENDBRANCH  28  29
ENDBRANCH  11  28
BRANCH   7  31
HETATM   31  N   UNL     1     -41.783  58.741 -59.090  1.00  0.00    -0.366 N 
HETATM   32  H   UNL     1     -41.803  59.657 -59.517  1.00  0.00     0.162 HD
BRANCH  31  33
HETATM   33  C   UNL     1     -41.968  57.634 -59.997  1.00  0.00     0.148 C 
BRANCH  33  34
HETATM   34  C   UNL     1     -43.420  57.445 -60.352  1.00  0.00    -0.018 C 
HETATM   35  C   UNL     1     -44.181  56.348 -60.222  1.00  0.00     0.008 C 
ENDBRANCH  33  34
ENDBRANCH  31  33
ENDBRANCH   7  31
BRANCH  13  36
HETATM   36  O   UNL     1     -40.341  57.599 -50.506  1.00  0.00    -0.395 OA
HETATM   37  H   UNL     1     -40.495  57.566 -49.544  1.00  0.00     0.210 HD
ENDBRANCH  13  36
TORSDOF 10
ENDMDL
MODEL 5
REMARK VINA RESULT:      -7.0      3.393      5.736
REMARK  10 active torsions:
REMARK  status: ('A' for Active; 'I' for Inactive)
REMARK    1  A    between atoms: C_3  and  C_4 
REMARK    2  A    between atoms: C_4  and  C_5 
REMARK       I    between atoms: C_5  and  N_6 
REMARK    3  A    between atoms: N_6  and  C_7 
REMARK    4  A    between atoms: C_7  and  C_8 
REMARK    5  A    between atoms: C_18  and  N_19 
REMARK    6  A    between atoms: N_19  and  C_20 
REMARK    7  A    between atoms: C_20  and  C_21 
REMARK    8  A    between atoms: C_26  and  C_27 
REMARK    9  A    between atoms: C_27  and  O_28 
REMARK   10  A    between atoms: C_30  and  O_31 
ROOT
HETATM    1  C   UNL     1     -41.733  57.618 -59.989  1.00  0.00     0.016 C 
HETATM    2  C   UNL     1     -42.975  57.153 -59.151  1.00  0.00    -0.030 C 
HETATM    3  C   UNL     1     -42.381  56.820 -57.692  1.00  0.00     0.056 C 
HETATM    4  C   UNL     1     -42.410  58.047 -56.814  1.00  0.00     0.056 A 
HETATM    5  C   UNL     1     -42.952  59.259 -57.168  1.00  0.00     0.012 A 
HETATM    6  S   UNL     1     -42.773  60.386 -55.905  1.00  0.00    -0.055 SA
HETATM    7  C   UNL     1     -41.911  59.208 -54.988  1.00  0.00     0.167 A 
HETATM    8  N   UNL     1     -41.801  58.038 -55.574  1.00  0.00    -0.228 NA
HETATM    9  C   UNL     1     -43.572  59.607 -58.467  1.00  0.00     0.055 C 
HETATM   10  C   UNL     1     -44.046  58.338 -59.223  1.00  0.00     0.012 C 
HETATM   11  C   UNL     1     -45.565  57.968 -58.966  1.00  0.00     0.008 C 
HETATM   12  C   UNL     1     -46.474  59.106 -59.526  1.00  0.00     0.020 C 
HETATM   13  C   UNL     1     -45.921  56.688 -59.781  1.00  0.00     0.128 C 
HETATM   14  C   UNL     1     -44.956  55.532 -59.556  1.00  0.00     0.033 C 
HETATM   15  C   UNL     1     -43.528  55.918 -59.909  1.00  0.00     0.013 C 
ENDROOT
BRANCH   3  16
HETATM   16  C   UNL     1     -42.938  55.568 -56.988  1.00  0.00     0.114 C 
BRANCH  16  17
HETATM   17  C   UNL     1     -42.230  55.218 -55.690  1.00  0.00     0.218 C 
HETATM   18  N   UNL     1     -42.902  55.311 -54.506  1.00  0.00    -0.357 N 
HETATM   19  H   UNL     1     -42.376  54.936 -53.730  1.00  0.00     0.162 HD
HETATM   20  O   UNL     1     -41.077  54.783 -55.693  1.00  0.00    -0.274 OA
BRANCH  18  21
HETATM   21  C   UNL     1     -44.251  55.795 -54.289  1.00  0.00     0.162 C 
BRANCH  21  22
HETATM   22  C   UNL     1     -44.386  57.053 -53.477  1.00  0.00    -0.023 A 
HETATM   23  C   UNL     1     -45.068  58.192 -53.889  1.00  0.00     0.125 A 
HETATM   24  N   UNL     1     -45.206  59.317 -53.146  1.00  0.00    -0.273 NA
HETATM   25  C   UNL     1     -44.647  59.306 -51.918  1.00  0.00     0.116 A 
HETATM   26  C   UNL     1     -43.949  58.229 -51.404  1.00  0.00     0.020 A 
HETATM   27  C   UNL     1     -43.817  57.093 -52.197  1.00  0.00     0.012 A 
ENDBRANCH  21  22
ENDBRANCH  18  21
ENDBRANCH  16  17
ENDBRANCH   3  16
BRANCH  11  28
HETATM   28  C   UNL     1     -45.917  57.825 -57.463  1.00  0.00     0.176 C 
BRANCH  28  29
HETATM   29  O   UNL     1     -47.319  57.770 -57.217  1.00  0.00    -0.400 OA
HETATM   30  H   UNL     1     -47.733  58.417 -57.829  1.00  0.00     0.209 HD
ENDBRANCH  28  29
ENDBRANCH  11  28
BRANCH   7  31
HETATM   31  N   UNL     1     -41.422  59.535 -53.775  1.00  0.00    -0.366 N 
HETATM   32  H   UNL     1     -41.307  60.514 -53.548  1.00  0.00     0.162 HD
BRANCH  31  33
HETATM   33  C   UNL     1     -40.555  58.631 -53.060  1.00  0.00     0.148 C 
BRANCH  33  34
HETATM   34  C   UNL     1     -40.094  59.221 -51.753  1.00  0.00    -0.018 C 
HETATM   35  C   UNL     1     -40.553  58.984 -50.515  1.00  0.00     0.008 C 
ENDBRANCH  33  34
ENDBRANCH  31  33
ENDBRANCH   7  31
BRANCH  13  36
HETATM   36  O   UNL     1     -47.239  56.234 -59.461  1.00  0.00    -0.395 OA
HETATM   37  H   UNL     1     -47.446  56.553 -58.563  1.00  0.00     0.210 HD
ENDBRANCH  13  36
TORSDOF 10
ENDMDL
MODEL 6
REMARK VINA RESULT:      -6.9      4.621      8.830
REMARK  10 active torsions:
REMARK  status: ('A' for Active; 'I' for Inactive)
REMARK    1  A    between atoms: C_3  and  C_4 
REMARK    2  A    between atoms: C_4  and  C_5 
REMARK       I    between atoms: C_5  and  N_6 
REMARK    3  A    between atoms: N_6  and  C_7 
REMARK    4  A    between atoms: C_7  and  C_8 
REMARK    5  A    between atoms: C_18  and  N_19 
REMARK    6  A    between atoms: N_19  and  C_20 
REMARK    7  A    between atoms: C_20  and  C_21 
REMARK    8  A    between atoms: C_26  and  C_27 
REMARK    9  A    between atoms: C_27  and  O_28 
REMARK   10  A    between atoms: C_30  and  O_31 
ROOT
HETATM    1  C   UNL     1     -41.770  59.412 -58.357  1.00  0.00     0.016 C 
HETATM    2  C   UNL     1     -43.204  58.926 -57.944  1.00  0.00    -0.030 C 
HETATM    3  C   UNL     1     -43.143  57.322 -58.069  1.00  0.00     0.056 C 
HETATM    4  C   UNL     1     -42.697  56.703 -56.768  1.00  0.00     0.056 A 
HETATM    5  C   UNL     1     -42.465  57.395 -55.603  1.00  0.00     0.012 A 
HETATM    6  S   UNL     1     -41.967  56.336 -54.367  1.00  0.00    -0.055 SA
HETATM    7  C   UNL     1     -42.016  55.024 -55.484  1.00  0.00     0.167 A 
HETATM    8  N   UNL     1     -42.417  55.353 -56.691  1.00  0.00    -0.228 NA
HETATM    9  C   UNL     1     -42.569  58.859 -55.406  1.00  0.00     0.055 C 
HETATM   10  C   UNL     1     -43.480  59.508 -56.480  1.00  0.00     0.012 C 
HETATM   11  C   UNL     1     -44.991  59.668 -56.030  1.00  0.00     0.008 C 
HETATM   12  C   UNL     1     -45.066  60.652 -54.822  1.00  0.00     0.020 C 
HETATM   13  C   UNL     1     -45.798  60.335 -57.184  1.00  0.00     0.128 C 
HETATM   14  C   UNL     1     -45.623  59.646 -58.531  1.00  0.00     0.033 C 
HETATM   15  C   UNL     1     -44.163  59.607 -58.954  1.00  0.00     0.013 C 
ENDROOT
BRANCH   3  16
HETATM   16  C   UNL     1     -44.381  56.628 -58.669  1.00  0.00     0.114 C 
BRANCH  16  17
HETATM   17  C   UNL     1     -44.253  56.296 -60.145  1.00  0.00     0.218 C 
HETATM   18  N   UNL     1     -45.375  56.185 -60.914  1.00  0.00    -0.357 N 
HETATM   19  H   UNL     1     -45.165  56.088 -61.897  1.00  0.00     0.162 HD
HETATM   20  O   UNL     1     -43.147  56.195 -60.679  1.00  0.00    -0.274 OA
BRANCH  18  21
HETATM   21  C   UNL     1     -46.757  56.269 -60.482  1.00  0.00     0.162 C 
BRANCH  21  22
HETATM   22  C   UNL     1     -47.674  57.094 -61.342  1.00  0.00    -0.023 A 
HETATM   23  C   UNL     1     -48.570  56.574 -62.269  1.00  0.00     0.125 A 
HETATM   24  N   UNL     1     -49.412  57.319 -63.027  1.00  0.00    -0.273 NA
HETATM   25  C   UNL     1     -49.371  58.655 -62.845  1.00  0.00     0.116 A 
HETATM   26  C   UNL     1     -48.524  59.280 -61.949  1.00  0.00     0.020 A 
HETATM   27  C   UNL     1     -47.665  58.487 -61.193  1.00  0.00     0.012 A 
ENDBRANCH  21  22
ENDBRANCH  18  21
ENDBRANCH  16  17
ENDBRANCH   3  16
BRANCH  11  28
HETATM   28  C   UNL     1     -45.634  58.340 -55.554  1.00  0.00     0.176 C 
BRANCH  28  29
HETATM   29  O   UNL     1     -46.571  57.804 -56.484  1.00  0.00    -0.400 OA
HETATM   30  H   UNL     1     -46.915  56.975 -56.084  1.00  0.00     0.209 HD
ENDBRANCH  28  29
ENDBRANCH  11  28
BRANCH   7  31
HETATM   31  N   UNL     1     -41.660  53.789 -55.078  1.00  0.00    -0.366 N 
HETATM   32  H   UNL     1     -42.336  53.233 -54.572  1.00  0.00     0.162 HD
BRANCH  31  33
HETATM   33  C   UNL     1     -40.277  53.468 -54.815  1.00  0.00     0.148 C 
BRANCH  33  34
HETATM   34  C   UNL     1     -40.149  52.258 -53.926  1.00  0.00    -0.018 C 
HETATM   35  C   UNL     1     -40.056  50.966 -54.274  1.00  0.00     0.008 C 
ENDBRANCH  33  34
ENDBRANCH  31  33
ENDBRANCH   7  31
BRANCH  13  36
HETATM   36  O   UNL     1     -47.194  60.362 -56.878  1.00  0.00    -0.395 OA
HETATM   37  H   UNL     1     -47.674  60.464 -57.721  1.00  0.00     0.210 HD
ENDBRANCH  13  36
TORSDOF 10
ENDMDL
MODEL 7
REMARK VINA RESULT:      -6.8      2.970      8.092
REMARK  10 active torsions:
REMARK  status: ('A' for Active; 'I' for Inactive)
REMARK    1  A    between atoms: C_3  and  C_4 
REMARK    2  A    between atoms: C_4  and  C_5 
REMARK       I    between atoms: C_5  and  N_6 
REMARK    3  A    between atoms: N_6  and  C_7 
REMARK    4  A    between atoms: C_7  and  C_8 
REMARK    5  A    between atoms: C_18  and  N_19 
REMARK    6  A    between atoms: N_19  and  C_20 
REMARK    7  A    between atoms: C_20  and  C_21 
REMARK    8  A    between atoms: C_26  and  C_27 
REMARK    9  A    between atoms: C_27  and  O_28 
REMARK   10  A    between atoms: C_30  and  O_31 
ROOT
HETATM    1  C   UNL     1     -40.285  58.365 -53.276  1.00  0.00     0.016 C 
HETATM    2  C   UNL     1     -41.491  57.505 -52.757  1.00  0.00    -0.030 C 
HETATM    3  C   UNL     1     -42.751  58.004 -53.626  1.00  0.00     0.056 C 
HETATM    4  C   UNL     1     -42.881  57.191 -54.890  1.00  0.00     0.056 A 
HETATM    5  C   UNL     1     -42.097  56.111 -55.219  1.00  0.00     0.012 A 
HETATM    6  S   UNL     1     -42.554  55.478 -56.732  1.00  0.00    -0.055 SA
HETATM    7  C   UNL     1     -43.723  56.734 -56.894  1.00  0.00     0.167 A 
HETATM    8  N   UNL     1     -43.792  57.548 -55.865  1.00  0.00    -0.228 NA
HETATM    9  C   UNL     1     -40.969  55.563 -54.431  1.00  0.00     0.055 C 
HETATM   10  C   UNL     1     -41.072  55.973 -52.939  1.00  0.00     0.012 C 
HETATM   11  C   UNL     1     -41.803  54.902 -52.028  1.00  0.00     0.008 C 
HETATM   12  C   UNL     1     -40.963  53.587 -52.005  1.00  0.00     0.020 C 
HETATM   13  C   UNL     1     -41.837  55.422 -50.560  1.00  0.00     0.128 C 
HETATM   14  C   UNL     1     -42.392  56.833 -50.423  1.00  0.00     0.033 C 
HETATM   15  C   UNL     1     -41.592  57.831 -51.245  1.00  0.00     0.013 C 
ENDROOT
BRANCH   3  16
HETATM   16  C   UNL     1     -44.089  58.163 -52.877  1.00  0.00     0.114 C 
BRANCH  16  17
HETATM   17  C   UNL     1     -44.806  59.472 -53.158  1.00  0.00     0.218 C 
HETATM   18  N   UNL     1     -44.599  60.546 -52.341  1.00  0.00    -0.357 N 
HETATM   19  H   UNL     1     -45.026  61.390 -52.694  1.00  0.00     0.162 HD
HETATM   20  O   UNL     1     -45.519  59.603 -54.154  1.00  0.00    -0.274 OA
BRANCH  18  21
HETATM   21  C   UNL     1     -43.804  60.597 -51.130  1.00  0.00     0.162 C 
BRANCH  21  22
HETATM   22  C   UNL     1     -44.489  61.139 -49.906  1.00  0.00    -0.023 A 
HETATM   23  C   UNL     1     -45.492  60.481 -49.203  1.00  0.00     0.125 A 
HETATM   24  N   UNL     1     -46.092  60.962 -48.087  1.00  0.00    -0.273 NA
HETATM   25  C   UNL     1     -45.662  62.158 -47.635  1.00  0.00     0.116 A 
HETATM   26  C   UNL     1     -44.670  62.898 -48.250  1.00  0.00     0.020 A 
HETATM   27  C   UNL     1     -44.081  62.381 -49.400  1.00  0.00     0.012 A 
ENDBRANCH  21  22
ENDBRANCH  18  21
ENDBRANCH  16  17
ENDBRANCH   3  16
BRANCH  11  28
HETATM   28  C   UNL     1     -43.211  54.513 -52.547  1.00  0.00     0.176 C 
BRANCH  28  29
HETATM   29  O   UNL     1     -43.971  53.763 -51.603  1.00  0.00    -0.400 OA
HETATM   30  H   UNL     1     -43.947  54.271 -50.763  1.00  0.00     0.209 HD
ENDBRANCH  28  29
ENDBRANCH  11  28
BRANCH   7  31
HETATM   31  N   UNL     1     -44.471  56.807 -58.013  1.00  0.00    -0.366 N 
HETATM   32  H   UNL     1     -45.424  56.474 -57.980  1.00  0.00     0.162 HD
BRANCH  31  33
HETATM   33  C   UNL     1     -43.853  56.780 -59.317  1.00  0.00     0.148 C 
BRANCH  33  34
HETATM   34  C   UNL     1     -44.369  55.637 -60.152  1.00  0.00    -0.018 C 
HETATM   35  C   UNL     1     -44.606  54.369 -59.785  1.00  0.00     0.008 C 
ENDBRANCH  33  34
ENDBRANCH  31  33
ENDBRANCH   7  31
BRANCH  13  36
HETATM   36  O   UNL     1     -42.618  54.555 -49.733  1.00  0.00    -0.395 OA
HETATM   37  H   UNL     1     -43.465  54.403 -50.192  1.00  0.00     0.210 HD
ENDBRANCH  13  36
TORSDOF 10
ENDMDL
MODEL 8
REMARK VINA RESULT:      -6.7      3.670      5.444
REMARK  10 active torsions:
REMARK  status: ('A' for Active; 'I' for Inactive)
REMARK    1  A    between atoms: C_3  and  C_4 
REMARK    2  A    between atoms: C_4  and  C_5 
REMARK       I    between atoms: C_5  and  N_6 
REMARK    3  A    between atoms: N_6  and  C_7 
REMARK    4  A    between atoms: C_7  and  C_8 
REMARK    5  A    between atoms: C_18  and  N_19 
REMARK    6  A    between atoms: N_19  and  C_20 
REMARK    7  A    between atoms: C_20  and  C_21 
REMARK    8  A    between atoms: C_26  and  C_27 
REMARK    9  A    between atoms: C_27  and  O_28 
REMARK   10  A    between atoms: C_30  and  O_31 
ROOT
HETATM    1  C   UNL     1     -41.473  57.571 -59.779  1.00  0.00     0.016 C 
HETATM    2  C   UNL     1     -42.827  57.285 -59.038  1.00  0.00    -0.030 C 
HETATM    3  C   UNL     1     -42.500  57.530 -57.480  1.00  0.00     0.056 C 
HETATM    4  C   UNL     1     -42.746  58.970 -57.105  1.00  0.00     0.056 A 
HETATM    5  C   UNL     1     -43.268  59.926 -57.943  1.00  0.00     0.012 A 
HETATM    6  S   UNL     1     -43.377  61.426 -57.144  1.00  0.00    -0.055 SA
HETATM    7  C   UNL     1     -42.647  60.725 -55.748  1.00  0.00     0.167 A 
HETATM    8  N   UNL     1     -42.378  59.445 -55.861  1.00  0.00    -0.228 NA
HETATM    9  C   UNL     1     -43.651  59.748 -59.362  1.00  0.00     0.055 C 
HETATM   10  C   UNL     1     -43.919  58.256 -59.689  1.00  0.00     0.012 C 
HETATM   11  C   UNL     1     -45.441  57.834 -59.563  1.00  0.00     0.008 C 
HETATM   12  C   UNL     1     -46.280  58.612 -60.623  1.00  0.00     0.020 C 
HETATM   13  C   UNL     1     -45.581  56.324 -59.922  1.00  0.00     0.128 C 
HETATM   14  C   UNL     1     -44.623  55.421 -59.157  1.00  0.00     0.033 C 
HETATM   15  C   UNL     1     -43.174  55.816 -59.392  1.00  0.00     0.013 C 
ENDROOT
BRANCH   3  16
HETATM   16  C   UNL     1     -43.120  56.536 -56.479  1.00  0.00     0.114 C 
BRANCH  16  17
HETATM   17  C   UNL     1     -42.102  55.706 -55.716  1.00  0.00     0.218 C 
HETATM   18  N   UNL     1     -41.893  55.944 -54.388  1.00  0.00    -0.357 N 
HETATM   19  H   UNL     1     -41.293  55.255 -53.960  1.00  0.00     0.162 HD
HETATM   20  O   UNL     1     -41.511  54.771 -56.259  1.00  0.00    -0.274 OA
BRANCH  18  21
HETATM   21  C   UNL     1     -42.484  56.986 -53.572  1.00  0.00     0.162 C 
BRANCH  21  22
HETATM   22  C   UNL     1     -41.541  57.762 -52.695  1.00  0.00    -0.023 A 
HETATM   23  C   UNL     1     -40.465  58.511 -53.159  1.00  0.00     0.125 A 
HETATM   24  N   UNL     1     -39.629  59.227 -52.367  1.00  0.00    -0.273 NA
HETATM   25  C   UNL     1     -39.883  59.209 -51.043  1.00  0.00     0.116 A 
HETATM   26  C   UNL     1     -40.927  58.504 -50.472  1.00  0.00     0.020 A 
HETATM   27  C   UNL     1     -41.760  57.771 -51.311  1.00  0.00     0.012 A 
ENDBRANCH  21  22
ENDBRANCH  18  21
ENDBRANCH  16  17
ENDBRANCH   3  16
BRANCH  11  28
HETATM   28  C   UNL     1     -46.059  58.170 -58.181  1.00  0.00     0.176 C 
BRANCH  28  29
HETATM   29  O   UNL     1     -47.447  58.482 -58.248  1.00  0.00    -0.400 OA
HETATM   30  H   UNL     1     -47.720  58.334 -59.180  1.00  0.00     0.209 HD
ENDBRANCH  28  29
ENDBRANCH  11  28
BRANCH   7  31
HETATM   31  N   UNL     1     -42.408  61.492 -54.666  1.00  0.00    -0.366 N 
HETATM   32  H   UNL     1     -41.485  61.473 -54.254  1.00  0.00     0.162 HD
BRANCH  31  33
HETATM   33  C   UNL     1     -43.477  61.854 -53.766  1.00  0.00     0.148 C 
BRANCH  33  34
HETATM   34  C   UNL     1     -43.801  60.735 -52.811  1.00  0.00    -0.018 C 
HETATM   35  C   UNL     1     -43.884  60.770 -51.473  1.00  0.00     0.008 C 
ENDBRANCH  33  34
ENDBRANCH  31  33
ENDBRANCH   7  31
BRANCH  13  36
HETATM   36  O   UNL     1     -46.913  55.866 -59.677  1.00  0.00    -0.395 OA
HETATM   37  H   UNL     1     -46.912  55.420 -58.810  1.00  0.00     0.210 HD
ENDBRANCH  13  36
TORSDOF 10
ENDMDL
MODEL 9
REMARK VINA RESULT:      -6.7     16.042     19.135
REMARK  10 active torsions:
REMARK  status: ('A' for Active; 'I' for Inactive)
REMARK    1  A    between atoms: C_3  and  C_4 
REMARK    2  A    between atoms: C_4  and  C_5 
REMARK       I    between atoms: C_5  and  N_6 
REMARK    3  A    between atoms: N_6  and  C_7 
REMARK    4  A    between atoms: C_7  and  C_8 
REMARK    5  A    between atoms: C_18  and  N_19 
REMARK    6  A    between atoms: N_19  and  C_20 
REMARK    7  A    between atoms: C_20  and  C_21 
REMARK    8  A    between atoms: C_26  and  C_27 
REMARK    9  A    between atoms: C_27  and  O_28 
REMARK   10  A    between atoms: C_30  and  O_31 
ROOT
HETATM    1  C   UNL     1     -35.938  37.345 -56.392  1.00  0.00     0.016 C 
HETATM    2  C   UNL     1     -35.086  38.607 -56.011  1.00  0.00    -0.030 C 
HETATM    3  C   UNL     1     -36.167  39.782 -55.805  1.00  0.00     0.056 C 
HETATM    4  C   UNL     1     -36.638  39.826 -54.373  1.00  0.00     0.056 A 
HETATM    5  C   UNL     1     -36.149  39.042 -53.356  1.00  0.00     0.012 A 
HETATM    6  S   UNL     1     -36.950  39.388 -51.894  1.00  0.00    -0.055 SA
HETATM    7  C   UNL     1     -37.958  40.513 -52.724  1.00  0.00     0.167 A 
HETATM    8  N   UNL     1     -37.684  40.648 -54.002  1.00  0.00    -0.228 NA
HETATM    9  C   UNL     1     -35.109  37.993 -53.468  1.00  0.00     0.055 C 
HETATM   10  C   UNL     1     -34.226  38.207 -54.724  1.00  0.00     0.012 C 
HETATM   11  C   UNL     1     -32.902  39.032 -54.444  1.00  0.00     0.008 C 
HETATM   12  C   UNL     1     -31.989  38.225 -53.470  1.00  0.00     0.020 C 
HETATM   13  C   UNL     1     -32.100  39.173 -55.773  1.00  0.00     0.128 C 
HETATM   14  C   UNL     1     -32.929  39.708 -56.933  1.00  0.00     0.033 C 
HETATM   15  C   UNL     1     -34.133  38.823 -57.215  1.00  0.00     0.013 C 
ENDROOT
BRANCH   3  16
HETATM   16  C   UNL     1     -35.791  41.172 -56.355  1.00  0.00     0.114 C 
BRANCH  16  17
HETATM   17  C   UNL     1     -36.948  41.922 -56.992  1.00  0.00     0.218 C 
HETATM   18  N   UNL     1     -37.306  41.648 -58.280  1.00  0.00    -0.357 N 
HETATM   19  H   UNL     1     -38.160  42.111 -58.553  1.00  0.00     0.162 HD
HETATM   20  O   UNL     1     -37.618  42.725 -56.341  1.00  0.00    -0.274 OA
BRANCH  18  21
HETATM   21  C   UNL     1     -36.653  40.744 -59.207  1.00  0.00     0.162 C 
BRANCH  21  22
HETATM   22  C   UNL     1     -37.525  39.696 -59.841  1.00  0.00    -0.023 A 
HETATM   23  C   UNL     1     -37.601  39.449 -61.207  1.00  0.00     0.125 A 
HETATM   24  N   UNL     1     -38.372  38.488 -61.773  1.00  0.00    -0.273 NA
HETATM   25  C   UNL     1     -39.099  37.721 -60.935  1.00  0.00     0.116 A 
HETATM   26  C   UNL     1     -39.098  37.873 -59.561  1.00  0.00     0.020 A 
HETATM   27  C   UNL     1     -38.304  38.876 -59.012  1.00  0.00     0.012 A 
ENDBRANCH  21  22
ENDBRANCH  18  21
ENDBRANCH  16  17
ENDBRANCH   3  16
BRANCH  11  28
HETATM   28  C   UNL     1     -33.163  40.402 -53.766  1.00  0.00     0.176 C 
BRANCH  28  29
HETATM   29  O   UNL     1     -32.004  40.954 -53.149  1.00  0.00    -0.400 OA
HETATM   30  H   UNL     1     -31.371  41.150 -53.875  1.00  0.00     0.209 HD
ENDBRANCH  28  29
ENDBRANCH  11  28
BRANCH   7  31
HETATM   31  N   UNL     1     -38.924  41.166 -52.049  1.00  0.00    -0.366 N 
HETATM   32  H   UNL     1     -38.950  41.085 -51.041  1.00  0.00     0.162 HD
BRANCH  31  33
HETATM   33  C   UNL     1     -40.190  41.465 -52.674  1.00  0.00     0.148 C 
BRANCH  33  34
HETATM   34  C   UNL     1     -41.311  40.661 -52.071  1.00  0.00    -0.018 C 
HETATM   35  C   UNL     1     -41.261  39.451 -51.493  1.00  0.00     0.008 C 
ENDBRANCH  33  34
ENDBRANCH  31  33
ENDBRANCH   7  31
BRANCH  13  36
HETATM   36  O   UNL     1     -30.975  40.037 -55.596  1.00  0.00    -0.395 OA
HETATM   37  H   UNL     1     -30.942  40.633 -56.368  1.00  0.00     0.210 HD
ENDBRANCH  13  36
TORSDOF 10
ENDMDL
MODEL 10
REMARK VINA RESULT:      -6.6      2.007      2.678
REMARK  10 active torsions:
REMARK  status: ('A' for Active; 'I' for Inactive)
REMARK    1  A    between atoms: C_3  and  C_4 
REMARK    2  A    between atoms: C_4  and  C_5 
REMARK       I    between atoms: C_5  and  N_6 
REMARK    3  A    between atoms: N_6  and  C_7 
REMARK    4  A    between atoms: C_7  and  C_8 
REMARK    5  A    between atoms: C_18  and  N_19 
REMARK    6  A    between atoms: N_19  and  C_20 
REMARK    7  A    between atoms: C_20  and  C_21 
REMARK    8  A    between atoms: C_26  and  C_27 
REMARK    9  A    between atoms: C_27  and  O_28 
REMARK   10  A    between atoms: C_30  and  O_31 
ROOT
HETATM    1  C   UNL     1     -40.636  58.151 -53.194  1.00  0.00     0.016 C 
HETATM    2  C   UNL     1     -41.980  57.771 -53.910  1.00  0.00    -0.030 C 
HETATM    3  C   UNL     1     -43.132  58.209 -52.874  1.00  0.00     0.056 C 
HETATM    4  C   UNL     1     -43.554  59.636 -53.119  1.00  0.00     0.056 A 
HETATM    5  C   UNL     1     -43.095  60.431 -54.142  1.00  0.00     0.012 A 
HETATM    6  S   UNL     1     -43.804  61.976 -54.064  1.00  0.00    -0.055 SA
HETATM    7  C   UNL     1     -44.626  61.516 -52.620  1.00  0.00     0.167 A 
HETATM    8  N   UNL     1     -44.413  60.276 -52.246  1.00  0.00    -0.228 NA
HETATM    9  C   UNL     1     -42.088  60.065 -55.165  1.00  0.00     0.055 C 
HETATM   10  C   UNL     1     -41.977  58.526 -55.320  1.00  0.00     0.012 C 
HETATM   11  C   UNL     1     -42.888  57.928 -56.471  1.00  0.00     0.008 C 
HETATM   12  C   UNL     1     -42.409  58.485 -57.847  1.00  0.00     0.020 C 
HETATM   13  C   UNL     1     -42.684  56.385 -56.532  1.00  0.00     0.128 C 
HETATM   14  C   UNL     1     -42.853  55.692 -55.187  1.00  0.00     0.033 C 
HETATM   15  C   UNL     1     -41.887  56.242 -54.149  1.00  0.00     0.013 C 
ENDROOT
BRANCH   3  16
HETATM   16  C   UNL     1     -44.329  57.249 -52.723  1.00  0.00     0.114 C 
BRANCH  16  17
HETATM   17  C   UNL     1     -44.677  56.911 -51.284  1.00  0.00     0.218 C 
HETATM   18  N   UNL     1     -44.256  55.730 -50.745  1.00  0.00    -0.357 N 
HETATM   19  H   UNL     1     -44.435  55.670 -49.753  1.00  0.00     0.162 HD
HETATM   20  O   UNL     1     -45.274  57.719 -50.570  1.00  0.00    -0.274 OA
BRANCH  18  21
HETATM   21  C   UNL     1     -43.546  54.656 -51.411  1.00  0.00     0.162 C 
BRANCH  21  22
HETATM   22  C   UNL     1     -42.161  54.359 -50.906  1.00  0.00    -0.023 A 
HETATM   23  C   UNL     1     -41.227  53.573 -51.572  1.00  0.00     0.125 A 
HETATM   24  N   UNL     1     -39.972  53.325 -51.124  1.00  0.00    -0.273 NA
HETATM   25  C   UNL     1     -39.619  53.902 -49.957  1.00  0.00     0.116 A 
HETATM   26  C   UNL     1     -40.462  54.706 -49.213  1.00  0.00     0.020 A 
HETATM   27  C   UNL     1     -41.749  54.932 -49.695  1.00  0.00     0.012 A 
ENDBRANCH  21  22
ENDBRANCH  18  21
ENDBRANCH  16  17
ENDBRANCH   3  16
BRANCH  11  28
HETATM   28  C   UNL     1     -44.383  58.320 -56.336  1.00  0.00     0.176 C 
BRANCH  28  29
HETATM   29  O   UNL     1     -45.201  57.256 -55.857  1.00  0.00    -0.400 OA
HETATM   30  H   UNL     1     -45.466  57.502 -54.943  1.00  0.00     0.209 HD
ENDBRANCH  28  29
ENDBRANCH  11  28
BRANCH   7  31
HETATM   31  N   UNL     1     -45.409  62.412 -51.986  1.00  0.00    -0.366 N 
HETATM   32  H   UNL     1     -44.992  63.273 -51.660  1.00  0.00     0.162 HD
BRANCH  31  33
HETATM   33  C   UNL     1     -46.584  61.985 -51.265  1.00  0.00     0.148 C 
BRANCH  33  34
HETATM   34  C   UNL     1     -46.913  62.924 -50.134  1.00  0.00    -0.018 C 
HETATM   35  C   UNL     1     -46.641  62.794 -48.827  1.00  0.00     0.008 C 
ENDBRANCH  33  34
ENDBRANCH  31  33
ENDBRANCH   7  31
BRANCH  13  36
HETATM   36  O   UNL     1     -43.598  55.789 -57.456  1.00  0.00    -0.395 OA
HETATM   37  H   UNL     1     -43.610  54.831 -57.274  1.00  0.00     0.210 HD
ENDBRANCH  13  36
TORSDOF 10
ENDMDL
