MODEL 1
REMARK VINA RESULT:      -8.0      0.000      0.000
REMARK  6 active torsions:
REMARK  status: ('A' for Active; 'I' for Inactive)
REMARK    1  A    between atoms: C_2  and  C_3 
REMARK    2  A    between atoms: C_8  and  C_9 
REMARK    3  A    between atoms: C_9  and  N_10 
REMARK    4  A    between atoms: C_12  and  C_13 
REMARK    5  A    between atoms: C_13  and  N_14 
REMARK       I    between atoms: N_14  and  C_15 
REMARK    6  A    between atoms: C_15  and  C_16 
ROOT
HETATM    1  N   UNL     1     -43.525  56.480 -56.648  1.00  0.00    -0.061 N 
HETATM    2  H   UNL     1     -44.547  56.445 -56.730  1.00  0.00     0.280 HD
HETATM    3  C   UNL     1     -43.198  55.302 -55.720  1.00  0.00     0.206 C 
HETATM    4  C   UNL     1     -43.957  55.536 -54.402  1.00  0.00     0.035 C 
HETATM    5  C   UNL     1     -43.637  56.884 -53.768  1.00  0.00     0.004 C 
HETATM    6  C   UNL     1     -43.903  58.023 -54.743  1.00  0.00     0.028 C 
HETATM    7  C   UNL     1     -43.185  57.830 -56.071  1.00  0.00     0.236 C 
ENDROOT
BRANCH   1   8
HETATM    8  C   UNL     1     -43.043  56.341 -58.080  1.00  0.00     0.277 C 
BRANCH   8   9
HETATM    9  C   UNL     1     -44.051  55.782 -59.014  1.00  0.00     0.012 A 
HETATM   10  C   UNL     1     -45.216  56.386 -59.597  1.00  0.00     0.071 A 
HETATM   11  N   UNL     1     -45.848  55.509 -60.389  1.00  0.00    -0.178 NA
HETATM   12  N   UNL     1     -45.124  54.389 -60.340  1.00  0.00    -0.288 N 
HETATM   13  H   UNL     1     -45.434  53.586 -60.882  1.00  0.00     0.188 HD
HETATM   14  C   UNL     1     -44.030  54.504 -59.542  1.00  0.00     0.120 A 
BRANCH  10  15
HETATM   15  C   UNL     1     -45.787  57.805 -59.481  1.00  0.00    -0.004 C 
HETATM   16  C   UNL     1     -46.956  58.031 -60.475  1.00  0.00     0.021 C 
HETATM   17  C   UNL     1     -44.690  58.838 -59.804  1.00  0.00     0.021 C 
HETATM   18  C   UNL     1     -46.347  58.087 -58.075  1.00  0.00     0.021 C 
ENDBRANCH  10  15
ENDBRANCH   8   9
ENDBRANCH   1   8
BRANCH   3  19
HETATM   19  C   UNL     1     -41.668  55.098 -55.519  1.00  0.00     0.156 C 
BRANCH  19  20
HETATM   20  N   UNL     1     -41.312  53.790 -54.999  1.00  0.00    -0.355 N 
HETATM   21  C   UNL     1     -40.775  53.653 -53.735  1.00  0.00     0.251 C 
HETATM   22  O   UNL     1     -40.613  54.613 -52.989  1.00  0.00    -0.268 OA
HETATM   23  H   UNL     1     -41.318  52.988 -55.620  1.00  0.00     0.162 HD
BRANCH  21  24
HETATM   24  C   UNL     1     -40.304  52.294 -53.364  1.00  0.00     0.032 A 
HETATM   25  C   UNL     1     -40.338  51.291 -54.340  1.00  0.00     0.017 A 
HETATM   26  C   UNL     1     -39.953  49.990 -54.015  1.00  0.00     0.001 A 
HETATM   27  C   UNL     1     -39.520  49.693 -52.722  1.00  0.00     0.000 A 
HETATM   28  C   UNL     1     -39.463  50.697 -51.754  1.00  0.00     0.001 A 
HETATM   29  C   UNL     1     -39.854  51.999 -52.072  1.00  0.00     0.017 A 
ENDBRANCH  21  24
ENDBRANCH  19  20
ENDBRANCH   3  19
TORSDOF 6
ENDMDL
MODEL 2
REMARK VINA RESULT:      -7.8      2.999      7.724
REMARK  6 active torsions:
REMARK  status: ('A' for Active; 'I' for Inactive)
REMARK    1  A    between atoms: C_2  and  C_3 
REMARK    2  A    between atoms: C_8  and  C_9 
REMARK    3  A    between atoms: C_9  and  N_10 
REMARK    4  A    between atoms: C_12  and  C_13 
REMARK    5  A    between atoms: C_13  and  N_14 
REMARK       I    between atoms: N_14  and  C_15 
REMARK    6  A    between atoms: C_15  and  C_16 
ROOT
HETATM    1  N   UNL     1     -41.277  56.710 -51.920  1.00  0.00    -0.061 N 
HETATM    2  H   UNL     1     -40.326  56.438 -51.650  1.00  0.00     0.280 HD
HETATM    3  C   UNL     1     -41.063  57.576 -53.169  1.00  0.00     0.206 C 
HETATM    4  C   UNL     1     -40.150  58.746 -52.760  1.00  0.00     0.035 C 
HETATM    5  C   UNL     1     -40.704  59.544 -51.585  1.00  0.00     0.004 C 
HETATM    6  C   UNL     1     -40.974  58.639 -50.390  1.00  0.00     0.028 C 
HETATM    7  C   UNL     1     -41.862  57.455 -50.748  1.00  0.00     0.236 C 
ENDROOT
BRANCH   1   8
HETATM    8  C   UNL     1     -41.979  55.386 -52.154  1.00  0.00     0.277 C 
BRANCH   8   9
HETATM    9  C   UNL     1     -41.177  54.193 -51.786  1.00  0.00     0.012 A 
HETATM   10  C   UNL     1     -40.649  53.137 -52.603  1.00  0.00     0.071 A 
HETATM   11  N   UNL     1     -39.981  52.255 -51.849  1.00  0.00    -0.178 NA
HETATM   12  N   UNL     1     -40.051  52.718 -50.600  1.00  0.00    -0.288 N 
HETATM   13  H   UNL     1     -39.599  52.189 -49.859  1.00  0.00     0.188 HD
HETATM   14  C   UNL     1     -40.744  53.884 -50.509  1.00  0.00     0.120 A 
BRANCH  10  15
HETATM   15  C   UNL     1     -40.708  52.903 -54.118  1.00  0.00    -0.004 C 
HETATM   16  C   UNL     1     -42.170  52.865 -54.632  1.00  0.00     0.021 C 
HETATM   17  C   UNL     1     -40.055  51.550 -54.462  1.00  0.00     0.021 C 
HETATM   18  C   UNL     1     -39.996  54.020 -54.902  1.00  0.00     0.021 C 
ENDBRANCH  10  15
ENDBRANCH   8   9
ENDBRANCH   1   8
BRANCH   3  19
HETATM   19  C   UNL     1     -42.399  58.039 -53.820  1.00  0.00     0.156 C 
BRANCH  19  20
HETATM   20  N   UNL     1     -42.389  58.005 -55.271  1.00  0.00    -0.355 N 
HETATM   21  C   UNL     1     -42.919  56.930 -55.957  1.00  0.00     0.251 C 
HETATM   22  O   UNL     1     -43.448  55.987 -55.380  1.00  0.00    -0.268 OA
HETATM   23  H   UNL     1     -41.859  58.702 -55.784  1.00  0.00     0.162 HD
BRANCH  21  24
HETATM   24  C   UNL     1     -42.717  56.925 -57.429  1.00  0.00     0.032 A 
HETATM   25  C   UNL     1     -42.158  58.062 -58.026  1.00  0.00     0.017 A 
HETATM   26  C   UNL     1     -42.002  58.115 -59.411  1.00  0.00     0.001 A 
HETATM   27  C   UNL     1     -42.388  57.030 -60.199  1.00  0.00     0.000 A 
HETATM   28  C   UNL     1     -42.923  55.886 -59.603  1.00  0.00     0.001 A 
HETATM   29  C   UNL     1     -43.089  55.830 -58.218  1.00  0.00     0.017 A 
ENDBRANCH  21  24
ENDBRANCH  19  20
ENDBRANCH   3  19
TORSDOF 6
ENDMDL
MODEL 3
REMARK VINA RESULT:      -7.8      2.984      5.888
REMARK  6 active torsions:
REMARK  status: ('A' for Active; 'I' for Inactive)
REMARK    1  A    between atoms: C_2  and  C_3 
REMARK    2  A    between atoms: C_8  and  C_9 
REMARK    3  A    between atoms: C_9  and  N_10 
REMARK    4  A    between atoms: C_12  and  C_13 
REMARK    5  A    between atoms: C_13  and  N_14 
REMARK       I    between atoms: N_14  and  C_15 
REMARK    6  A    between atoms: C_15  and  C_16 
ROOT
HETATM    1  N   UNL     1     -43.519  56.984 -53.754  1.00  0.00    -0.061 N 
HETATM    2  H   UNL     1     -43.070  57.887 -53.568  1.00  0.00     0.280 HD
HETATM    3  C   UNL     1     -42.479  56.231 -54.595  1.00  0.00     0.206 C 
HETATM    4  C   UNL     1     -42.205  57.082 -55.847  1.00  0.00     0.035 C 
HETATM    5  C   UNL     1     -43.471  57.401 -56.634  1.00  0.00     0.004 C 
HETATM    6  C   UNL     1     -44.507  58.079 -55.747  1.00  0.00     0.028 C 
HETATM    7  C   UNL     1     -44.802  57.282 -54.485  1.00  0.00     0.236 C 
ENDROOT
BRANCH   1   8
HETATM    8  C   UNL     1     -43.776  56.418 -52.370  1.00  0.00     0.277 C 
BRANCH   8   9
HETATM    9  C   UNL     1     -42.571  56.335 -51.508  1.00  0.00     0.012 A 
HETATM   10  C   UNL     1     -41.671  57.362 -51.064  1.00  0.00     0.071 A 
HETATM   11  N   UNL     1     -40.708  56.835 -50.295  1.00  0.00    -0.178 NA
HETATM   12  N   UNL     1     -40.973  55.530 -50.224  1.00  0.00    -0.288 N 
HETATM   13  H   UNL     1     -40.354  54.938 -49.676  1.00  0.00     0.188 HD
HETATM   14  C   UNL     1     -42.086  55.180 -50.921  1.00  0.00     0.120 A 
BRANCH  10  15
HETATM   15  C   UNL     1     -41.667  58.877 -51.300  1.00  0.00    -0.004 C 
HETATM   16  C   UNL     1     -41.134  59.233 -52.712  1.00  0.00     0.021 C 
HETATM   17  C   UNL     1     -40.754  59.564 -50.266  1.00  0.00     0.021 C 
HETATM   18  C   UNL     1     -43.081  59.478 -51.201  1.00  0.00     0.021 C 
ENDBRANCH  10  15
ENDBRANCH   8   9
ENDBRANCH   1   8
BRANCH   3  19
HETATM   19  C   UNL     1     -42.911  54.773 -54.927  1.00  0.00     0.156 C 
BRANCH  19  20
HETATM   20  N   UNL     1     -42.223  53.763 -54.144  1.00  0.00    -0.355 N 
HETATM   21  C   UNL     1     -40.939  53.371 -54.465  1.00  0.00     0.251 C 
HETATM   22  O   UNL     1     -40.317  53.878 -55.392  1.00  0.00    -0.268 OA
HETATM   23  H   UNL     1     -42.738  53.234 -53.447  1.00  0.00     0.162 HD
BRANCH  21  24
HETATM   24  C   UNL     1     -40.390  52.224 -53.698  1.00  0.00     0.032 A 
HETATM   25  C   UNL     1     -40.248  50.994 -54.352  1.00  0.00     0.017 A 
HETATM   26  C   UNL     1     -39.786  49.881 -53.650  1.00  0.00     0.001 A 
HETATM   27  C   UNL     1     -39.451  49.998 -52.300  1.00  0.00     0.000 A 
HETATM   28  C   UNL     1     -39.569  51.228 -51.652  1.00  0.00     0.001 A 
HETATM   29  C   UNL     1     -40.038  52.344 -52.348  1.00  0.00     0.017 A 
ENDBRANCH  21  24
ENDBRANCH  19  20
ENDBRANCH   3  19
TORSDOF 6
ENDMDL
MODEL 4
REMARK VINA RESULT:      -7.6      1.910      3.056
REMARK  6 active torsions:
REMARK  status: ('A' for Active; 'I' for Inactive)
REMARK    1  A    between atoms: C_2  and  C_3 
REMARK    2  A    between atoms: C_8  and  C_9 
REMARK    3  A    between atoms: C_9  and  N_10 
REMARK    4  A    between atoms: C_12  and  C_13 
REMARK    5  A    between atoms: C_13  and  N_14 
REMARK       I    between atoms: N_14  and  C_15 
REMARK    6  A    between atoms: C_15  and  C_16 
ROOT
HETATM    1  N   UNL     1     -42.782  57.679 -53.878  1.00  0.00    -0.061 N 
HETATM    2  H   UNL     1     -43.771  57.788 -53.631  1.00  0.00     0.280 HD
HETATM    3  C   UNL     1     -42.463  56.237 -53.458  1.00  0.00     0.206 C 
HETATM    4  C   UNL     1     -42.767  56.124 -51.953  1.00  0.00     0.035 C 
HETATM    5  C   UNL     1     -42.013  57.155 -51.120  1.00  0.00     0.004 C 
HETATM    6  C   UNL     1     -42.296  58.567 -51.614  1.00  0.00     0.028 C 
HETATM    7  C   UNL     1     -42.025  58.726 -53.103  1.00  0.00     0.236 C 
ENDROOT
BRANCH   1   8
HETATM    8  C   UNL     1     -42.750  57.948 -55.371  1.00  0.00     0.277 C 
BRANCH   8   9
HETATM    9  C   UNL     1     -44.083  57.941 -56.022  1.00  0.00     0.012 A 
HETATM   10  C   UNL     1     -44.444  57.782 -57.403  1.00  0.00     0.071 A 
HETATM   11  N   UNL     1     -45.775  57.844 -57.546  1.00  0.00    -0.178 NA
HETATM   12  N   UNL     1     -46.264  58.018 -56.318  1.00  0.00    -0.288 N 
HETATM   13  H   UNL     1     -47.272  58.089 -56.202  1.00  0.00     0.188 HD
HETATM   14  C   UNL     1     -45.294  58.068 -55.367  1.00  0.00     0.120 A 
BRANCH  10  15
HETATM   15  C   UNL     1     -43.588  57.536 -58.652  1.00  0.00    -0.004 C 
HETATM   16  C   UNL     1     -44.437  57.607 -59.947  1.00  0.00     0.021 C 
HETATM   17  C   UNL     1     -42.955  56.133 -58.583  1.00  0.00     0.021 C 
HETATM   18  C   UNL     1     -42.472  58.585 -58.801  1.00  0.00     0.021 C 
ENDBRANCH  10  15
ENDBRANCH   8   9
ENDBRANCH   1   8
BRANCH   3  19
HETATM   19  C   UNL     1     -41.013  55.807 -53.825  1.00  0.00     0.156 C 
BRANCH  19  20
HETATM   20  N   UNL     1     -40.642  54.497 -53.319  1.00  0.00    -0.355 N 
HETATM   21  C   UNL     1     -40.265  53.487 -54.181  1.00  0.00     0.251 C 
HETATM   22  O   UNL     1     -40.192  53.659 -55.393  1.00  0.00    -0.268 OA
HETATM   23  H   UNL     1     -40.802  54.275 -52.342  1.00  0.00     0.162 HD
BRANCH  21  24
HETATM   24  C   UNL     1     -40.059  52.147 -53.574  1.00  0.00     0.032 A 
HETATM   25  C   UNL     1     -39.833  52.071 -52.194  1.00  0.00     0.017 A 
HETATM   26  C   UNL     1     -39.582  50.837 -51.596  1.00  0.00     0.001 A 
HETATM   27  C   UNL     1     -39.571  49.676 -52.371  1.00  0.00     0.000 A 
HETATM   28  C   UNL     1     -39.819  49.746 -53.742  1.00  0.00     0.001 A 
HETATM   29  C   UNL     1     -40.064  50.980 -54.348  1.00  0.00     0.017 A 
ENDBRANCH  21  24
ENDBRANCH  19  20
ENDBRANCH   3  19
TORSDOF 6
ENDMDL
MODEL 5
REMARK VINA RESULT:      -7.5      1.916      2.544
REMARK  6 active torsions:
REMARK  status: ('A' for Active; 'I' for Inactive)
REMARK    1  A    between atoms: C_2  and  C_3 
REMARK    2  A    between atoms: C_8  and  C_9 
REMARK    3  A    between atoms: C_9  and  N_10 
REMARK    4  A    between atoms: C_12  and  C_13 
REMARK    5  A    between atoms: C_13  and  N_14 
REMARK       I    between atoms: N_14  and  C_15 
REMARK    6  A    between atoms: C_15  and  C_16 
ROOT
HETATM    1  N   UNL     1     -42.933  57.230 -54.094  1.00  0.00    -0.061 N 
HETATM    2  H   UNL     1     -43.893  57.122 -54.438  1.00  0.00     0.280 HD
HETATM    3  C   UNL     1     -42.691  55.943 -53.293  1.00  0.00     0.206 C 
HETATM    4  C   UNL     1     -43.765  55.884 -52.192  1.00  0.00     0.035 C 
HETATM    5  C   UNL     1     -43.775  57.128 -51.310  1.00  0.00     0.004 C 
HETATM    6  C   UNL     1     -43.942  58.388 -52.148  1.00  0.00     0.028 C 
HETATM    7  C   UNL     1     -42.911  58.486 -53.262  1.00  0.00     0.236 C 
ENDROOT
BRANCH   1   8
HETATM    8  C   UNL     1     -42.111  57.377 -55.361  1.00  0.00     0.277 C 
BRANCH   8   9
HETATM    9  C   UNL     1     -42.757  56.826 -56.578  1.00  0.00     0.012 A 
HETATM   10  C   UNL     1     -43.267  57.491 -57.744  1.00  0.00     0.071 A 
HETATM   11  N   UNL     1     -43.773  56.597 -58.605  1.00  0.00    -0.178 NA
HETATM   12  N   UNL     1     -43.588  55.403 -58.040  1.00  0.00    -0.288 N 
HETATM   13  H   UNL     1     -43.903  54.575 -58.538  1.00  0.00     0.188 HD
HETATM   14  C   UNL     1     -42.970  55.483 -56.831  1.00  0.00     0.120 A 
BRANCH  10  15
HETATM   15  C   UNL     1     -43.289  58.973 -58.136  1.00  0.00    -0.004 C 
HETATM   16  C   UNL     1     -44.046  59.829 -57.088  1.00  0.00     0.021 C 
HETATM   17  C   UNL     1     -44.007  59.144 -59.489  1.00  0.00     0.021 C 
HETATM   18  C   UNL     1     -41.871  59.562 -58.242  1.00  0.00     0.021 C 
ENDBRANCH  10  15
ENDBRANCH   8   9
ENDBRANCH   1   8
BRANCH   3  19
HETATM   19  C   UNL     1     -41.239  55.840 -52.740  1.00  0.00     0.156 C 
BRANCH  19  20
HETATM   20  N   UNL     1     -40.789  54.477 -52.521  1.00  0.00    -0.355 N 
HETATM   21  C   UNL     1     -40.371  53.692 -53.577  1.00  0.00     0.251 C 
HETATM   22  O   UNL     1     -40.327  54.116 -54.726  1.00  0.00    -0.268 OA
HETATM   23  H   UNL     1     -40.920  54.048 -51.611  1.00  0.00     0.162 HD
BRANCH  21  24
HETATM   24  C   UNL     1     -40.081  52.269 -53.264  1.00  0.00     0.032 A 
HETATM   25  C   UNL     1     -40.161  51.331 -54.300  1.00  0.00     0.017 A 
HETATM   26  C   UNL     1     -39.948  49.979 -54.034  1.00  0.00     0.001 A 
HETATM   27  C   UNL     1     -39.639  49.564 -52.738  1.00  0.00     0.000 A 
HETATM   28  C   UNL     1     -39.535  50.499 -51.707  1.00  0.00     0.001 A 
HETATM   29  C   UNL     1     -39.755  51.854 -51.967  1.00  0.00     0.017 A 
ENDBRANCH  21  24
ENDBRANCH  19  20
ENDBRANCH   3  19
TORSDOF 6
ENDMDL
MODEL 6
REMARK VINA RESULT:      -7.4      3.265      6.328
REMARK  6 active torsions:
REMARK  status: ('A' for Active; 'I' for Inactive)
REMARK    1  A    between atoms: C_2  and  C_3 
REMARK    2  A    between atoms: C_8  and  C_9 
REMARK    3  A    between atoms: C_9  and  N_10 
REMARK    4  A    between atoms: C_12  and  C_13 
REMARK    5  A    between atoms: C_13  and  N_14 
REMARK       I    between atoms: N_14  and  C_15 
REMARK    6  A    between atoms: C_15  and  C_16 
ROOT
HETATM    1  N   UNL     1     -43.782  58.034 -53.899  1.00  0.00    -0.061 N 
HETATM    2  H   UNL     1     -43.267  58.916 -53.992  1.00  0.00     0.280 HD
HETATM    3  C   UNL     1     -42.880  57.014 -54.609  1.00  0.00     0.206 C 
HETATM    4  C   UNL     1     -42.697  57.501 -56.057  1.00  0.00     0.035 C 
HETATM    5  C   UNL     1     -44.021  57.713 -56.781  1.00  0.00     0.004 C 
HETATM    6  C   UNL     1     -44.918  58.671 -56.009  1.00  0.00     0.028 C 
HETATM    7  C   UNL     1     -45.118  58.241 -54.563  1.00  0.00     0.236 C 
ENDROOT
BRANCH   1   8
HETATM    8  C   UNL     1     -43.919  57.854 -52.398  1.00  0.00     0.277 C 
BRANCH   8   9
HETATM    9  C   UNL     1     -43.531  59.043 -51.601  1.00  0.00     0.012 A 
HETATM   10  C   UNL     1     -42.248  59.450 -51.100  1.00  0.00     0.071 A 
HETATM   11  N   UNL     1     -42.358  60.600 -50.421  1.00  0.00    -0.178 NA
HETATM   12  N   UNL     1     -43.646  60.939 -50.487  1.00  0.00    -0.288 N 
HETATM   13  H   UNL     1     -43.947  61.797 -50.030  1.00  0.00     0.188 HD
HETATM   14  C   UNL     1     -44.389  60.048 -51.195  1.00  0.00     0.120 A 
BRANCH  10  15
HETATM   15  C   UNL     1     -40.857  58.820 -51.246  1.00  0.00    -0.004 C 
HETATM   16  C   UNL     1     -40.847  57.346 -50.767  1.00  0.00     0.021 C 
HETATM   17  C   UNL     1     -39.839  59.599 -50.390  1.00  0.00     0.021 C 
HETATM   18  C   UNL     1     -40.380  58.809 -52.709  1.00  0.00     0.021 C 
ENDBRANCH  10  15
ENDBRANCH   8   9
ENDBRANCH   1   8
BRANCH   3  19
HETATM   19  C   UNL     1     -43.423  55.559 -54.515  1.00  0.00     0.156 C 
BRANCH  19  20
HETATM   20  N   UNL     1     -42.559  54.654 -53.779  1.00  0.00    -0.355 N 
HETATM   21  C   UNL     1     -41.470  54.064 -54.389  1.00  0.00     0.251 C 
HETATM   22  O   UNL     1     -41.167  54.302 -55.553  1.00  0.00    -0.268 OA
HETATM   23  H   UNL     1     -42.836  54.337 -52.856  1.00  0.00     0.162 HD
BRANCH  21  24
HETATM   24  C   UNL     1     -40.746  53.039 -53.594  1.00  0.00     0.032 A 
HETATM   25  C   UNL     1     -40.323  51.873 -54.242  1.00  0.00     0.017 A 
HETATM   26  C   UNL     1     -39.687  50.865 -53.517  1.00  0.00     0.001 A 
HETATM   27  C   UNL     1     -39.461  51.026 -52.149  1.00  0.00     0.000 A 
HETATM   28  C   UNL     1     -39.861  52.198 -51.506  1.00  0.00     0.001 A 
HETATM   29  C   UNL     1     -40.504  53.208 -52.225  1.00  0.00     0.017 A 
ENDBRANCH  21  24
ENDBRANCH  19  20
ENDBRANCH   3  19
TORSDOF 6
ENDMDL
MODEL 7
REMARK VINA RESULT:      -7.3      3.487      5.717
REMARK  6 active torsions:
REMARK  status: ('A' for Active; 'I' for Inactive)
REMARK    1  A    between atoms: C_2  and  C_3 
REMARK    2  A    between atoms: C_8  and  C_9 
REMARK    3  A    between atoms: C_9  and  N_10 
REMARK    4  A    between atoms: C_12  and  C_13 
REMARK    5  A    between atoms: C_13  and  N_14 
REMARK       I    between atoms: N_14  and  C_15 
REMARK    6  A    between atoms: C_15  and  C_16 
ROOT
HETATM    1  N   UNL     1     -42.408  57.106 -54.052  1.00  0.00    -0.061 N 
HETATM    2  H   UNL     1     -41.895  57.703 -54.708  1.00  0.00     0.280 HD
HETATM    3  C   UNL     1     -41.317  56.201 -53.461  1.00  0.00     0.206 C 
HETATM    4  C   UNL     1     -40.663  55.452 -54.636  1.00  0.00     0.035 C 
HETATM    5  C   UNL     1     -41.672  54.678 -55.478  1.00  0.00     0.004 C 
HETATM    6  C   UNL     1     -42.779  55.594 -55.982  1.00  0.00     0.028 C 
HETATM    7  C   UNL     1     -43.448  56.370 -54.857  1.00  0.00     0.236 C 
ENDROOT
BRANCH   1   8
HETATM    8  C   UNL     1     -43.036  58.090 -53.083  1.00  0.00     0.277 C 
BRANCH   8   9
HETATM    9  C   UNL     1     -42.866  59.515 -53.461  1.00  0.00     0.012 A 
HETATM   10  C   UNL     1     -42.874  60.700 -52.651  1.00  0.00     0.071 A 
HETATM   11  N   UNL     1     -42.684  61.786 -53.413  1.00  0.00    -0.178 NA
HETATM   12  N   UNL     1     -42.541  61.333 -54.660  1.00  0.00    -0.288 N 
HETATM   13  H   UNL     1     -42.382  62.006 -55.406  1.00  0.00     0.188 HD
HETATM   14  C   UNL     1     -42.628  59.979 -54.741  1.00  0.00     0.120 A 
BRANCH  10  15
HETATM   15  C   UNL     1     -43.026  60.892 -51.137  1.00  0.00    -0.004 C 
HETATM   16  C   UNL     1     -43.057  62.394 -50.753  1.00  0.00     0.021 C 
HETATM   17  C   UNL     1     -41.833  60.246 -50.406  1.00  0.00     0.021 C 
HETATM   18  C   UNL     1     -44.334  60.277 -50.607  1.00  0.00     0.021 C 
ENDBRANCH  10  15
ENDBRANCH   8   9
ENDBRANCH   1   8
BRANCH   3  19
HETATM   19  C   UNL     1     -41.854  55.251 -52.352  1.00  0.00     0.156 C 
BRANCH  19  20
HETATM   20  N   UNL     1     -41.478  53.861 -52.535  1.00  0.00    -0.355 N 
HETATM   21  C   UNL     1     -40.466  53.297 -51.784  1.00  0.00     0.251 C 
HETATM   22  O   UNL     1     -39.872  53.926 -50.915  1.00  0.00    -0.268 OA
HETATM   23  H   UNL     1     -41.857  53.340 -53.318  1.00  0.00     0.162 HD
BRANCH  21  24
HETATM   24  C   UNL     1     -40.058  51.919 -52.160  1.00  0.00     0.032 A 
HETATM   25  C   UNL     1     -39.944  51.608 -53.520  1.00  0.00     0.017 A 
HETATM   26  C   UNL     1     -39.615  50.311 -53.912  1.00  0.00     0.001 A 
HETATM   27  C   UNL     1     -39.385  49.328 -52.949  1.00  0.00     0.000 A 
HETATM   28  C   UNL     1     -39.476  49.641 -51.592  1.00  0.00     0.001 A 
HETATM   29  C   UNL     1     -39.811  50.937 -51.193  1.00  0.00     0.017 A 
ENDBRANCH  21  24
ENDBRANCH  19  20
ENDBRANCH   3  19
TORSDOF 6
ENDMDL
MODEL 8
REMARK VINA RESULT:      -7.2      2.663      7.613
REMARK  6 active torsions:
REMARK  status: ('A' for Active; 'I' for Inactive)
REMARK    1  A    between atoms: C_2  and  C_3 
REMARK    2  A    between atoms: C_8  and  C_9 
REMARK    3  A    between atoms: C_9  and  N_10 
REMARK    4  A    between atoms: C_12  and  C_13 
REMARK    5  A    between atoms: C_13  and  N_14 
REMARK       I    between atoms: N_14  and  C_15 
REMARK    6  A    between atoms: C_15  and  C_16 
ROOT
HETATM    1  N   UNL     1     -40.937  53.319 -52.241  1.00  0.00    -0.061 N 
HETATM    2  H   UNL     1     -41.687  52.716 -51.886  1.00  0.00     0.280 HD
HETATM    3  C   UNL     1     -41.346  53.581 -53.697  1.00  0.00     0.206 C 
HETATM    4  C   UNL     1     -41.454  52.213 -54.392  1.00  0.00     0.035 C 
HETATM    5  C   UNL     1     -40.174  51.392 -54.284  1.00  0.00     0.004 C 
HETATM    6  C   UNL     1     -39.760  51.217 -52.829  1.00  0.00     0.028 C 
HETATM    7  C   UNL     1     -39.653  52.544 -52.092  1.00  0.00     0.236 C 
ENDROOT
BRANCH   1   8
HETATM    8  C   UNL     1     -40.978  54.525 -51.322  1.00  0.00     0.277 C 
BRANCH   8   9
HETATM    9  C   UNL     1     -42.332  55.095 -51.119  1.00  0.00     0.012 A 
HETATM   10  C   UNL     1     -42.780  56.460 -51.127  1.00  0.00     0.071 A 
HETATM   11  N   UNL     1     -44.098  56.518 -50.895  1.00  0.00    -0.178 NA
HETATM   12  N   UNL     1     -44.499  55.254 -50.758  1.00  0.00    -0.288 N 
HETATM   13  H   UNL     1     -45.483  55.073 -50.575  1.00  0.00     0.188 HD
HETATM   14  C   UNL     1     -43.483  54.361 -50.897  1.00  0.00     0.120 A 
BRANCH  10  15
HETATM   15  C   UNL     1     -42.026  57.771 -51.378  1.00  0.00    -0.004 C 
HETATM   16  C   UNL     1     -40.946  58.024 -50.294  1.00  0.00     0.021 C 
HETATM   17  C   UNL     1     -43.011  58.955 -51.343  1.00  0.00     0.021 C 
HETATM   18  C   UNL     1     -41.294  57.765 -52.732  1.00  0.00     0.021 C 
ENDBRANCH  10  15
ENDBRANCH   8   9
ENDBRANCH   1   8
BRANCH   3  19
HETATM   19  C   UNL     1     -40.385  54.565 -54.427  1.00  0.00     0.156 C 
BRANCH  19  20
HETATM   20  N   UNL     1     -40.930  55.119 -55.652  1.00  0.00    -0.355 N 
HETATM   21  C   UNL     1     -42.197  55.666 -55.680  1.00  0.00     0.251 C 
HETATM   22  O   UNL     1     -42.895  55.741 -54.674  1.00  0.00    -0.268 OA
HETATM   23  H   UNL     1     -40.440  54.972 -56.529  1.00  0.00     0.162 HD
BRANCH  21  24
HETATM   24  C   UNL     1     -42.715  56.060 -57.015  1.00  0.00     0.032 A 
HETATM   25  C   UNL     1     -42.738  57.421 -57.342  1.00  0.00     0.017 A 
HETATM   26  C   UNL     1     -43.266  57.834 -58.565  1.00  0.00     0.001 A 
HETATM   27  C   UNL     1     -43.757  56.890 -59.468  1.00  0.00     0.000 A 
HETATM   28  C   UNL     1     -43.713  55.530 -59.153  1.00  0.00     0.001 A 
HETATM   29  C   UNL     1     -43.192  55.112 -57.927  1.00  0.00     0.017 A 
ENDBRANCH  21  24
ENDBRANCH  19  20
ENDBRANCH   3  19
TORSDOF 6
ENDMDL
MODEL 9
REMARK VINA RESULT:      -7.1      4.446      5.704
REMARK  6 active torsions:
REMARK  status: ('A' for Active; 'I' for Inactive)
REMARK    1  A    between atoms: C_2  and  C_3 
REMARK    2  A    between atoms: C_8  and  C_9 
REMARK    3  A    between atoms: C_9  and  N_10 
REMARK    4  A    between atoms: C_12  and  C_13 
REMARK    5  A    between atoms: C_13  and  N_14 
REMARK       I    between atoms: N_14  and  C_15 
REMARK    6  A    between atoms: C_15  and  C_16 
ROOT
HETATM    1  N   UNL     1     -42.955  57.730 -52.162  1.00  0.00    -0.061 N 
HETATM    2  H   UNL     1     -43.487  58.053 -51.348  1.00  0.00     0.280 HD
HETATM    3  C   UNL     1     -43.104  56.203 -52.106  1.00  0.00     0.206 C 
HETATM    4  C   UNL     1     -42.546  55.741 -50.748  1.00  0.00     0.035 C 
HETATM    5  C   UNL     1     -41.110  56.196 -50.514  1.00  0.00     0.004 C 
HETATM    6  C   UNL     1     -40.988  57.708 -50.652  1.00  0.00     0.028 C 
HETATM    7  C   UNL     1     -41.541  58.217 -51.975  1.00  0.00     0.236 C 
ENDROOT
BRANCH   1   8
HETATM    8  C   UNL     1     -43.637  58.412 -53.333  1.00  0.00     0.277 C 
BRANCH   8   9
HETATM    9  C   UNL     1     -43.395  59.873 -53.417  1.00  0.00     0.012 A 
HETATM   10  C   UNL     1     -44.001  60.960 -52.701  1.00  0.00     0.071 A 
HETATM   11  N   UNL     1     -43.478  62.128 -53.098  1.00  0.00    -0.178 NA
HETATM   12  N   UNL     1     -42.562  61.821 -54.017  1.00  0.00    -0.288 N 
HETATM   13  H   UNL     1     -42.037  62.577 -54.452  1.00  0.00     0.188 HD
HETATM   14  C   UNL     1     -42.462  60.483 -54.235  1.00  0.00     0.120 A 
BRANCH  10  15
HETATM   15  C   UNL     1     -45.066  60.977 -51.598  1.00  0.00    -0.004 C 
HETATM   16  C   UNL     1     -46.395  60.340 -52.079  1.00  0.00     0.021 C 
HETATM   17  C   UNL     1     -45.367  62.431 -51.184  1.00  0.00     0.021 C 
HETATM   18  C   UNL     1     -44.623  60.182 -50.356  1.00  0.00     0.021 C 
ENDBRANCH  10  15
ENDBRANCH   8   9
ENDBRANCH   1   8
BRANCH   3  19
HETATM   19  C   UNL     1     -42.440  55.486 -53.318  1.00  0.00     0.156 C 
BRANCH  19  20
HETATM   20  N   UNL     1     -41.864  54.194 -52.993  1.00  0.00    -0.355 N 
HETATM   21  C   UNL     1     -40.700  53.765 -53.598  1.00  0.00     0.251 C 
HETATM   22  O   UNL     1     -40.089  54.462 -54.400  1.00  0.00    -0.268 OA
HETATM   23  H   UNL     1     -42.395  53.537 -52.429  1.00  0.00     0.162 HD
BRANCH  21  24
HETATM   24  C   UNL     1     -40.285  52.368 -53.311  1.00  0.00     0.032 A 
HETATM   25  C   UNL     1     -40.383  51.421 -54.338  1.00  0.00     0.017 A 
HETATM   26  C   UNL     1     -40.053  50.089 -54.091  1.00  0.00     0.001 A 
HETATM   27  C   UNL     1     -39.611  49.703 -52.825  1.00  0.00     0.000 A 
HETATM   28  C   UNL     1     -39.491  50.649 -51.806  1.00  0.00     0.001 A 
HETATM   29  C   UNL     1     -39.826  51.983 -52.045  1.00  0.00     0.017 A 
ENDBRANCH  21  24
ENDBRANCH  19  20
ENDBRANCH   3  19
TORSDOF 6
ENDMDL
MODEL 10
REMARK VINA RESULT:      -7.1      4.465      5.658
REMARK  6 active torsions:
REMARK  status: ('A' for Active; 'I' for Inactive)
REMARK    1  A    between atoms: C_2  and  C_3 
REMARK    2  A    between atoms: C_8  and  C_9 
REMARK    3  A    between atoms: C_9  and  N_10 
REMARK    4  A    between atoms: C_12  and  C_13 
REMARK    5  A    between atoms: C_13  and  N_14 
REMARK       I    between atoms: N_14  and  C_15 
REMARK    6  A    between atoms: C_15  and  C_16 
ROOT
HETATM    1  N   UNL     1     -42.903  56.914 -51.966  1.00  0.00    -0.061 N 
HETATM    2  H   UNL     1     -43.916  57.067 -52.007  1.00  0.00     0.280 HD
HETATM    3  C   UNL     1     -42.615  56.080 -53.222  1.00  0.00     0.206 C 
HETATM    4  C   UNL     1     -43.463  54.800 -53.122  1.00  0.00     0.035 C 
HETATM    5  C   UNL     1     -43.210  54.023 -51.835  1.00  0.00     0.004 C 
HETATM    6  C   UNL     1     -43.433  54.904 -50.614  1.00  0.00     0.028 C 
HETATM    7  C   UNL     1     -42.626  56.193 -50.672  1.00  0.00     0.236 C 
ENDROOT
BRANCH   1   8
HETATM    8  C   UNL     1     -42.326  58.318 -51.965  1.00  0.00     0.277 C 
BRANCH   8   9
HETATM    9  C   UNL     1     -43.056  59.281 -52.825  1.00  0.00     0.012 A 
HETATM   10  C   UNL     1     -44.242  60.047 -52.566  1.00  0.00     0.071 A 
HETATM   11  N   UNL     1     -44.556  60.794 -53.634  1.00  0.00    -0.178 NA
HETATM   12  N   UNL     1     -43.613  60.542 -54.543  1.00  0.00    -0.288 N 
HETATM   13  H   UNL     1     -43.664  61.017 -55.441  1.00  0.00     0.188 HD
HETATM   14  C   UNL     1     -42.682  59.653 -54.104  1.00  0.00     0.120 A 
BRANCH  10  15
HETATM   15  C   UNL     1     -45.126  60.155 -51.318  1.00  0.00    -0.004 C 
HETATM   16  C   UNL     1     -44.357  60.782 -50.127  1.00  0.00     0.021 C 
HETATM   17  C   UNL     1     -45.594  58.751 -50.887  1.00  0.00     0.021 C 
HETATM   18  C   UNL     1     -46.360  61.044 -51.560  1.00  0.00     0.021 C 
ENDBRANCH  10  15
ENDBRANCH   8   9
ENDBRANCH   1   8
BRANCH   3  19
HETATM   19  C   UNL     1     -41.097  55.796 -53.425  1.00  0.00     0.156 C 
BRANCH  19  20
HETATM   20  N   UNL     1     -40.697  54.450 -53.058  1.00  0.00    -0.355 N 
HETATM   21  C   UNL     1     -40.322  53.536 -54.023  1.00  0.00     0.251 C 
HETATM   22  O   UNL     1     -40.275  53.828 -55.212  1.00  0.00    -0.268 OA
HETATM   23  H   UNL     1     -40.834  54.130 -52.105  1.00  0.00     0.162 HD
BRANCH  21  24
HETATM   24  C   UNL     1     -40.083  52.147 -53.555  1.00  0.00     0.032 A 
HETATM   25  C   UNL     1     -39.800  51.942 -52.199  1.00  0.00     0.017 A 
HETATM   26  C   UNL     1     -39.518  50.659 -51.732  1.00  0.00     0.001 A 
HETATM   27  C   UNL     1     -39.533  49.577 -52.614  1.00  0.00     0.000 A 
HETATM   28  C   UNL     1     -39.838  49.775 -53.962  1.00  0.00     0.001 A 
HETATM   29  C   UNL     1     -40.115  51.059 -54.436  1.00  0.00     0.017 A 
ENDBRANCH  21  24
ENDBRANCH  19  20
ENDBRANCH   3  19
TORSDOF 6
ENDMDL
