MODEL 1
REMARK VINA RESULT:      -8.1      0.000      0.000
REMARK  4 active torsions:
REMARK  status: ('A' for Active; 'I' for Inactive)
REMARK    1  A    between atoms: C_4  and  N_5 
REMARK    2  A    between atoms: C_9  and  N_10 
REMARK    3  A    between atoms: C_13  and  C_14 
REMARK    4  A    between atoms: C_22  and  C_23 
ROOT
HETATM    1  N   UNL     1     -43.362  59.077 -52.298  1.00  0.00    -0.258 N 
HETATM    2  C   UNL     1     -42.169  59.500 -52.957  1.00  0.00     0.333 A 
HETATM    3  O   UNL     1     -41.784  60.602 -53.295  1.00  0.00    -0.246 OA
HETATM    4  N   UNL     1     -41.419  58.334 -53.146  1.00  0.00    -0.292 N 
HETATM    5  C   UNL     1     -42.091  57.259 -52.632  1.00  0.00     0.146 A 
HETATM    6  C   UNL     1     -43.271  57.693 -52.141  1.00  0.00     0.126 A 
HETATM    7  H   UNL     1     -40.496  58.368 -53.555  1.00  0.00     0.172 HD
ENDROOT
BRANCH   5   8
HETATM    8  N   UNL     1     -41.599  55.954 -52.729  1.00  0.00    -0.317 N 
HETATM    9  C   UNL     1     -41.399  55.407 -53.953  1.00  0.00     0.099 A 
HETATM   10  C   UNL     1     -40.936  54.101 -54.095  1.00  0.00     0.030 A 
HETATM   11  C   UNL     1     -40.650  53.327 -52.969  1.00  0.00    -0.023 A 
HETATM   12  C   UNL     1     -40.818  53.927 -51.720  1.00  0.00     0.030 A 
HETATM   13  C   UNL     1     -41.285  55.236 -51.621  1.00  0.00     0.099 A 
BRANCH  11  14
HETATM   14  C   UNL     1     -40.208  51.928 -53.091  1.00  0.00    -0.023 A 
HETATM   15  C   UNL     1     -40.244  51.255 -54.320  1.00  0.00     0.031 A 
HETATM   16  C   UNL     1     -39.828  49.932 -54.377  1.00  0.00     0.117 A 
HETATM   17  N   UNL     1     -39.387  49.243 -53.308  1.00  0.00    -0.273 NA
HETATM   18  C   UNL     1     -39.354  49.895 -52.131  1.00  0.00     0.117 A 
HETATM   19  C   UNL     1     -39.748  51.216 -51.975  1.00  0.00     0.031 A 
ENDBRANCH  11  14
ENDBRANCH   5   8
BRANCH   6  20
HETATM   20  C   UNL     1     -44.394  56.824 -51.744  1.00  0.00     0.292 C 
HETATM   21  O   UNL     1     -44.706  56.655 -50.572  1.00  0.00    -0.300 OA
ENDBRANCH   6  20
BRANCH   1  22
HETATM   22  C   UNL     1     -44.377  59.978 -51.875  1.00  0.00     0.044 A 
HETATM   23  C   UNL     1     -45.473  60.262 -52.703  1.00  0.00     0.030 A 
HETATM   24  C   UNL     1     -46.489  61.128 -52.284  1.00  0.00     0.002 A 
HETATM   25  C   UNL     1     -46.417  61.738 -51.035  1.00  0.00     0.000 A 
HETATM   26  C   UNL     1     -45.325  61.491 -50.212  1.00  0.00     0.002 A 
HETATM   27  C   UNL     1     -44.310  60.623 -50.630  1.00  0.00     0.030 A 
ENDBRANCH   1  22
TORSDOF 4
ENDMDL
MODEL 2
REMARK VINA RESULT:      -7.9      1.567      2.328
REMARK  4 active torsions:
REMARK  status: ('A' for Active; 'I' for Inactive)
REMARK    1  A    between atoms: C_4  and  N_5 
REMARK    2  A    between atoms: C_9  and  N_10 
REMARK    3  A    between atoms: C_13  and  C_14 
REMARK    4  A    between atoms: C_22  and  C_23 
ROOT
HETATM    1  N   UNL     1     -43.217  59.167 -51.603  1.00  0.00    -0.258 N 
HETATM    2  C   UNL     1     -44.381  58.426 -51.241  1.00  0.00     0.333 A 
HETATM    3  O   UNL     1     -45.475  58.785 -50.852  1.00  0.00    -0.246 OA
HETATM    4  N   UNL     1     -44.045  57.084 -51.452  1.00  0.00    -0.292 N 
HETATM    5  C   UNL     1     -42.764  56.993 -51.923  1.00  0.00     0.146 A 
HETATM    6  C   UNL     1     -42.250  58.239 -51.996  1.00  0.00     0.126 A 
HETATM    7  H   UNL     1     -44.723  56.348 -51.313  1.00  0.00     0.172 HD
ENDROOT
BRANCH   5   8
HETATM    8  N   UNL     1     -42.145  55.765 -52.173  1.00  0.00    -0.317 N 
HETATM    9  C   UNL     1     -42.190  55.238 -53.421  1.00  0.00     0.099 A 
HETATM   10  C   UNL     1     -41.609  54.004 -53.707  1.00  0.00     0.030 A 
HETATM   11  C   UNL     1     -40.948  53.287 -52.708  1.00  0.00    -0.023 A 
HETATM   12  C   UNL     1     -40.873  53.871 -51.443  1.00  0.00     0.030 A 
HETATM   13  C   UNL     1     -41.468  55.107 -51.198  1.00  0.00     0.099 A 
BRANCH  11  14
HETATM   14  C   UNL     1     -40.371  51.958 -52.972  1.00  0.00    -0.023 A 
HETATM   15  C   UNL     1     -40.377  51.401 -54.258  1.00  0.00     0.031 A 
HETATM   16  C   UNL     1     -39.831  50.140 -54.449  1.00  0.00     0.117 A 
HETATM   17  N   UNL     1     -39.288  49.405 -53.460  1.00  0.00    -0.273 NA
HETATM   18  C   UNL     1     -39.285  49.946 -52.227  1.00  0.00     0.117 A 
HETATM   19  C   UNL     1     -39.806  51.198 -51.939  1.00  0.00     0.031 A 
ENDBRANCH  11  14
ENDBRANCH   5   8
BRANCH   6  20
HETATM   20  C   UNL     1     -40.825  58.557 -52.199  1.00  0.00     0.292 C 
HETATM   21  O   UNL     1     -40.431  59.198 -53.166  1.00  0.00    -0.300 OA
ENDBRANCH   6  20
BRANCH   1  22
HETATM   22  C   UNL     1     -43.162  60.587 -51.582  1.00  0.00     0.044 A 
HETATM   23  C   UNL     1     -43.348  61.329 -52.758  1.00  0.00     0.030 A 
HETATM   24  C   UNL     1     -43.320  62.728 -52.741  1.00  0.00     0.002 A 
HETATM   25  C   UNL     1     -43.090  63.408 -51.550  1.00  0.00     0.000 A 
HETATM   26  C   UNL     1     -42.875  62.690 -50.379  1.00  0.00     0.002 A 
HETATM   27  C   UNL     1     -42.905  61.292 -50.396  1.00  0.00     0.030 A 
ENDBRANCH   1  22
TORSDOF 4
ENDMDL
MODEL 3
REMARK VINA RESULT:      -7.6      2.065      8.869
REMARK  4 active torsions:
REMARK  status: ('A' for Active; 'I' for Inactive)
REMARK    1  A    between atoms: C_4  and  N_5 
REMARK    2  A    between atoms: C_9  and  N_10 
REMARK    3  A    between atoms: C_13  and  C_14 
REMARK    4  A    between atoms: C_22  and  C_23 
ROOT
HETATM    1  N   UNL     1     -40.873  53.831 -53.388  1.00  0.00    -0.258 N 
HETATM    2  C   UNL     1     -40.368  54.711 -54.390  1.00  0.00     0.333 A 
HETATM    3  O   UNL     1     -39.551  54.541 -55.274  1.00  0.00    -0.246 OA
HETATM    4  N   UNL     1     -41.052  55.918 -54.201  1.00  0.00    -0.292 N 
HETATM    5  C   UNL     1     -41.930  55.796 -53.159  1.00  0.00     0.146 A 
HETATM    6  C   UNL     1     -41.812  54.552 -52.649  1.00  0.00     0.126 A 
HETATM    7  H   UNL     1     -40.909  56.701 -54.822  1.00  0.00     0.172 HD
ENDROOT
BRANCH   5   8
HETATM    8  N   UNL     1     -42.710  56.866 -52.711  1.00  0.00    -0.317 N 
HETATM    9  C   UNL     1     -42.152  57.809 -51.912  1.00  0.00     0.099 A 
HETATM   10  C   UNL     1     -42.901  58.876 -51.421  1.00  0.00     0.030 A 
HETATM   11  C   UNL     1     -44.249  59.008 -51.759  1.00  0.00    -0.023 A 
HETATM   12  C   UNL     1     -44.789  58.052 -52.622  1.00  0.00     0.030 A 
HETATM   13  C   UNL     1     -44.007  56.998 -53.089  1.00  0.00     0.099 A 
BRANCH  11  14
HETATM   14  C   UNL     1     -45.074  60.098 -51.213  1.00  0.00    -0.023 A 
HETATM   15  C   UNL     1     -45.960  60.821 -52.023  1.00  0.00     0.031 A 
HETATM   16  C   UNL     1     -46.704  61.847 -51.460  1.00  0.00     0.117 A 
HETATM   17  N   UNL     1     -46.626  62.200 -50.163  1.00  0.00    -0.273 NA
HETATM   18  C   UNL     1     -45.774  61.501 -49.390  1.00  0.00     0.117 A 
HETATM   19  C   UNL     1     -44.990  60.459 -49.861  1.00  0.00     0.031 A 
ENDBRANCH  11  14
ENDBRANCH   5   8
BRANCH   6  20
HETATM   20  C   UNL     1     -42.382  54.107 -51.364  1.00  0.00     0.292 C 
HETATM   21  O   UNL     1     -43.579  53.889 -51.221  1.00  0.00    -0.300 OA
ENDBRANCH   6  20
BRANCH   1  22
HETATM   22  C   UNL     1     -40.468  52.473 -53.271  1.00  0.00     0.044 A 
HETATM   23  C   UNL     1     -39.840  52.010 -52.105  1.00  0.00     0.030 A 
HETATM   24  C   UNL     1     -39.461  50.670 -51.973  1.00  0.00     0.002 A 
HETATM   25  C   UNL     1     -39.691  49.772 -53.011  1.00  0.00     0.000 A 
HETATM   26  C   UNL     1     -40.288  50.218 -54.185  1.00  0.00     0.002 A 
HETATM   27  C   UNL     1     -40.668  51.557 -54.316  1.00  0.00     0.030 A 
ENDBRANCH   1  22
TORSDOF 4
ENDMDL
MODEL 4
REMARK VINA RESULT:      -7.5      4.888      6.364
REMARK  4 active torsions:
REMARK  status: ('A' for Active; 'I' for Inactive)
REMARK    1  A    between atoms: C_4  and  N_5 
REMARK    2  A    between atoms: C_9  and  N_10 
REMARK    3  A    between atoms: C_13  and  C_14 
REMARK    4  A    between atoms: C_22  and  C_23 
ROOT
HETATM    1  N   UNL     1     -43.223  57.117 -58.511  1.00  0.00    -0.258 N 
HETATM    2  C   UNL     1     -43.664  55.785 -58.770  1.00  0.00     0.333 A 
HETATM    3  O   UNL     1     -44.167  55.281 -59.755  1.00  0.00    -0.246 OA
HETATM    4  N   UNL     1     -43.368  55.066 -57.606  1.00  0.00    -0.292 N 
HETATM    5  C   UNL     1     -42.776  55.889 -56.689  1.00  0.00     0.146 A 
HETATM    6  C   UNL     1     -42.706  57.130 -57.215  1.00  0.00     0.126 A 
HETATM    7  H   UNL     1     -43.541  54.072 -57.549  1.00  0.00     0.172 HD
ENDROOT
BRANCH   5   8
HETATM    8  N   UNL     1     -42.421  55.449 -55.410  1.00  0.00    -0.317 N 
HETATM    9  C   UNL     1     -43.363  55.401 -54.436  1.00  0.00     0.099 A 
HETATM   10  C   UNL     1     -43.046  54.995 -53.142  1.00  0.00     0.030 A 
HETATM   11  C   UNL     1     -41.743  54.608 -52.822  1.00  0.00    -0.023 A 
HETATM   12  C   UNL     1     -40.801  54.620 -53.852  1.00  0.00     0.030 A 
HETATM   13  C   UNL     1     -41.158  55.035 -55.133  1.00  0.00     0.099 A 
BRANCH  11  14
HETATM   14  C   UNL     1     -41.372  54.224 -51.451  1.00  0.00    -0.023 A 
HETATM   15  C   UNL     1     -41.656  55.052 -50.357  1.00  0.00     0.031 A 
HETATM   16  C   UNL     1     -41.273  54.647 -49.086  1.00  0.00     0.117 A 
HETATM   17  N   UNL     1     -40.632  53.490 -48.834  1.00  0.00    -0.273 NA
HETATM   18  C   UNL     1     -40.363  52.698 -49.890  1.00  0.00     0.117 A 
HETATM   19  C   UNL     1     -40.707  53.017 -51.194  1.00  0.00     0.031 A 
ENDBRANCH  11  14
ENDBRANCH   5   8
BRANCH   6  20
HETATM   20  C   UNL     1     -42.383  58.353 -56.458  1.00  0.00     0.292 C 
HETATM   21  O   UNL     1     -43.243  59.013 -55.886  1.00  0.00    -0.300 OA
ENDBRANCH   6  20
BRANCH   1  22
HETATM   22  C   UNL     1     -43.296  58.161 -59.474  1.00  0.00     0.044 A 
HETATM   23  C   UNL     1     -42.145  58.594 -60.150  1.00  0.00     0.030 A 
HETATM   24  C   UNL     1     -42.213  59.603 -61.116  1.00  0.00     0.002 A 
HETATM   25  C   UNL     1     -43.430  60.208 -61.413  1.00  0.00     0.000 A 
HETATM   26  C   UNL     1     -44.577  59.811 -60.734  1.00  0.00     0.002 A 
HETATM   27  C   UNL     1     -44.510  58.801 -59.769  1.00  0.00     0.030 A 
ENDBRANCH   1  22
TORSDOF 4
ENDMDL
MODEL 5
REMARK VINA RESULT:      -7.5      1.339      2.071
REMARK  4 active torsions:
REMARK  status: ('A' for Active; 'I' for Inactive)
REMARK    1  A    between atoms: C_4  and  N_5 
REMARK    2  A    between atoms: C_9  and  N_10 
REMARK    3  A    between atoms: C_13  and  C_14 
REMARK    4  A    between atoms: C_22  and  C_23 
ROOT
HETATM    1  N   UNL     1     -43.436  59.613 -51.030  1.00  0.00    -0.258 N 
HETATM    2  C   UNL     1     -42.065  59.908 -50.767  1.00  0.00     0.333 A 
HETATM    3  O   UNL     1     -41.519  60.926 -50.387  1.00  0.00    -0.246 OA
HETATM    4  N   UNL     1     -41.377  58.714 -51.009  1.00  0.00    -0.292 N 
HETATM    5  C   UNL     1     -42.258  57.738 -51.387  1.00  0.00     0.146 A 
HETATM    6  C   UNL     1     -43.495  58.276 -51.425  1.00  0.00     0.126 A 
HETATM    7  H   UNL     1     -40.383  58.642 -50.847  1.00  0.00     0.172 HD
ENDROOT
BRANCH   5   8
HETATM    8  N   UNL     1     -41.841  56.452 -51.744  1.00  0.00    -0.317 N 
HETATM    9  C   UNL     1     -41.905  55.453 -50.829  1.00  0.00     0.099 A 
HETATM   10  C   UNL     1     -41.475  54.164 -51.135  1.00  0.00     0.030 A 
HETATM   11  C   UNL     1     -40.979  53.868 -52.406  1.00  0.00    -0.023 A 
HETATM   12  C   UNL     1     -40.967  54.900 -53.345  1.00  0.00     0.030 A 
HETATM   13  C   UNL     1     -41.405  56.176 -52.999  1.00  0.00     0.099 A 
BRANCH  11  14
HETATM   14  C   UNL     1     -40.471  52.526 -52.737  1.00  0.00    -0.023 A 
HETATM   15  C   UNL     1     -39.844  51.723 -51.775  1.00  0.00     0.031 A 
HETATM   16  C   UNL     1     -39.371  50.472 -52.144  1.00  0.00     0.117 A 
HETATM   17  N   UNL     1     -39.478  49.973 -53.390  1.00  0.00    -0.273 NA
HETATM   18  C   UNL     1     -40.083  50.748 -54.310  1.00  0.00     0.117 A 
HETATM   19  C   UNL     1     -40.587  52.011 -54.036  1.00  0.00     0.031 A 
ENDBRANCH  11  14
ENDBRANCH   5   8
BRANCH   6  20
HETATM   20  C   UNL     1     -44.677  57.639 -52.036  1.00  0.00     0.292 C 
HETATM   21  O   UNL     1     -44.763  57.445 -53.242  1.00  0.00    -0.300 OA
ENDBRANCH   6  20
BRANCH   1  22
HETATM   22  C   UNL     1     -44.483  60.558 -50.850  1.00  0.00     0.044 A 
HETATM   23  C   UNL     1     -45.027  60.791 -49.578  1.00  0.00     0.030 A 
HETATM   24  C   UNL     1     -46.040  61.736 -49.388  1.00  0.00     0.002 A 
HETATM   25  C   UNL     1     -46.538  62.455 -50.470  1.00  0.00     0.000 A 
HETATM   26  C   UNL     1     -46.031  62.218 -51.743  1.00  0.00     0.002 A 
HETATM   27  C   UNL     1     -45.017  61.274 -51.933  1.00  0.00     0.030 A 
ENDBRANCH   1  22
TORSDOF 4
ENDMDL
MODEL 6
REMARK VINA RESULT:      -7.4     16.586     18.495
REMARK  4 active torsions:
REMARK  status: ('A' for Active; 'I' for Inactive)
REMARK    1  A    between atoms: C_4  and  N_5 
REMARK    2  A    between atoms: C_9  and  N_10 
REMARK    3  A    between atoms: C_13  and  C_14 
REMARK    4  A    between atoms: C_22  and  C_23 
ROOT
HETATM    1  N   UNL     1     -37.090  40.805 -55.878  1.00  0.00    -0.258 N 
HETATM    2  C   UNL     1     -38.154  41.048 -54.960  1.00  0.00     0.333 A 
HETATM    3  O   UNL     1     -39.310  41.380 -55.138  1.00  0.00    -0.246 OA
HETATM    4  N   UNL     1     -37.617  40.788 -53.694  1.00  0.00    -0.292 N 
HETATM    5  C   UNL     1     -36.310  40.401 -53.814  1.00  0.00     0.146 A 
HETATM    6  C   UNL     1     -35.978  40.430 -55.121  1.00  0.00     0.126 A 
HETATM    7  H   UNL     1     -38.189  40.841 -52.863  1.00  0.00     0.172 HD
ENDROOT
BRANCH   5   8
HETATM    8  N   UNL     1     -35.507  40.129 -52.702  1.00  0.00    -0.317 N 
HETATM    9  C   UNL     1     -35.338  38.845 -52.301  1.00  0.00     0.099 A 
HETATM   10  C   UNL     1     -34.568  38.532 -51.183  1.00  0.00     0.030 A 
HETATM   11  C   UNL     1     -33.935  39.542 -50.456  1.00  0.00    -0.023 A 
HETATM   12  C   UNL     1     -34.084  40.851 -50.917  1.00  0.00     0.030 A 
HETATM   13  C   UNL     1     -34.864  41.122 -52.039  1.00  0.00     0.099 A 
BRANCH  11  14
HETATM   14  C   UNL     1     -33.158  39.241 -49.243  1.00  0.00    -0.023 A 
HETATM   15  C   UNL     1     -33.583  38.274 -48.323  1.00  0.00     0.031 A 
HETATM   16  C   UNL     1     -32.819  38.039 -47.189  1.00  0.00     0.117 A 
HETATM   17  N   UNL     1     -31.677  38.695 -46.910  1.00  0.00    -0.273 NA
HETATM   18  C   UNL     1     -31.273  39.623 -47.798  1.00  0.00     0.117 A 
HETATM   19  C   UNL     1     -31.968  39.926 -48.959  1.00  0.00     0.031 A 
ENDBRANCH  11  14
ENDBRANCH   5   8
BRANCH   6  20
HETATM   20  C   UNL     1     -34.603  40.341 -55.648  1.00  0.00     0.292 C 
HETATM   21  O   UNL     1     -33.794  41.252 -55.517  1.00  0.00    -0.300 OA
ENDBRANCH   6  20
BRANCH   1  22
HETATM   22  C   UNL     1     -37.241  40.905 -57.288  1.00  0.00     0.044 A 
HETATM   23  C   UNL     1     -36.979  42.112 -57.953  1.00  0.00     0.030 A 
HETATM   24  C   UNL     1     -37.102  42.212 -59.343  1.00  0.00     0.002 A 
HETATM   25  C   UNL     1     -37.504  41.110 -60.091  1.00  0.00     0.000 A 
HETATM   26  C   UNL     1     -37.796  39.913 -59.447  1.00  0.00     0.002 A 
HETATM   27  C   UNL     1     -37.671  39.812 -58.057  1.00  0.00     0.030 A 
ENDBRANCH   1  22
TORSDOF 4
ENDMDL
MODEL 7
REMARK VINA RESULT:      -7.3      2.409      8.943
REMARK  4 active torsions:
REMARK  status: ('A' for Active; 'I' for Inactive)
REMARK    1  A    between atoms: C_4  and  N_5 
REMARK    2  A    between atoms: C_9  and  N_10 
REMARK    3  A    between atoms: C_13  and  C_14 
REMARK    4  A    between atoms: C_22  and  C_23 
ROOT
HETATM    1  N   UNL     1     -40.800  53.723 -51.154  1.00  0.00    -0.258 N 
HETATM    2  C   UNL     1     -40.262  54.553 -50.126  1.00  0.00     0.333 A 
HETATM    3  O   UNL     1     -39.398  54.348 -49.295  1.00  0.00    -0.246 OA
HETATM    4  N   UNL     1     -40.928  55.777 -50.253  1.00  0.00    -0.292 N 
HETATM    5  C   UNL     1     -41.813  55.719 -51.294  1.00  0.00     0.146 A 
HETATM    6  C   UNL     1     -41.760  54.481 -51.827  1.00  0.00     0.126 A 
HETATM    7  H   UNL     1     -40.692  56.563 -49.664  1.00  0.00     0.172 HD
ENDROOT
BRANCH   5   8
HETATM    8  N   UNL     1     -42.657  56.787 -51.618  1.00  0.00    -0.317 N 
HETATM    9  C   UNL     1     -43.896  56.845 -51.073  1.00  0.00     0.099 A 
HETATM   10  C   UNL     1     -44.778  57.876 -51.389  1.00  0.00     0.030 A 
HETATM   11  C   UNL     1     -44.393  58.889 -52.270  1.00  0.00    -0.023 A 
HETATM   12  C   UNL     1     -43.095  58.834 -52.781  1.00  0.00     0.030 A 
HETATM   13  C   UNL     1     -42.245  57.784 -52.441  1.00  0.00     0.099 A 
BRANCH  11  14
HETATM   14  C   UNL     1     -45.323  59.962 -52.660  1.00  0.00    -0.023 A 
HETATM   15  C   UNL     1     -46.365  60.368 -51.816  1.00  0.00     0.031 A 
HETATM   16  C   UNL     1     -47.222  61.375 -52.238  1.00  0.00     0.117 A 
HETATM   17  N   UNL     1     -47.113  61.995 -53.428  1.00  0.00    -0.273 NA
HETATM   18  C   UNL     1     -46.110  61.601 -54.234  1.00  0.00     0.117 A 
HETATM   19  C   UNL     1     -45.204  60.605 -53.899  1.00  0.00     0.031 A 
ENDBRANCH  11  14
ENDBRANCH   5   8
BRANCH   6  20
HETATM   20  C   UNL     1     -42.735  53.929 -52.785  1.00  0.00     0.292 C 
HETATM   21  O   UNL     1     -42.558  53.976 -53.997  1.00  0.00    -0.300 OA
ENDBRANCH   6  20
BRANCH   1  22
HETATM   22  C   UNL     1     -40.346  52.399 -51.401  1.00  0.00     0.044 A 
HETATM   23  C   UNL     1     -40.331  51.443 -50.375  1.00  0.00     0.030 A 
HETATM   24  C   UNL     1     -39.908  50.131 -50.617  1.00  0.00     0.002 A 
HETATM   25  C   UNL     1     -39.479  49.757 -51.886  1.00  0.00     0.000 A 
HETATM   26  C   UNL     1     -39.460  50.698 -52.910  1.00  0.00     0.002 A 
HETATM   27  C   UNL     1     -39.884  52.009 -52.669  1.00  0.00     0.030 A 
ENDBRANCH   1  22
TORSDOF 4
ENDMDL
MODEL 8
REMARK VINA RESULT:      -7.3      4.432      5.403
REMARK  4 active torsions:
REMARK  status: ('A' for Active; 'I' for Inactive)
REMARK    1  A    between atoms: C_4  and  N_5 
REMARK    2  A    between atoms: C_9  and  N_10 
REMARK    3  A    between atoms: C_13  and  C_14 
REMARK    4  A    between atoms: C_22  and  C_23 
ROOT
HETATM    1  N   UNL     1     -43.705  58.141 -57.627  1.00  0.00    -0.258 N 
HETATM    2  C   UNL     1     -43.333  58.899 -56.477  1.00  0.00     0.333 A 
HETATM    3  O   UNL     1     -43.460  60.079 -56.214  1.00  0.00    -0.246 OA
HETATM    4  N   UNL     1     -42.769  57.973 -55.591  1.00  0.00    -0.292 N 
HETATM    5  C   UNL     1     -42.796  56.723 -56.146  1.00  0.00     0.146 A 
HETATM    6  C   UNL     1     -43.336  56.818 -57.379  1.00  0.00     0.126 A 
HETATM    7  H   UNL     1     -42.464  58.251 -54.669  1.00  0.00     0.172 HD
ENDROOT
BRANCH   5   8
HETATM    8  N   UNL     1     -42.248  55.608 -55.503  1.00  0.00    -0.317 N 
HETATM    9  C   UNL     1     -40.915  55.569 -55.261  1.00  0.00     0.099 A 
HETATM   10  C   UNL     1     -40.324  54.466 -54.648  1.00  0.00     0.030 A 
HETATM   11  C   UNL     1     -41.102  53.377 -54.252  1.00  0.00    -0.023 A 
HETATM   12  C   UNL     1     -42.479  53.461 -54.468  1.00  0.00     0.030 A 
HETATM   13  C   UNL     1     -43.030  54.581 -55.086  1.00  0.00     0.099 A 
BRANCH  11  14
HETATM   14  C   UNL     1     -40.495  52.179 -53.648  1.00  0.00    -0.023 A 
HETATM   15  C   UNL     1     -40.057  52.173 -52.317  1.00  0.00     0.031 A 
HETATM   16  C   UNL     1     -39.480  51.021 -51.802  1.00  0.00     0.117 A 
HETATM   17  N   UNL     1     -39.310  49.890 -52.513  1.00  0.00    -0.273 NA
HETATM   18  C   UNL     1     -39.734  49.902 -53.791  1.00  0.00     0.117 A 
HETATM   19  C   UNL     1     -40.323  51.004 -54.393  1.00  0.00     0.031 A 
ENDBRANCH  11  14
ENDBRANCH   5   8
BRANCH   6  20
HETATM   20  C   UNL     1     -43.302  55.757 -58.402  1.00  0.00     0.292 C 
HETATM   21  O   UNL     1     -42.602  55.839 -59.405  1.00  0.00    -0.300 OA
ENDBRANCH   6  20
BRANCH   1  22
HETATM   22  C   UNL     1     -44.368  58.708 -58.750  1.00  0.00     0.044 A 
HETATM   23  C   UNL     1     -43.636  59.279 -59.801  1.00  0.00     0.030 A 
HETATM   24  C   UNL     1     -44.281  59.817 -60.920  1.00  0.00     0.002 A 
HETATM   25  C   UNL     1     -45.669  59.806 -61.000  1.00  0.00     0.000 A 
HETATM   26  C   UNL     1     -46.413  59.269 -59.956  1.00  0.00     0.002 A 
HETATM   27  C   UNL     1     -45.769  58.730 -58.837  1.00  0.00     0.030 A 
ENDBRANCH   1  22
TORSDOF 4
ENDMDL
MODEL 9
REMARK VINA RESULT:      -7.1     16.399     19.048
REMARK  4 active torsions:
REMARK  status: ('A' for Active; 'I' for Inactive)
REMARK    1  A    between atoms: C_4  and  N_5 
REMARK    2  A    between atoms: C_9  and  N_10 
REMARK    3  A    between atoms: C_13  and  C_14 
REMARK    4  A    between atoms: C_22  and  C_23 
ROOT
HETATM    1  N   UNL     1     -35.021  40.729 -53.596  1.00  0.00    -0.258 N 
HETATM    2  C   UNL     1     -35.625  41.996 -53.851  1.00  0.00     0.333 A 
HETATM    3  O   UNL     1     -35.652  43.021 -53.198  1.00  0.00    -0.246 OA
HETATM    4  N   UNL     1     -36.215  41.876 -55.115  1.00  0.00    -0.292 N 
HETATM    5  C   UNL     1     -35.988  40.624 -55.617  1.00  0.00     0.146 A 
HETATM    6  C   UNL     1     -35.290  39.920 -54.701  1.00  0.00     0.126 A 
HETATM    7  H   UNL     1     -36.673  42.662 -55.553  1.00  0.00     0.172 HD
ENDROOT
BRANCH   5   8
HETATM    8  N   UNL     1     -36.510  40.206 -56.845  1.00  0.00    -0.317 N 
HETATM    9  C   UNL     1     -37.843  39.989 -56.962  1.00  0.00     0.099 A 
HETATM   10  C   UNL     1     -38.401  39.546 -58.160  1.00  0.00     0.030 A 
HETATM   11  C   UNL     1     -37.593  39.330 -59.278  1.00  0.00    -0.023 A 
HETATM   12  C   UNL     1     -36.231  39.607 -59.147  1.00  0.00     0.030 A 
HETATM   13  C   UNL     1     -35.712  40.047 -57.931  1.00  0.00     0.099 A 
BRANCH  11  14
HETATM   14  C   UNL     1     -38.151  38.814 -60.539  1.00  0.00    -0.023 A 
HETATM   15  C   UNL     1     -39.423  38.230 -60.591  1.00  0.00     0.031 A 
HETATM   16  C   UNL     1     -39.896  37.748 -61.803  1.00  0.00     0.117 A 
HETATM   17  N   UNL     1     -39.196  37.805 -62.952  1.00  0.00    -0.273 NA
HETATM   18  C   UNL     1     -37.974  38.369 -62.896  1.00  0.00     0.117 A 
HETATM   19  C   UNL     1     -37.418  38.879 -61.732  1.00  0.00     0.031 A 
ENDBRANCH  11  14
ENDBRANCH   5   8
BRANCH   6  20
HETATM   20  C   UNL     1     -35.075  38.462 -54.739  1.00  0.00     0.292 C 
HETATM   21  O   UNL     1     -35.986  37.663 -54.555  1.00  0.00    -0.300 OA
ENDBRANCH   6  20
BRANCH   1  22
HETATM   22  C   UNL     1     -34.264  40.451 -52.425  1.00  0.00     0.044 A 
HETATM   23  C   UNL     1     -34.903  40.180 -51.206  1.00  0.00     0.030 A 
HETATM   24  C   UNL     1     -34.166  39.881 -50.056  1.00  0.00     0.002 A 
HETATM   25  C   UNL     1     -32.775  39.863 -50.100  1.00  0.00     0.000 A 
HETATM   26  C   UNL     1     -32.123  40.156 -51.293  1.00  0.00     0.002 A 
HETATM   27  C   UNL     1     -32.860  40.453 -52.444  1.00  0.00     0.030 A 
ENDBRANCH   1  22
TORSDOF 4
ENDMDL
MODEL 10
REMARK VINA RESULT:      -7.0      2.145      9.024
REMARK  4 active torsions:
REMARK  status: ('A' for Active; 'I' for Inactive)
REMARK    1  A    between atoms: C_4  and  N_5 
REMARK    2  A    between atoms: C_9  and  N_10 
REMARK    3  A    between atoms: C_13  and  C_14 
REMARK    4  A    between atoms: C_22  and  C_23 
ROOT
HETATM    1  N   UNL     1     -41.534  54.987 -53.053  1.00  0.00    -0.258 N 
HETATM    2  C   UNL     1     -41.595  55.819 -54.211  1.00  0.00     0.333 A 
HETATM    3  O   UNL     1     -41.175  55.659 -55.340  1.00  0.00    -0.246 OA
HETATM    4  N   UNL     1     -42.314  56.952 -53.813  1.00  0.00    -0.292 N 
HETATM    5  C   UNL     1     -42.685  56.832 -52.502  1.00  0.00     0.146 A 
HETATM    6  C   UNL     1     -42.201  55.664 -52.030  1.00  0.00     0.126 A 
HETATM    7  H   UNL     1     -42.540  57.684 -54.472  1.00  0.00     0.172 HD
ENDROOT
BRANCH   5   8
HETATM    8  N   UNL     1     -43.371  57.844 -51.824  1.00  0.00    -0.317 N 
HETATM    9  C   UNL     1     -44.695  57.696 -51.571  1.00  0.00     0.099 A 
HETATM   10  C   UNL     1     -45.422  58.692 -50.922  1.00  0.00     0.030 A 
HETATM   11  C   UNL     1     -44.793  59.865 -50.500  1.00  0.00    -0.023 A 
HETATM   12  C   UNL     1     -43.421  59.973 -50.729  1.00  0.00     0.030 A 
HETATM   13  C   UNL     1     -42.730  58.955 -51.383  1.00  0.00     0.099 A 
BRANCH  11  14
HETATM   14  C   UNL     1     -45.550  60.952 -49.858  1.00  0.00    -0.023 A 
HETATM   15  C   UNL     1     -45.592  61.090 -48.464  1.00  0.00     0.031 A 
HETATM   16  C   UNL     1     -46.331  62.126 -47.911  1.00  0.00     0.117 A 
HETATM   17  N   UNL     1     -47.023  63.021 -48.641  1.00  0.00    -0.273 NA
HETATM   18  C   UNL     1     -46.978  62.883 -49.979  1.00  0.00     0.117 A 
HETATM   19  C   UNL     1     -46.267  61.882 -50.623  1.00  0.00     0.031 A 
ENDBRANCH  11  14
ENDBRANCH   5   8
BRANCH   6  20
HETATM   20  C   UNL     1     -42.150  55.281 -50.607  1.00  0.00     0.292 C 
HETATM   21  O   UNL     1     -41.419  55.849 -49.805  1.00  0.00    -0.300 OA
ENDBRANCH   6  20
BRANCH   1  22
HETATM   22  C   UNL     1     -40.927  53.701 -53.052  1.00  0.00     0.044 A 
HETATM   23  C   UNL     1     -40.144  53.280 -51.967  1.00  0.00     0.030 A 
HETATM   24  C   UNL     1     -39.564  52.007 -51.946  1.00  0.00     0.002 A 
HETATM   25  C   UNL     1     -39.744  51.139 -53.019  1.00  0.00     0.000 A 
HETATM   26  C   UNL     1     -40.493  51.549 -54.116  1.00  0.00     0.002 A 
HETATM   27  C   UNL     1     -41.075  52.821 -54.135  1.00  0.00     0.030 A 
ENDBRANCH   1  22
TORSDOF 4
ENDMDL
