MODEL 1
REMARK VINA RESULT:      -8.9      0.000      0.000
REMARK  5 active torsions:
REMARK  status: ('A' for Active; 'I' for Inactive)
REMARK    1  A    between atoms: C_4  and  C_5 
REMARK    2  A    between atoms: C_6  and  N_7 
REMARK    3  A    between atoms: C_9  and  C_10 
REMARK       I    between atoms: C_10  and  N_11 
REMARK    4  A    between atoms: N_11  and  C_12 
REMARK    5  A    between atoms: C_12  and  C_13 
ROOT
HETATM    1  C   UNL     1     -41.517  54.190 -52.413  1.00  0.00     0.019 A 
HETATM    2  C   UNL     1     -41.826  54.908 -51.301  1.00  0.00     0.111 A 
HETATM    3  C   UNL     1     -41.409  54.371 -49.935  1.00  0.00     0.273 A 
HETATM    4  O   UNL     1     -41.691  54.944 -48.883  1.00  0.00    -0.266 OA
HETATM    5  N   UNL     1     -40.713  53.199 -49.895  1.00  0.00    -0.321 N 
HETATM    6  C   UNL     1     -40.382  52.454 -51.021  1.00  0.00     0.046 A 
HETATM    7  C   UNL     1     -40.764  52.913 -52.287  1.00  0.00     0.006 A 
HETATM    8  C   UNL     1     -39.675  51.259 -50.861  1.00  0.00     0.032 A 
HETATM    9  C   UNL     1     -39.339  50.501 -51.980  1.00  0.00     0.026 A 
HETATM   10  C   UNL     1     -39.707  50.945 -53.248  1.00  0.00     0.035 A 
HETATM   11 CL   UNL     1     -39.293  50.008 -54.631  1.00  0.00    -0.084 Cl
HETATM   12  C   UNL     1     -40.411  52.141 -53.406  1.00  0.00     0.038 A 
HETATM   13  H   UNL     1     -40.457  52.881 -48.970  1.00  0.00     0.169 HD
ENDROOT
BRANCH   2  14
HETATM   14  N   UNL     1     -42.551  56.125 -51.323  1.00  0.00    -0.375 N 
HETATM   15  C   UNL     1     -41.875  57.369 -50.893  1.00  0.00     0.137 C 
HETATM   16  C   UNL     1     -42.591  58.584 -51.485  1.00  0.00     0.096 C 
HETATM   17  C   UNL     1     -44.081  58.582 -51.122  1.00  0.00     0.017 C 
HETATM   18  C   UNL     1     -44.725  57.252 -51.510  1.00  0.00     0.021 C 
HETATM   19  C   UNL     1     -43.964  56.075 -50.902  1.00  0.00     0.123 C 
BRANCH  16  20
HETATM   20  C   UNL     1     -41.895  59.866 -51.049  1.00  0.00     0.223 C 
HETATM   21  N   UNL     1     -42.669  61.002 -51.053  1.00  0.00    -0.358 N 
HETATM   22  H   UNL     1     -43.680  60.923 -51.101  1.00  0.00     0.162 HD
HETATM   23  O   UNL     1     -40.715  59.871 -50.709  1.00  0.00    -0.273 OA
BRANCH  21  24
HETATM   24  C   UNL     1     -42.174  62.257 -50.512  1.00  0.00     0.154 C 
BRANCH  24  25
HETATM   25  C   UNL     1     -43.330  63.180 -50.129  1.00  0.00     0.139 C 
HETATM   26  O   UNL     1     -44.230  62.496 -49.228  1.00  0.00    -0.384 OA
HETATM   27  C   UNL     1     -44.614  63.413 -48.192  1.00  0.00     0.168 C 
HETATM   28  C   UNL     1     -44.116  64.781 -48.606  1.00  0.00     0.029 C 
HETATM   29  C   UNL     1     -42.883  64.437 -49.405  1.00  0.00     0.035 C 
ENDBRANCH  24  25
ENDBRANCH  21  24
ENDBRANCH  16  20
ENDBRANCH   2  14
BRANCH   1  30
HETATM   30  C   UNL     1     -41.946  54.739 -53.727  1.00  0.00    -0.023 A 
HETATM   31  C   UNL     1     -41.210  55.759 -54.344  1.00  0.00     0.012 A 
HETATM   32  C   UNL     1     -41.597  56.250 -55.592  1.00  0.00     0.001 A 
HETATM   33  C   UNL     1     -42.720  55.725 -56.231  1.00  0.00     0.000 A 
HETATM   34  C   UNL     1     -43.459  54.710 -55.624  1.00  0.00     0.001 A 
HETATM   35  C   UNL     1     -43.074  54.216 -54.376  1.00  0.00     0.012 A 
ENDBRANCH   1  30
TORSDOF 5
ENDMDL
MODEL 2
REMARK VINA RESULT:      -8.5      3.729      8.282
REMARK  5 active torsions:
REMARK  status: ('A' for Active; 'I' for Inactive)
REMARK    1  A    between atoms: C_4  and  C_5 
REMARK    2  A    between atoms: C_6  and  N_7 
REMARK    3  A    between atoms: C_9  and  C_10 
REMARK       I    between atoms: C_10  and  N_11 
REMARK    4  A    between atoms: N_11  and  C_12 
REMARK    5  A    between atoms: C_12  and  C_13 
ROOT
HETATM    1  C   UNL     1     -43.032  57.416 -55.878  1.00  0.00     0.019 A 
HETATM    2  C   UNL     1     -43.045  56.273 -55.141  1.00  0.00     0.111 A 
HETATM    3  C   UNL     1     -43.097  54.930 -55.862  1.00  0.00     0.273 A 
HETATM    4  O   UNL     1     -43.153  53.857 -55.262  1.00  0.00    -0.266 OA
HETATM    5  N   UNL     1     -43.099  54.936 -57.226  1.00  0.00    -0.321 N 
HETATM    6  C   UNL     1     -43.079  56.094 -57.996  1.00  0.00     0.046 A 
HETATM    7  C   UNL     1     -43.047  57.342 -57.364  1.00  0.00     0.006 A 
HETATM    8  C   UNL     1     -43.097  55.981 -59.389  1.00  0.00     0.032 A 
HETATM    9  C   UNL     1     -43.081  57.133 -60.174  1.00  0.00     0.026 A 
HETATM   10  C   UNL     1     -43.044  58.382 -59.562  1.00  0.00     0.035 A 
HETATM   11 CL   UNL     1     -43.025  59.804 -60.531  1.00  0.00    -0.084 Cl
HETATM   12  C   UNL     1     -43.024  58.492 -58.169  1.00  0.00     0.038 A 
HETATM   13  H   UNL     1     -43.134  54.025 -57.661  1.00  0.00     0.169 HD
ENDROOT
BRANCH   2  14
HETATM   14  N   UNL     1     -43.046  56.248 -53.724  1.00  0.00    -0.375 N 
HETATM   15  C   UNL     1     -42.182  55.271 -53.025  1.00  0.00     0.137 C 
HETATM   16  C   UNL     1     -41.908  55.744 -51.596  1.00  0.00     0.096 C 
HETATM   17  C   UNL     1     -43.216  56.005 -50.838  1.00  0.00     0.017 C 
HETATM   18  C   UNL     1     -44.113  56.954 -51.629  1.00  0.00     0.021 C 
HETATM   19  C   UNL     1     -44.343  56.439 -53.049  1.00  0.00     0.123 C 
BRANCH  16  20
HETATM   20  C   UNL     1     -41.015  54.745 -50.876  1.00  0.00     0.223 C 
HETATM   21  N   UNL     1     -41.116  53.438 -51.290  1.00  0.00    -0.358 N 
HETATM   22  H   UNL     1     -41.568  53.224 -52.174  1.00  0.00     0.162 HD
HETATM   23  O   UNL     1     -40.247  55.098 -49.984  1.00  0.00    -0.273 OA
BRANCH  21  24
HETATM   24  C   UNL     1     -40.211  52.414 -50.796  1.00  0.00     0.154 C 
BRANCH  24  25
HETATM   25  C   UNL     1     -39.469  51.740 -51.949  1.00  0.00     0.139 C 
HETATM   26  O   UNL     1     -39.445  50.308 -51.752  1.00  0.00    -0.384 OA
HETATM   27  C   UNL     1     -39.707  49.674 -53.013  1.00  0.00     0.168 C 
HETATM   28  C   UNL     1     -39.656  50.756 -54.070  1.00  0.00     0.029 C 
HETATM   29  C   UNL     1     -40.121  51.968 -53.301  1.00  0.00     0.035 C 
ENDBRANCH  24  25
ENDBRANCH  21  24
ENDBRANCH  16  20
ENDBRANCH   2  14
BRANCH   1  30
HETATM   30  C   UNL     1     -42.989  58.708 -55.142  1.00  0.00    -0.023 A 
HETATM   31  C   UNL     1     -44.125  59.524 -55.074  1.00  0.00     0.012 A 
HETATM   32  C   UNL     1     -44.089  60.721 -54.355  1.00  0.00     0.001 A 
HETATM   33  C   UNL     1     -42.920  61.107 -53.701  1.00  0.00     0.000 A 
HETATM   34  C   UNL     1     -41.784  60.301 -53.764  1.00  0.00     0.001 A 
HETATM   35  C   UNL     1     -41.817  59.104 -54.482  1.00  0.00     0.012 A 
ENDBRANCH   1  30
TORSDOF 5
ENDMDL
MODEL 3
REMARK VINA RESULT:      -8.3      3.577      8.585
REMARK  5 active torsions:
REMARK  status: ('A' for Active; 'I' for Inactive)
REMARK    1  A    between atoms: C_4  and  C_5 
REMARK    2  A    between atoms: C_6  and  N_7 
REMARK    3  A    between atoms: C_9  and  C_10 
REMARK       I    between atoms: C_10  and  N_11 
REMARK    4  A    between atoms: N_11  and  C_12 
REMARK    5  A    between atoms: C_12  and  C_13 
ROOT
HETATM    1  C   UNL     1     -42.403  58.419 -54.422  1.00  0.00     0.019 A 
HETATM    2  C   UNL     1     -42.421  57.078 -54.202  1.00  0.00     0.111 A 
HETATM    3  C   UNL     1     -42.306  56.132 -55.394  1.00  0.00     0.273 A 
HETATM    4  O   UNL     1     -42.357  54.908 -55.277  1.00  0.00    -0.266 OA
HETATM    5  N   UNL     1     -42.159  56.682 -56.634  1.00  0.00    -0.321 N 
HETATM    6  C   UNL     1     -42.130  58.051 -56.877  1.00  0.00     0.046 A 
HETATM    7  C   UNL     1     -42.249  58.944 -55.806  1.00  0.00     0.006 A 
HETATM    8  C   UNL     1     -41.987  58.503 -58.192  1.00  0.00     0.032 A 
HETATM    9  C   UNL     1     -41.961  59.872 -58.451  1.00  0.00     0.026 A 
HETATM   10  C   UNL     1     -42.073  60.774 -57.396  1.00  0.00     0.035 A 
HETATM   11 CL   UNL     1     -42.041  62.465 -57.717  1.00  0.00    -0.084 Cl
HETATM   12  C   UNL     1     -42.213  60.320 -56.083  1.00  0.00     0.038 A 
HETATM   13  H   UNL     1     -42.086  56.019 -57.393  1.00  0.00     0.169 HD
ENDROOT
BRANCH   2  14
HETATM   14  N   UNL     1     -42.576  56.489 -52.922  1.00  0.00    -0.375 N 
HETATM   15  C   UNL     1     -41.633  55.428 -52.503  1.00  0.00     0.137 C 
HETATM   16  C   UNL     1     -41.611  55.322 -50.977  1.00  0.00     0.096 C 
HETATM   17  C   UNL     1     -43.021  55.097 -50.416  1.00  0.00     0.017 C 
HETATM   18  C   UNL     1     -43.981  56.165 -50.935  1.00  0.00     0.021 C 
HETATM   19  C   UNL     1     -43.954  56.235 -52.461  1.00  0.00     0.123 C 
BRANCH  16  20
HETATM   20  C   UNL     1     -40.638  54.236 -50.542  1.00  0.00     0.223 C 
HETATM   21  N   UNL     1     -40.837  52.993 -51.094  1.00  0.00    -0.358 N 
HETATM   22  H   UNL     1     -41.430  52.894 -51.912  1.00  0.00     0.162 HD
HETATM   23  O   UNL     1     -39.729  54.469 -49.750  1.00  0.00    -0.273 OA
BRANCH  21  24
HETATM   24  C   UNL     1     -39.890  51.911 -50.886  1.00  0.00     0.154 C 
BRANCH  24  25
HETATM   25  C   UNL     1     -39.340  51.403 -52.217  1.00  0.00     0.139 C 
HETATM   26  O   UNL     1     -39.544  49.975 -52.324  1.00  0.00    -0.384 OA
HETATM   27  C   UNL     1     -39.983  49.680 -53.659  1.00  0.00     0.168 C 
HETATM   28  C   UNL     1     -39.815  50.948 -54.469  1.00  0.00     0.029 C 
HETATM   29  C   UNL     1     -40.024  52.017 -53.426  1.00  0.00     0.035 C 
ENDBRANCH  24  25
ENDBRANCH  21  24
ENDBRANCH  16  20
ENDBRANCH   2  14
BRANCH   1  30
HETATM   30  C   UNL     1     -42.525  59.311 -53.238  1.00  0.00    -0.023 A 
HETATM   31  C   UNL     1     -43.746  59.927 -52.936  1.00  0.00     0.012 A 
HETATM   32  C   UNL     1     -43.865  60.738 -51.806  1.00  0.00     0.001 A 
HETATM   33  C   UNL     1     -42.766  60.937 -50.971  1.00  0.00     0.000 A 
HETATM   34  C   UNL     1     -41.546  60.328 -51.264  1.00  0.00     0.001 A 
HETATM   35  C   UNL     1     -41.424  59.517 -52.393  1.00  0.00     0.012 A 
ENDBRANCH   1  30
TORSDOF 5
ENDMDL
MODEL 4
REMARK VINA RESULT:      -8.2      3.373      4.973
REMARK  5 active torsions:
REMARK  status: ('A' for Active; 'I' for Inactive)
REMARK    1  A    between atoms: C_4  and  C_5 
REMARK    2  A    between atoms: C_6  and  N_7 
REMARK    3  A    between atoms: C_9  and  C_10 
REMARK       I    between atoms: C_10  and  N_11 
REMARK    4  A    between atoms: N_11  and  C_12 
REMARK    5  A    between atoms: C_12  and  C_13 
ROOT
HETATM    1  C   UNL     1     -42.446  57.376 -53.388  1.00  0.00     0.019 A 
HETATM    2  C   UNL     1     -43.476  58.145 -53.831  1.00  0.00     0.111 A 
HETATM    3  C   UNL     1     -44.491  57.537 -54.794  1.00  0.00     0.273 A 
HETATM    4  O   UNL     1     -45.424  58.183 -55.269  1.00  0.00    -0.266 OA
HETATM    5  N   UNL     1     -44.334  56.228 -55.145  1.00  0.00    -0.321 N 
HETATM    6  C   UNL     1     -43.292  55.425 -54.696  1.00  0.00     0.046 A 
HETATM    7  C   UNL     1     -42.336  55.958 -53.825  1.00  0.00     0.006 A 
HETATM    8  C   UNL     1     -43.223  54.098 -55.132  1.00  0.00     0.032 A 
HETATM    9  C   UNL     1     -42.182  53.282 -54.694  1.00  0.00     0.026 A 
HETATM   10  C   UNL     1     -41.225  53.796 -53.823  1.00  0.00     0.035 A 
HETATM   11 CL   UNL     1     -39.939  52.788 -53.282  1.00  0.00    -0.084 Cl
HETATM   12  C   UNL     1     -41.298  55.120 -53.387  1.00  0.00     0.038 A 
HETATM   13  H   UNL     1     -45.029  55.867 -55.783  1.00  0.00     0.169 HD
ENDROOT
BRANCH   2  14
HETATM   14  N   UNL     1     -43.653  59.506 -53.479  1.00  0.00    -0.375 N 
HETATM   15  C   UNL     1     -44.832  59.889 -52.672  1.00  0.00     0.137 C 
HETATM   16  C   UNL     1     -44.569  61.218 -51.960  1.00  0.00     0.096 C 
HETATM   17  C   UNL     1     -44.172  62.313 -52.958  1.00  0.00     0.017 C 
HETATM   18  C   UNL     1     -43.004  61.849 -53.826  1.00  0.00     0.021 C 
HETATM   19  C   UNL     1     -43.317  60.515 -54.501  1.00  0.00     0.123 C 
BRANCH  16  20
HETATM   20  C   UNL     1     -45.777  61.612 -51.123  1.00  0.00     0.223 C 
HETATM   21  N   UNL     1     -45.526  61.905 -49.804  1.00  0.00    -0.358 N 
HETATM   22  H   UNL     1     -44.574  62.083 -49.500  1.00  0.00     0.162 HD
HETATM   23  O   UNL     1     -46.904  61.669 -51.610  1.00  0.00    -0.273 OA
BRANCH  21  24
HETATM   24  C   UNL     1     -46.561  62.445 -48.937  1.00  0.00     0.154 C 
BRANCH  24  25
HETATM   25  C   UNL     1     -46.253  62.148 -47.470  1.00  0.00     0.139 C 
HETATM   26  O   UNL     1     -47.141  61.120 -46.976  1.00  0.00    -0.384 OA
HETATM   27  C   UNL     1     -46.375  60.211 -46.171  1.00  0.00     0.168 C 
HETATM   28  C   UNL     1     -45.012  60.838 -45.971  1.00  0.00     0.029 C 
HETATM   29  C   UNL     1     -44.843  61.632 -47.242  1.00  0.00     0.035 C 
ENDBRANCH  24  25
ENDBRANCH  21  24
ENDBRANCH  16  20
ENDBRANCH   2  14
BRANCH   1  30
HETATM   30  C   UNL     1     -41.470  58.004 -52.457  1.00  0.00    -0.023 A 
HETATM   31  C   UNL     1     -40.293  58.584 -52.947  1.00  0.00     0.012 A 
HETATM   32  C   UNL     1     -39.396  59.201 -52.074  1.00  0.00     0.001 A 
HETATM   33  C   UNL     1     -39.669  59.242 -50.707  1.00  0.00     0.000 A 
HETATM   34  C   UNL     1     -40.838  58.667 -50.210  1.00  0.00     0.001 A 
HETATM   35  C   UNL     1     -41.738  58.050 -51.081  1.00  0.00     0.012 A 
ENDBRANCH   1  30
TORSDOF 5
ENDMDL
MODEL 5
REMARK VINA RESULT:      -8.0      4.167      7.412
REMARK  5 active torsions:
REMARK  status: ('A' for Active; 'I' for Inactive)
REMARK    1  A    between atoms: C_4  and  C_5 
REMARK    2  A    between atoms: C_6  and  N_7 
REMARK    3  A    between atoms: C_9  and  C_10 
REMARK       I    between atoms: C_10  and  N_11 
REMARK    4  A    between atoms: N_11  and  C_12 
REMARK    5  A    between atoms: C_12  and  C_13 
ROOT
HETATM    1  C   UNL     1     -42.027  56.714 -52.518  1.00  0.00     0.019 A 
HETATM    2  C   UNL     1     -42.151  56.694 -53.871  1.00  0.00     0.111 A 
HETATM    3  C   UNL     1     -41.683  55.461 -54.638  1.00  0.00     0.273 A 
HETATM    4  O   UNL     1     -41.725  55.388 -55.866  1.00  0.00    -0.266 OA
HETATM    5  N   UNL     1     -41.184  54.414 -53.920  1.00  0.00    -0.321 N 
HETATM    6  C   UNL     1     -41.056  54.413 -52.536  1.00  0.00     0.046 A 
HETATM    7  C   UNL     1     -41.463  55.536 -51.806  1.00  0.00     0.006 A 
HETATM    8  C   UNL     1     -40.518  53.288 -51.905  1.00  0.00     0.032 A 
HETATM    9  C   UNL     1     -40.381  53.274 -50.519  1.00  0.00     0.026 A 
HETATM   10  C   UNL     1     -40.785  54.381 -49.776  1.00  0.00     0.035 A 
HETATM   11 CL   UNL     1     -40.614  54.365 -48.064  1.00  0.00    -0.084 Cl
HETATM   12  C   UNL     1     -41.324  55.503 -50.409  1.00  0.00     0.038 A 
HETATM   13  H   UNL     1     -40.886  53.619 -54.469  1.00  0.00     0.169 HD
ENDROOT
BRANCH   2  14
HETATM   14  N   UNL     1     -42.665  57.773 -54.633  1.00  0.00    -0.375 N 
HETATM   15  C   UNL     1     -43.608  57.486 -55.736  1.00  0.00     0.137 C 
HETATM   16  C   UNL     1     -44.436  58.733 -56.054  1.00  0.00     0.096 C 
HETATM   17  C   UNL     1     -43.534  59.934 -56.364  1.00  0.00     0.017 C 
HETATM   18  C   UNL     1     -42.523  60.148 -55.239  1.00  0.00     0.021 C 
HETATM   19  C   UNL     1     -41.734  58.871 -54.957  1.00  0.00     0.123 C 
BRANCH  16  20
HETATM   20  C   UNL     1     -45.412  58.439 -57.184  1.00  0.00     0.223 C 
HETATM   21  N   UNL     1     -44.933  58.633 -58.458  1.00  0.00    -0.358 N 
HETATM   22  H   UNL     1     -43.933  58.719 -58.613  1.00  0.00     0.162 HD
HETATM   23  O   UNL     1     -46.554  58.047 -56.960  1.00  0.00    -0.273 OA
BRANCH  21  24
HETATM   24  C   UNL     1     -45.706  58.242 -59.626  1.00  0.00     0.154 C 
BRANCH  24  25
HETATM   25  C   UNL     1     -45.103  57.005 -60.290  1.00  0.00     0.139 C 
HETATM   26  O   UNL     1     -43.747  56.808 -59.831  1.00  0.00    -0.384 OA
HETATM   27  C   UNL     1     -43.552  55.407 -59.584  1.00  0.00     0.168 C 
HETATM   28  C   UNL     1     -44.764  54.689 -60.139  1.00  0.00     0.029 C 
HETATM   29  C   UNL     1     -45.848  55.723 -59.964  1.00  0.00     0.035 C 
ENDBRANCH  24  25
ENDBRANCH  21  24
ENDBRANCH  16  20
ENDBRANCH   2  14
BRANCH   1  30
HETATM   30  C   UNL     1     -42.487  57.935 -51.803  1.00  0.00    -0.023 A 
HETATM   31  C   UNL     1     -41.561  58.882 -51.346  1.00  0.00     0.012 A 
HETATM   32  C   UNL     1     -41.998  60.041 -50.705  1.00  0.00     0.001 A 
HETATM   33  C   UNL     1     -43.362  60.263 -50.517  1.00  0.00     0.000 A 
HETATM   34  C   UNL     1     -44.291  59.326 -50.968  1.00  0.00     0.001 A 
HETATM   35  C   UNL     1     -43.857  58.165 -51.611  1.00  0.00     0.012 A 
ENDBRANCH   1  30
TORSDOF 5
ENDMDL
MODEL 6
REMARK VINA RESULT:      -7.8      3.616      6.205
REMARK  5 active torsions:
REMARK  status: ('A' for Active; 'I' for Inactive)
REMARK    1  A    between atoms: C_4  and  C_5 
REMARK    2  A    between atoms: C_6  and  N_7 
REMARK    3  A    between atoms: C_9  and  C_10 
REMARK       I    between atoms: C_10  and  N_11 
REMARK    4  A    between atoms: N_11  and  C_12 
REMARK    5  A    between atoms: C_12  and  C_13 
ROOT
HETATM    1  C   UNL     1     -43.399  57.920 -55.660  1.00  0.00     0.019 A 
HETATM    2  C   UNL     1     -43.553  59.122 -55.045  1.00  0.00     0.111 A 
HETATM    3  C   UNL     1     -43.998  60.324 -55.873  1.00  0.00     0.273 A 
HETATM    4  O   UNL     1     -44.118  61.451 -55.394  1.00  0.00    -0.266 OA
HETATM    5  N   UNL     1     -44.253  60.128 -57.198  1.00  0.00    -0.321 N 
HETATM    6  C   UNL     1     -44.109  58.904 -57.843  1.00  0.00     0.046 A 
HETATM    7  C   UNL     1     -43.687  57.787 -57.114  1.00  0.00     0.006 A 
HETATM    8  C   UNL     1     -44.387  58.822 -59.210  1.00  0.00     0.032 A 
HETATM    9  C   UNL     1     -44.244  57.603 -59.871  1.00  0.00     0.026 A 
HETATM   10  C   UNL     1     -43.829  56.480 -59.160  1.00  0.00     0.035 A 
HETATM   11 CL   UNL     1     -43.651  54.975 -59.975  1.00  0.00    -0.084 Cl
HETATM   12  C   UNL     1     -43.555  56.565 -57.793  1.00  0.00     0.038 A 
HETATM   13  H   UNL     1     -44.546  60.950 -57.707  1.00  0.00     0.169 HD
ENDROOT
BRANCH   2  14
HETATM   14  N   UNL     1     -43.290  59.345 -53.671  1.00  0.00    -0.375 N 
HETATM   15  C   UNL     1     -44.392  59.804 -52.796  1.00  0.00     0.137 C 
HETATM   16  C   UNL     1     -44.076  59.465 -51.338  1.00  0.00     0.096 C 
HETATM   17  C   UNL     1     -42.722  60.047 -50.913  1.00  0.00     0.017 C 
HETATM   18  C   UNL     1     -41.626  59.616 -51.886  1.00  0.00     0.021 C 
HETATM   19  C   UNL     1     -41.998  59.967 -53.325  1.00  0.00     0.123 C 
BRANCH  16  20
HETATM   20  C   UNL     1     -45.211  59.930 -50.436  1.00  0.00     0.223 C 
HETATM   21  N   UNL     1     -45.183  61.254 -50.067  1.00  0.00    -0.358 N 
HETATM   22  H   UNL     1     -44.590  61.905 -50.572  1.00  0.00     0.162 HD
HETATM   23  O   UNL     1     -46.096  59.161 -50.070  1.00  0.00    -0.273 OA
BRANCH  21  24
HETATM   24  C   UNL     1     -46.285  61.862 -49.340  1.00  0.00     0.154 C 
BRANCH  24  25
HETATM   25  C   UNL     1     -45.998  61.892 -47.840  1.00  0.00     0.139 C 
HETATM   26  O   UNL     1     -46.918  61.022 -47.143  1.00  0.00    -0.384 OA
HETATM   27  C   UNL     1     -46.185  60.296 -46.144  1.00  0.00     0.168 C 
HETATM   28  C   UNL     1     -44.807  60.919 -46.069  1.00  0.00     0.029 C 
HETATM   29  C   UNL     1     -44.605  61.405 -47.482  1.00  0.00     0.035 C 
ENDBRANCH  24  25
ENDBRANCH  21  24
ENDBRANCH  16  20
ENDBRANCH   2  14
BRANCH   1  30
HETATM   30  C   UNL     1     -42.956  56.772 -54.825  1.00  0.00    -0.023 A 
HETATM   31  C   UNL     1     -43.898  55.912 -54.244  1.00  0.00     0.012 A 
HETATM   32  C   UNL     1     -43.477  54.817 -53.487  1.00  0.00     0.001 A 
HETATM   33  C   UNL     1     -42.116  54.574 -53.307  1.00  0.00     0.000 A 
HETATM   34  C   UNL     1     -41.172  55.425 -53.881  1.00  0.00     0.001 A 
HETATM   35  C   UNL     1     -41.590  56.521 -54.639  1.00  0.00     0.012 A 
ENDBRANCH   1  30
TORSDOF 5
ENDMDL
MODEL 7
REMARK VINA RESULT:      -7.5      3.112      4.697
REMARK  5 active torsions:
REMARK  status: ('A' for Active; 'I' for Inactive)
REMARK    1  A    between atoms: C_4  and  C_5 
REMARK    2  A    between atoms: C_6  and  N_7 
REMARK    3  A    between atoms: C_9  and  C_10 
REMARK       I    between atoms: C_10  and  N_11 
REMARK    4  A    between atoms: N_11  and  C_12 
REMARK    5  A    between atoms: C_12  and  C_13 
ROOT
HETATM    1  C   UNL     1     -41.666  56.528 -53.887  1.00  0.00     0.019 A 
HETATM    2  C   UNL     1     -42.364  57.022 -54.944  1.00  0.00     0.111 A 
HETATM    3  C   UNL     1     -42.809  56.066 -56.047  1.00  0.00     0.273 A 
HETATM    4  O   UNL     1     -43.407  56.448 -57.053  1.00  0.00    -0.266 OA
HETATM    5  N   UNL     1     -42.509  54.743 -55.906  1.00  0.00    -0.321 N 
HETATM    6  C   UNL     1     -41.803  54.219 -54.829  1.00  0.00     0.046 A 
HETATM    7  C   UNL     1     -41.368  55.072 -53.809  1.00  0.00     0.006 A 
HETATM    8  C   UNL     1     -41.541  52.846 -54.794  1.00  0.00     0.032 A 
HETATM    9  C   UNL     1     -40.832  52.307 -53.723  1.00  0.00     0.026 A 
HETATM   10  C   UNL     1     -40.395  53.141 -52.697  1.00  0.00     0.035 A 
HETATM   11 CL   UNL     1     -39.518  52.475 -51.375  1.00  0.00    -0.084 Cl
HETATM   12  C   UNL     1     -40.661  54.511 -52.733  1.00  0.00     0.038 A 
HETATM   13  H   UNL     1     -42.824  54.148 -56.659  1.00  0.00     0.169 HD
ENDROOT
BRANCH   2  14
HETATM   14  N   UNL     1     -42.682  58.393 -55.109  1.00  0.00    -0.375 N 
HETATM   15  C   UNL     1     -43.938  58.912 -54.523  1.00  0.00     0.137 C 
HETATM   16  C   UNL     1     -43.837  60.426 -54.329  1.00  0.00     0.096 C 
HETATM   17  C   UNL     1     -43.478  61.132 -55.642  1.00  0.00     0.017 C 
HETATM   18  C   UNL     1     -42.222  60.515 -56.255  1.00  0.00     0.021 C 
HETATM   19  C   UNL     1     -42.373  59.003 -56.415  1.00  0.00     0.123 C 
BRANCH  16  20
HETATM   20  C   UNL     1     -45.125  60.963 -53.721  1.00  0.00     0.223 C 
HETATM   21  N   UNL     1     -45.346  60.645 -52.402  1.00  0.00    -0.358 N 
HETATM   22  H   UNL     1     -44.581  60.297 -51.832  1.00  0.00     0.162 HD
HETATM   23  O   UNL     1     -45.908  61.644 -54.377  1.00  0.00    -0.273 OA
BRANCH  21  24
HETATM   24  C   UNL     1     -46.454  61.222 -51.659  1.00  0.00     0.154 C 
BRANCH  24  25
HETATM   25  C   UNL     1     -45.951  61.994 -50.440  1.00  0.00     0.139 C 
HETATM   26  O   UNL     1     -46.627  61.534 -49.249  1.00  0.00    -0.384 OA
HETATM   27  C   UNL     1     -45.659  61.423 -48.194  1.00  0.00     0.168 C 
HETATM   28  C   UNL     1     -44.384  62.066 -48.696  1.00  0.00     0.029 C 
HETATM   29  C   UNL     1     -44.466  61.809 -50.180  1.00  0.00     0.035 C 
ENDBRANCH  24  25
ENDBRANCH  21  24
ENDBRANCH  16  20
ENDBRANCH   2  14
BRANCH   1  30
HETATM   30  C   UNL     1     -41.242  57.489 -52.834  1.00  0.00    -0.023 A 
HETATM   31  C   UNL     1     -41.951  57.581 -51.630  1.00  0.00     0.012 A 
HETATM   32  C   UNL     1     -41.531  58.461 -50.631  1.00  0.00     0.001 A 
HETATM   33  C   UNL     1     -40.400  59.252 -50.829  1.00  0.00     0.000 A 
HETATM   34  C   UNL     1     -39.688  59.167 -52.025  1.00  0.00     0.001 A 
HETATM   35  C   UNL     1     -40.106  58.288 -53.025  1.00  0.00     0.012 A 
ENDBRANCH   1  30
TORSDOF 5
ENDMDL
MODEL 8
REMARK VINA RESULT:      -7.5      4.869      8.883
REMARK  5 active torsions:
REMARK  status: ('A' for Active; 'I' for Inactive)
REMARK    1  A    between atoms: C_4  and  C_5 
REMARK    2  A    between atoms: C_6  and  N_7 
REMARK    3  A    between atoms: C_9  and  C_10 
REMARK       I    between atoms: C_10  and  N_11 
REMARK    4  A    between atoms: N_11  and  C_12 
REMARK    5  A    between atoms: C_12  and  C_13 
ROOT
HETATM    1  C   UNL     1     -42.856  58.952 -58.346  1.00  0.00     0.019 A 
HETATM    2  C   UNL     1     -42.682  59.048 -57.001  1.00  0.00     0.111 A 
HETATM    3  C   UNL     1     -41.960  60.266 -56.434  1.00  0.00     0.273 A 
HETATM    4  O   UNL     1     -41.730  60.401 -55.233  1.00  0.00    -0.266 OA
HETATM    5  N   UNL     1     -41.544  61.227 -57.309  1.00  0.00    -0.321 N 
HETATM    6  C   UNL     1     -41.719  61.150 -58.686  1.00  0.00     0.046 A 
HETATM    7  C   UNL     1     -42.364  60.037 -59.238  1.00  0.00     0.006 A 
HETATM    8  C   UNL     1     -41.240  62.189 -59.489  1.00  0.00     0.032 A 
HETATM    9  C   UNL     1     -41.405  62.124 -60.871  1.00  0.00     0.026 A 
HETATM   10  C   UNL     1     -42.049  61.026 -61.437  1.00  0.00     0.035 A 
HETATM   11 CL   UNL     1     -42.252  60.945 -63.143  1.00  0.00    -0.084 Cl
HETATM   12  C   UNL     1     -42.529  59.991 -60.631  1.00  0.00     0.038 A 
HETATM   13  H   UNL     1     -41.071  62.016 -56.890  1.00  0.00     0.169 HD
ENDROOT
BRANCH   2  14
HETATM   14  N   UNL     1     -43.105  58.059 -56.078  1.00  0.00    -0.375 N 
HETATM   15  C   UNL     1     -42.285  56.839 -55.911  1.00  0.00     0.137 C 
HETATM   16  C   UNL     1     -42.577  56.195 -54.555  1.00  0.00     0.096 C 
HETATM   17  C   UNL     1     -44.075  55.911 -54.386  1.00  0.00     0.017 C 
HETATM   18  C   UNL     1     -44.892  57.176 -54.645  1.00  0.00     0.021 C 
HETATM   19  C   UNL     1     -44.552  57.782 -56.005  1.00  0.00     0.123 C 
BRANCH  16  20
HETATM   20  C   UNL     1     -41.731  54.943 -54.376  1.00  0.00     0.223 C 
HETATM   21  N   UNL     1     -41.379  54.633 -53.084  1.00  0.00    -0.358 N 
HETATM   22  H   UNL     1     -41.866  55.074 -52.310  1.00  0.00     0.162 HD
HETATM   23  O   UNL     1     -41.395  54.254 -55.336  1.00  0.00    -0.273 OA
BRANCH  21  24
HETATM   24  C   UNL     1     -40.708  53.385 -52.759  1.00  0.00     0.154 C 
BRANCH  24  25
HETATM   25  C   UNL     1     -40.678  53.159 -51.249  1.00  0.00     0.139 C 
HETATM   26  O   UNL     1     -39.392  53.548 -50.716  1.00  0.00    -0.384 OA
HETATM   27  C   UNL     1     -39.609  54.261 -49.488  1.00  0.00     0.168 C 
HETATM   28  C   UNL     1     -41.072  54.096 -49.135  1.00  0.00     0.029 C 
HETATM   29  C   UNL     1     -41.711  53.977 -50.496  1.00  0.00     0.035 C 
ENDBRANCH  24  25
ENDBRANCH  21  24
ENDBRANCH  16  20
ENDBRANCH   2  14
BRANCH   1  30
HETATM   30  C   UNL     1     -43.558  57.748 -58.865  1.00  0.00    -0.023 A 
HETATM   31  C   UNL     1     -44.940  57.775 -59.093  1.00  0.00     0.012 A 
HETATM   32  C   UNL     1     -45.589  56.652 -59.610  1.00  0.00     0.001 A 
HETATM   33  C   UNL     1     -44.863  55.498 -59.902  1.00  0.00     0.000 A 
HETATM   34  C   UNL     1     -43.487  55.462 -59.677  1.00  0.00     0.001 A 
HETATM   35  C   UNL     1     -42.834  56.584 -59.161  1.00  0.00     0.012 A 
ENDBRANCH   1  30
TORSDOF 5
ENDMDL
MODEL 9
REMARK VINA RESULT:      -7.4      3.681      9.075
REMARK  5 active torsions:
REMARK  status: ('A' for Active; 'I' for Inactive)
REMARK    1  A    between atoms: C_4  and  C_5 
REMARK    2  A    between atoms: C_6  and  N_7 
REMARK    3  A    between atoms: C_9  and  C_10 
REMARK       I    between atoms: C_10  and  N_11 
REMARK    4  A    between atoms: N_11  and  C_12 
REMARK    5  A    between atoms: C_12  and  C_13 
ROOT
HETATM    1  C   UNL     1     -43.749  59.810 -52.325  1.00  0.00     0.019 A 
HETATM    2  C   UNL     1     -42.689  59.093 -51.866  1.00  0.00     0.111 A 
HETATM    3  C   UNL     1     -42.034  59.501 -50.551  1.00  0.00     0.273 A 
HETATM    4  O   UNL     1     -41.046  58.926 -50.095  1.00  0.00    -0.266 OA
HETATM    5  N   UNL     1     -42.566  60.558 -49.873  1.00  0.00    -0.321 N 
HETATM    6  C   UNL     1     -43.654  61.299 -50.321  1.00  0.00     0.046 A 
HETATM    7  C   UNL     1     -44.267  60.959 -51.533  1.00  0.00     0.006 A 
HETATM    8  C   UNL     1     -44.108  62.372 -49.549  1.00  0.00     0.032 A 
HETATM    9  C   UNL     1     -45.195  63.125 -49.988  1.00  0.00     0.026 A 
HETATM   10  C   UNL     1     -45.819  62.798 -51.189  1.00  0.00     0.035 A 
HETATM   11 CL   UNL     1     -47.161  63.729 -51.731  1.00  0.00    -0.084 Cl
HETATM   12  C   UNL     1     -45.365  61.724 -51.957  1.00  0.00     0.038 A 
HETATM   13  H   UNL     1     -42.101  60.792 -49.006  1.00  0.00     0.169 HD
ENDROOT
BRANCH   2  14
HETATM   14  N   UNL     1     -42.121  57.994 -52.559  1.00  0.00    -0.375 N 
HETATM   15  C   UNL     1     -41.914  56.721 -51.833  1.00  0.00     0.137 C 
HETATM   16  C   UNL     1     -41.825  55.562 -52.827  1.00  0.00     0.096 C 
HETATM   17  C   UNL     1     -40.735  55.813 -53.877  1.00  0.00     0.017 C 
HETATM   18  C   UNL     1     -40.938  57.170 -54.546  1.00  0.00     0.021 C 
HETATM   19  C   UNL     1     -41.031  58.287 -53.508  1.00  0.00     0.123 C 
BRANCH  16  20
HETATM   20  C   UNL     1     -41.618  54.250 -52.085  1.00  0.00     0.223 C 
HETATM   21  N   UNL     1     -40.341  53.740 -52.108  1.00  0.00    -0.358 N 
HETATM   22  H   UNL     1     -39.567  54.334 -52.388  1.00  0.00     0.162 HD
HETATM   23  O   UNL     1     -42.541  53.693 -51.497  1.00  0.00    -0.273 OA
BRANCH  21  24
HETATM   24  C   UNL     1     -39.973  52.581 -51.312  1.00  0.00     0.154 C 
BRANCH  24  25
HETATM   25  C   UNL     1     -39.239  51.545 -52.162  1.00  0.00     0.139 C 
HETATM   26  O   UNL     1     -39.483  50.218 -51.644  1.00  0.00    -0.384 OA
HETATM   27  C   UNL     1     -39.715  49.336 -52.753  1.00  0.00     0.168 C 
HETATM   28  C   UNL     1     -39.366  50.105 -54.010  1.00  0.00     0.029 C 
HETATM   29  C   UNL     1     -39.695  51.522 -53.610  1.00  0.00     0.035 C 
ENDBRANCH  24  25
ENDBRANCH  21  24
ENDBRANCH  16  20
ENDBRANCH   2  14
BRANCH   1  30
HETATM   30  C   UNL     1     -44.358  59.389 -53.615  1.00  0.00    -0.023 A 
HETATM   31  C   UNL     1     -44.366  60.260 -54.713  1.00  0.00     0.012 A 
HETATM   32  C   UNL     1     -44.910  59.849 -55.931  1.00  0.00     0.001 A 
HETATM   33  C   UNL     1     -45.447  58.569 -56.060  1.00  0.00     0.000 A 
HETATM   34  C   UNL     1     -45.443  57.696 -54.972  1.00  0.00     0.001 A 
HETATM   35  C   UNL     1     -44.900  58.104 -53.752  1.00  0.00     0.012 A 
ENDBRANCH   1  30
TORSDOF 5
ENDMDL
MODEL 10
REMARK VINA RESULT:      -7.4     16.826     19.028
REMARK  5 active torsions:
REMARK  status: ('A' for Active; 'I' for Inactive)
REMARK    1  A    between atoms: C_4  and  C_5 
REMARK    2  A    between atoms: C_6  and  N_7 
REMARK    3  A    between atoms: C_9  and  C_10 
REMARK       I    between atoms: C_10  and  N_11 
REMARK    4  A    between atoms: N_11  and  C_12 
REMARK    5  A    between atoms: C_12  and  C_13 
ROOT
HETATM    1  C   UNL     1     -35.884  39.973 -55.991  1.00  0.00     0.019 A 
HETATM    2  C   UNL     1     -36.626  40.487 -54.974  1.00  0.00     0.111 A 
HETATM    3  C   UNL     1     -38.060  40.923 -55.253  1.00  0.00     0.273 A 
HETATM    4  O   UNL     1     -38.777  41.435 -54.393  1.00  0.00    -0.266 OA
HETATM    5  N   UNL     1     -38.548  40.748 -56.514  1.00  0.00    -0.321 N 
HETATM    6  C   UNL     1     -37.807  40.218 -57.565  1.00  0.00     0.046 A 
HETATM    7  C   UNL     1     -36.483  39.823 -57.345  1.00  0.00     0.006 A 
HETATM    8  C   UNL     1     -38.406  40.096 -58.822  1.00  0.00     0.032 A 
HETATM    9  C   UNL     1     -37.675  39.569 -59.886  1.00  0.00     0.026 A 
HETATM   10  C   UNL     1     -36.357  39.167 -59.683  1.00  0.00     0.035 A 
HETATM   11 CL   UNL     1     -35.454  38.518 -60.996  1.00  0.00    -0.084 Cl
HETATM   12  C   UNL     1     -35.763  39.288 -58.425  1.00  0.00     0.038 A 
HETATM   13  H   UNL     1     -39.502  41.050 -56.653  1.00  0.00     0.169 HD
ENDROOT
BRANCH   2  14
HETATM   14  N   UNL     1     -36.135  40.679 -53.658  1.00  0.00    -0.375 N 
HETATM   15  C   UNL     1     -36.684  39.850 -52.562  1.00  0.00     0.137 C 
HETATM   16  C   UNL     1     -35.697  39.807 -51.394  1.00  0.00     0.096 C 
HETATM   17  C   UNL     1     -35.332  41.221 -50.923  1.00  0.00     0.017 C 
HETATM   18  C   UNL     1     -34.845  42.068 -52.097  1.00  0.00     0.021 C 
HETATM   19  C   UNL     1     -35.863  42.066 -53.236  1.00  0.00     0.123 C 
BRANCH  16  20
HETATM   20  C   UNL     1     -36.255  38.951 -50.267  1.00  0.00     0.223 C 
HETATM   21  N   UNL     1     -37.512  39.288 -49.821  1.00  0.00    -0.358 N 
HETATM   22  H   UNL     1     -38.099  39.897 -50.383  1.00  0.00     0.162 HD
HETATM   23  O   UNL     1     -35.616  38.014 -49.796  1.00  0.00    -0.273 OA
BRANCH  21  24
HETATM   24  C   UNL     1     -38.223  38.459 -48.862  1.00  0.00     0.154 C 
BRANCH  24  25
HETATM   25  C   UNL     1     -39.506  37.897 -49.472  1.00  0.00     0.139 C 
HETATM   26  O   UNL     1     -40.622  38.141 -48.586  1.00  0.00    -0.384 OA
HETATM   27  C   UNL     1     -41.744  38.560 -49.379  1.00  0.00     0.168 C 
HETATM   28  C   UNL     1     -41.368  38.337 -50.828  1.00  0.00     0.029 C 
HETATM   29  C   UNL     1     -39.873  38.537 -50.799  1.00  0.00     0.035 C 
ENDBRANCH  24  25
ENDBRANCH  21  24
ENDBRANCH  16  20
ENDBRANCH   2  14
BRANCH   1  30
HETATM   30  C   UNL     1     -34.487  39.566 -55.685  1.00  0.00    -0.023 A 
HETATM   31  C   UNL     1     -34.208  38.268 -55.237  1.00  0.00     0.012 A 
HETATM   32  C   UNL     1     -32.892  37.879 -54.982  1.00  0.00     0.001 A 
HETATM   33  C   UNL     1     -31.847  38.783 -55.173  1.00  0.00     0.000 A 
HETATM   34  C   UNL     1     -32.116  40.078 -55.618  1.00  0.00     0.001 A 
HETATM   35  C   UNL     1     -33.431  40.469 -55.874  1.00  0.00     0.012 A 
ENDBRANCH   1  30
TORSDOF 5
ENDMDL
