MODEL 1
REMARK VINA RESULT:      -8.2      0.000      0.000
REMARK  7 active torsions:
REMARK  status: ('A' for Active; 'I' for Inactive)
REMARK    1  A    between atoms: C_3  and  C_4 
REMARK    2  A    between atoms: C_4  and  N_5 
REMARK       I    between atoms: N_5  and  C_6 
REMARK    3  A    between atoms: C_6  and  C_7 
REMARK    4  A    between atoms: C_7  and  N_8 
REMARK    5  A    between atoms: C_10  and  C_11 
REMARK    6  A    between atoms: C_11  and  N_12 
REMARK       I    between atoms: N_12  and  C_13 
REMARK       I    between atoms: C_13  and  N_14 
REMARK    7  A    between atoms: N_14  and  C_15 
ROOT
HETATM    1  N   UNL     1     -41.895  57.894 -53.163  1.00  0.00    -0.057 N 
HETATM    2  H   UNL     1     -42.930  57.784 -53.216  1.00  0.00     0.281 HD
HETATM    3  C   UNL     1     -41.587  57.863 -51.669  1.00  0.00     0.206 C 
HETATM    4  C   UNL     1     -42.315  59.032 -50.983  1.00  0.00     0.035 C 
HETATM    5  C   UNL     1     -41.993  60.373 -51.631  1.00  0.00     0.004 C 
HETATM    6  C   UNL     1     -42.290  60.339 -53.123  1.00  0.00     0.028 C 
HETATM    7  C   UNL     1     -41.543  59.207 -53.809  1.00  0.00     0.236 C 
ENDROOT
BRANCH   1   8
HETATM    8  C   UNL     1     -41.381  56.711 -53.989  1.00  0.00     0.337 C 
BRANCH   8   9
HETATM    9  C   UNL     1     -42.416  56.016 -54.880  1.00  0.00     0.243 C 
HETATM   10  N   UNL     1     -42.099  56.010 -56.217  1.00  0.00    -0.355 N 
HETATM   11  H   UNL     1     -41.181  56.296 -56.537  1.00  0.00     0.162 HD
HETATM   12  O   UNL     1     -43.447  55.521 -54.432  1.00  0.00    -0.272 OA
BRANCH  10  13
HETATM   13  C   UNL     1     -42.903  55.272 -57.173  1.00  0.00     0.169 C 
BRANCH  13  14
HETATM   14  C   UNL     1     -43.164  56.135 -58.370  1.00  0.00     0.006 A 
HETATM   15  C   UNL     1     -43.851  55.819 -59.536  1.00  0.00    -0.047 A 
HETATM   16  C   UNL     1     -44.485  54.499 -59.837  1.00  0.00     0.049 C 
HETATM   17  C   UNL     1     -43.871  56.931 -60.443  1.00  0.00     0.015 A 
HETATM   18  C   UNL     1     -43.199  58.028 -59.956  1.00  0.00     0.051 A 
HETATM   19  S   UNL     1     -42.529  57.734 -58.419  1.00  0.00    -0.104 SA
ENDBRANCH  13  14
ENDBRANCH  10  13
ENDBRANCH   8   9
ENDBRANCH   1   8
BRANCH   3  20
HETATM   20  C   UNL     1     -41.945  56.510 -50.988  1.00  0.00     0.157 C 
BRANCH  20  21
HETATM   21  N   UNL     1     -40.985  55.407 -51.013  1.00  0.00    -0.341 N 
HETATM   22  C   UNL     1     -41.181  54.143 -51.510  1.00  0.00     0.320 C 
HETATM   23  N   UNL     1     -40.008  53.439 -51.603  1.00  0.00    -0.309 N 
HETATM   24  O   UNL     1     -42.295  53.745 -51.833  1.00  0.00    -0.247 OA
HETATM   25  H   UNL     1     -39.154  53.977 -51.633  1.00  0.00     0.170 HD
HETATM   26  H   UNL     1     -40.046  55.625 -50.703  1.00  0.00     0.164 HD
BRANCH  23  27
HETATM   27  C   UNL     1     -39.875  52.071 -51.927  1.00  0.00     0.036 A 
HETATM   28  C   UNL     1     -39.795  51.732 -53.284  1.00  0.00     0.029 A 
HETATM   29  C   UNL     1     -39.653  50.399 -53.675  1.00  0.00     0.002 A 
HETATM   30  C   UNL     1     -39.570  49.396 -52.714  1.00  0.00     0.000 A 
HETATM   31  C   UNL     1     -39.629  49.726 -51.362  1.00  0.00     0.002 A 
HETATM   32  C   UNL     1     -39.782  51.059 -50.970  1.00  0.00     0.029 A 
ENDBRANCH  23  27
ENDBRANCH  20  21
ENDBRANCH   3  20
TORSDOF 7
ENDMDL
MODEL 2
REMARK VINA RESULT:      -8.1      2.690      5.686
REMARK  7 active torsions:
REMARK  status: ('A' for Active; 'I' for Inactive)
REMARK    1  A    between atoms: C_3  and  C_4 
REMARK    2  A    between atoms: C_4  and  N_5 
REMARK       I    between atoms: N_5  and  C_6 
REMARK    3  A    between atoms: C_6  and  C_7 
REMARK    4  A    between atoms: C_7  and  N_8 
REMARK    5  A    between atoms: C_10  and  C_11 
REMARK    6  A    between atoms: C_11  and  N_12 
REMARK       I    between atoms: N_12  and  C_13 
REMARK       I    between atoms: C_13  and  N_14 
REMARK    7  A    between atoms: N_14  and  C_15 
ROOT
HETATM    1  N   UNL     1     -43.581  58.643 -56.208  1.00  0.00    -0.057 N 
HETATM    2  H   UNL     1     -42.835  58.349 -55.542  1.00  0.00     0.281 HD
HETATM    3  C   UNL     1     -43.165  58.023 -57.539  1.00  0.00     0.206 C 
HETATM    4  C   UNL     1     -41.791  58.585 -57.946  1.00  0.00     0.035 C 
HETATM    5  C   UNL     1     -41.773  60.109 -57.964  1.00  0.00     0.004 C 
HETATM    6  C   UNL     1     -42.224  60.673 -56.623  1.00  0.00     0.028 C 
HETATM    7  C   UNL     1     -43.597  60.147 -56.238  1.00  0.00     0.236 C 
ENDROOT
BRANCH   1   8
HETATM    8  C   UNL     1     -44.854  58.084 -55.566  1.00  0.00     0.337 C 
BRANCH   8   9
HETATM    9  C   UNL     1     -45.020  58.349 -54.066  1.00  0.00     0.243 C 
HETATM   10  N   UNL     1     -44.678  57.288 -53.262  1.00  0.00    -0.355 N 
HETATM   11  H   UNL     1     -44.204  56.476 -53.642  1.00  0.00     0.162 HD
HETATM   12  O   UNL     1     -45.437  59.417 -53.626  1.00  0.00    -0.272 OA
BRANCH  10  13
HETATM   13  C   UNL     1     -44.644  57.424 -51.818  1.00  0.00     0.169 C 
BRANCH  13  14
HETATM   14  C   UNL     1     -43.223  57.338 -51.347  1.00  0.00     0.006 A 
HETATM   15  C   UNL     1     -42.563  56.260 -50.771  1.00  0.00    -0.047 A 
HETATM   16  C   UNL     1     -43.168  54.921 -50.494  1.00  0.00     0.049 C 
HETATM   17  C   UNL     1     -41.203  56.594 -50.456  1.00  0.00     0.015 A 
HETATM   18  C   UNL     1     -40.884  57.892 -50.780  1.00  0.00     0.051 A 
HETATM   19  S   UNL     1     -42.210  58.725 -51.450  1.00  0.00    -0.104 SA
ENDBRANCH  13  14
ENDBRANCH  10  13
ENDBRANCH   8   9
ENDBRANCH   1   8
BRANCH   3  20
HETATM   20  C   UNL     1     -43.145  56.467 -57.522  1.00  0.00     0.157 C 
BRANCH  20  21
HETATM   21  N   UNL     1     -42.040  55.761 -56.875  1.00  0.00    -0.341 N 
HETATM   22  C   UNL     1     -42.082  55.036 -55.710  1.00  0.00     0.320 C 
HETATM   23  N   UNL     1     -40.940  54.305 -55.517  1.00  0.00    -0.309 N 
HETATM   24  O   UNL     1     -43.061  55.064 -54.972  1.00  0.00    -0.247 OA
HETATM   25  H   UNL     1     -40.381  54.106 -56.335  1.00  0.00     0.170 HD
HETATM   26  H   UNL     1     -41.165  55.738 -57.385  1.00  0.00     0.164 HD
BRANCH  23  27
HETATM   27  C   UNL     1     -40.596  53.576 -54.358  1.00  0.00     0.036 A 
HETATM   28  C   UNL     1     -40.244  52.230 -54.520  1.00  0.00     0.029 A 
HETATM   29  C   UNL     1     -39.884  51.453 -53.416  1.00  0.00     0.002 A 
HETATM   30  C   UNL     1     -39.856  52.019 -52.145  1.00  0.00     0.000 A 
HETATM   31  C   UNL     1     -40.187  53.362 -51.977  1.00  0.00     0.002 A 
HETATM   32  C   UNL     1     -40.557  54.138 -53.080  1.00  0.00     0.029 A 
ENDBRANCH  23  27
ENDBRANCH  20  21
ENDBRANCH   3  20
TORSDOF 7
ENDMDL
MODEL 3
REMARK VINA RESULT:      -8.0      2.448      7.036
REMARK  7 active torsions:
REMARK  status: ('A' for Active; 'I' for Inactive)
REMARK    1  A    between atoms: C_3  and  C_4 
REMARK    2  A    between atoms: C_4  and  N_5 
REMARK       I    between atoms: N_5  and  C_6 
REMARK    3  A    between atoms: C_6  and  C_7 
REMARK    4  A    between atoms: C_7  and  N_8 
REMARK    5  A    between atoms: C_10  and  C_11 
REMARK    6  A    between atoms: C_11  and  N_12 
REMARK       I    between atoms: N_12  and  C_13 
REMARK       I    between atoms: C_13  and  N_14 
REMARK    7  A    between atoms: N_14  and  C_15 
ROOT
HETATM    1  N   UNL     1     -42.302  56.703 -51.669  1.00  0.00    -0.057 N 
HETATM    2  H   UNL     1     -41.929  56.822 -52.634  1.00  0.00     0.281 HD
HETATM    3  C   UNL     1     -43.445  57.710 -51.579  1.00  0.00     0.206 C 
HETATM    4  C   UNL     1     -42.885  59.126 -51.798  1.00  0.00     0.035 C 
HETATM    5  C   UNL     1     -41.733  59.444 -50.852  1.00  0.00     0.004 C 
HETATM    6  C   UNL     1     -40.636  58.394 -50.961  1.00  0.00     0.028 C 
HETATM    7  C   UNL     1     -41.181  56.998 -50.709  1.00  0.00     0.236 C 
ENDROOT
BRANCH   1   8
HETATM    8  C   UNL     1     -42.694  55.223 -51.631  1.00  0.00     0.337 C 
BRANCH   8   9
HETATM    9  C   UNL     1     -42.143  54.355 -52.767  1.00  0.00     0.243 C 
HETATM   10  N   UNL     1     -40.879  53.865 -52.542  1.00  0.00    -0.355 N 
HETATM   11  H   UNL     1     -40.441  53.945 -51.631  1.00  0.00     0.162 HD
HETATM   12  O   UNL     1     -42.777  54.133 -53.795  1.00  0.00    -0.272 OA
BRANCH  10  13
HETATM   13  C   UNL     1     -40.272  52.914 -53.455  1.00  0.00     0.169 C 
BRANCH  13  14
HETATM   14  C   UNL     1     -39.979  51.641 -52.721  1.00  0.00     0.006 A 
HETATM   15  C   UNL     1     -39.772  50.368 -53.237  1.00  0.00    -0.047 A 
HETATM   16  C   UNL     1     -39.809  50.005 -54.687  1.00  0.00     0.049 C 
HETATM   17  C   UNL     1     -39.525  49.418 -52.191  1.00  0.00     0.015 A 
HETATM   18  C   UNL     1     -39.566  49.983 -50.937  1.00  0.00     0.051 A 
HETATM   19  S   UNL     1     -39.915  51.649 -51.001  1.00  0.00    -0.104 SA
ENDBRANCH  13  14
ENDBRANCH  10  13
ENDBRANCH   8   9
ENDBRANCH   1   8
BRANCH   3  20
HETATM   20  C   UNL     1     -44.613  57.416 -52.565  1.00  0.00     0.157 C 
BRANCH  20  21
HETATM   21  N   UNL     1     -44.338  56.752 -53.839  1.00  0.00    -0.341 N 
HETATM   22  C   UNL     1     -43.830  57.318 -54.982  1.00  0.00     0.320 C 
HETATM   23  N   UNL     1     -43.465  56.374 -55.906  1.00  0.00    -0.309 N 
HETATM   24  O   UNL     1     -43.722  58.534 -55.103  1.00  0.00    -0.247 OA
HETATM   25  H   UNL     1     -43.287  55.441 -55.560  1.00  0.00     0.170 HD
HETATM   26  H   UNL     1     -44.460  55.747 -53.854  1.00  0.00     0.164 HD
BRANCH  23  27
HETATM   27  C   UNL     1     -43.053  56.616 -57.234  1.00  0.00     0.036 A 
HETATM   28  C   UNL     1     -43.377  55.652 -58.198  1.00  0.00     0.029 A 
HETATM   29  C   UNL     1     -43.008  55.831 -59.533  1.00  0.00     0.002 A 
HETATM   30  C   UNL     1     -42.330  56.984 -59.920  1.00  0.00     0.000 A 
HETATM   31  C   UNL     1     -42.021  57.957 -58.971  1.00  0.00     0.002 A 
HETATM   32  C   UNL     1     -42.381  57.773 -57.633  1.00  0.00     0.029 A 
ENDBRANCH  23  27
ENDBRANCH  20  21
ENDBRANCH   3  20
TORSDOF 7
ENDMDL
MODEL 4
REMARK VINA RESULT:      -8.0      2.404      6.184
REMARK  7 active torsions:
REMARK  status: ('A' for Active; 'I' for Inactive)
REMARK    1  A    between atoms: C_3  and  C_4 
REMARK    2  A    between atoms: C_4  and  N_5 
REMARK       I    between atoms: N_5  and  C_6 
REMARK    3  A    between atoms: C_6  and  C_7 
REMARK    4  A    between atoms: C_7  and  N_8 
REMARK    5  A    between atoms: C_10  and  C_11 
REMARK    6  A    between atoms: C_11  and  N_12 
REMARK       I    between atoms: N_12  and  C_13 
REMARK       I    between atoms: C_13  and  N_14 
REMARK    7  A    between atoms: N_14  and  C_15 
ROOT
HETATM    1  N   UNL     1     -42.744  58.827 -57.231  1.00  0.00    -0.057 N 
HETATM    2  H   UNL     1     -41.762  58.579 -56.989  1.00  0.00     0.281 HD
HETATM    3  C   UNL     1     -43.174  57.750 -58.222  1.00  0.00     0.206 C 
HETATM    4  C   UNL     1     -42.256  57.810 -59.456  1.00  0.00     0.035 C 
HETATM    5  C   UNL     1     -42.206  59.203 -60.072  1.00  0.00     0.004 C 
HETATM    6  C   UNL     1     -41.802  60.240 -59.034  1.00  0.00     0.028 C 
HETATM    7  C   UNL     1     -42.730  60.207 -57.830  1.00  0.00     0.236 C 
ENDROOT
BRANCH   1   8
HETATM    8  C   UNL     1     -43.447  58.818 -55.870  1.00  0.00     0.337 C 
BRANCH   8   9
HETATM    9  C   UNL     1     -42.606  59.290 -54.679  1.00  0.00     0.243 C 
HETATM   10  N   UNL     1     -43.314  59.442 -53.511  1.00  0.00    -0.355 N 
HETATM   11  H   UNL     1     -44.266  59.106 -53.430  1.00  0.00     0.162 HD
HETATM   12  O   UNL     1     -41.403  59.525 -54.771  1.00  0.00    -0.272 OA
BRANCH  10  13
HETATM   13  C   UNL     1     -42.640  59.746 -52.263  1.00  0.00     0.169 C 
BRANCH  13  14
HETATM   14  C   UNL     1     -42.318  58.467 -51.550  1.00  0.00     0.006 A 
HETATM   15  C   UNL     1     -41.132  58.092 -50.932  1.00  0.00    -0.047 A 
HETATM   16  C   UNL     1     -39.892  58.925 -50.858  1.00  0.00     0.049 C 
HETATM   17  C   UNL     1     -41.235  56.776 -50.369  1.00  0.00     0.015 A 
HETATM   18  C   UNL     1     -42.464  56.198 -50.586  1.00  0.00     0.051 A 
HETATM   19  S   UNL     1     -43.498  57.216 -51.476  1.00  0.00    -0.104 SA
ENDBRANCH  13  14
ENDBRANCH  10  13
ENDBRANCH   8   9
ENDBRANCH   1   8
BRANCH   3  20
HETATM   20  C   UNL     1     -43.194  56.317 -57.615  1.00  0.00     0.157 C 
BRANCH  20  21
HETATM   21  N   UNL     1     -42.067  55.854 -56.807  1.00  0.00    -0.341 N 
HETATM   22  C   UNL     1     -42.083  54.896 -55.824  1.00  0.00     0.320 C 
HETATM   23  N   UNL     1     -40.820  54.529 -55.442  1.00  0.00    -0.309 N 
HETATM   24  O   UNL     1     -43.136  54.444 -55.386  1.00  0.00    -0.247 OA
HETATM   25  H   UNL     1     -40.073  54.713 -56.096  1.00  0.00     0.170 HD
HETATM   26  H   UNL     1     -41.157  56.223 -57.056  1.00  0.00     0.164 HD
BRANCH  23  27
HETATM   27  C   UNL     1     -40.482  53.688 -54.359  1.00  0.00     0.036 A 
HETATM   28  C   UNL     1     -40.640  54.203 -53.066  1.00  0.00     0.029 A 
HETATM   29  C   UNL     1     -40.333  53.422 -51.949  1.00  0.00     0.002 A 
HETATM   30  C   UNL     1     -39.884  52.115 -52.115  1.00  0.00     0.000 A 
HETATM   31  C   UNL     1     -39.742  51.589 -53.397  1.00  0.00     0.002 A 
HETATM   32  C   UNL     1     -40.039  52.374 -54.516  1.00  0.00     0.029 A 
ENDBRANCH  23  27
ENDBRANCH  20  21
ENDBRANCH   3  20
TORSDOF 7
ENDMDL
MODEL 5
REMARK VINA RESULT:      -7.9      2.006      2.827
REMARK  7 active torsions:
REMARK  status: ('A' for Active; 'I' for Inactive)
REMARK    1  A    between atoms: C_3  and  C_4 
REMARK    2  A    between atoms: C_4  and  N_5 
REMARK       I    between atoms: N_5  and  C_6 
REMARK    3  A    between atoms: C_6  and  C_7 
REMARK    4  A    between atoms: C_7  and  N_8 
REMARK    5  A    between atoms: C_10  and  C_11 
REMARK    6  A    between atoms: C_11  and  N_12 
REMARK       I    between atoms: N_12  and  C_13 
REMARK       I    between atoms: C_13  and  N_14 
REMARK    7  A    between atoms: N_14  and  C_15 
ROOT
HETATM    1  N   UNL     1     -43.335  56.870 -53.534  1.00  0.00    -0.057 N 
HETATM    2  H   UNL     1     -43.103  55.953 -53.098  1.00  0.00     0.281 HD
HETATM    3  C   UNL     1     -42.036  57.309 -54.204  1.00  0.00     0.206 C 
HETATM    4  C   UNL     1     -40.943  57.454 -53.131  1.00  0.00     0.035 C 
HETATM    5  C   UNL     1     -41.369  58.374 -51.993  1.00  0.00     0.004 C 
HETATM    6  C   UNL     1     -42.682  57.907 -51.381  1.00  0.00     0.028 C 
HETATM    7  C   UNL     1     -43.773  57.799 -52.434  1.00  0.00     0.236 C 
ENDROOT
BRANCH   1   8
HETATM    8  C   UNL     1     -44.499  56.523 -54.467  1.00  0.00     0.337 C 
BRANCH   8   9
HETATM    9  C   UNL     1     -44.815  57.554 -55.556  1.00  0.00     0.243 C 
HETATM   10  N   UNL     1     -44.421  57.182 -56.819  1.00  0.00    -0.355 N 
HETATM   11  H   UNL     1     -44.106  56.238 -57.011  1.00  0.00     0.162 HD
HETATM   12  O   UNL     1     -45.362  58.626 -55.311  1.00  0.00    -0.272 OA
BRANCH  10  13
HETATM   13  C   UNL     1     -44.772  57.982 -57.977  1.00  0.00     0.169 C 
BRANCH  13  14
HETATM   14  C   UNL     1     -45.096  57.074 -59.126  1.00  0.00     0.006 A 
HETATM   15  C   UNL     1     -44.232  56.305 -59.895  1.00  0.00    -0.047 A 
HETATM   16  C   UNL     1     -42.748  56.234 -59.722  1.00  0.00     0.049 C 
HETATM   17  C   UNL     1     -44.946  55.578 -60.905  1.00  0.00     0.015 A 
HETATM   18  C   UNL     1     -46.299  55.824 -60.883  1.00  0.00     0.051 A 
HETATM   19  S   UNL     1     -46.724  56.936 -59.665  1.00  0.00    -0.104 SA
ENDBRANCH  13  14
ENDBRANCH  10  13
ENDBRANCH   8   9
ENDBRANCH   1   8
BRANCH   3  20
HETATM   20  C   UNL     1     -41.571  56.358 -55.345  1.00  0.00     0.157 C 
BRANCH  20  21
HETATM   21  N   UNL     1     -40.661  55.253 -55.044  1.00  0.00    -0.341 N 
HETATM   22  C   UNL     1     -40.939  54.115 -54.330  1.00  0.00     0.320 C 
HETATM   23  N   UNL     1     -39.945  53.179 -54.446  1.00  0.00    -0.309 N 
HETATM   24  O   UNL     1     -41.980  53.995 -53.692  1.00  0.00    -0.247 OA
HETATM   25  H   UNL     1     -39.333  53.259 -55.246  1.00  0.00     0.170 HD
HETATM   26  H   UNL     1     -39.748  55.296 -55.479  1.00  0.00     0.164 HD
BRANCH  23  27
HETATM   27  C   UNL     1     -39.844  51.969 -53.725  1.00  0.00     0.036 A 
HETATM   28  C   UNL     1     -39.622  52.054 -52.345  1.00  0.00     0.029 A 
HETATM   29  C   UNL     1     -39.520  50.897 -51.569  1.00  0.00     0.002 A 
HETATM   30  C   UNL     1     -39.658  49.646 -52.164  1.00  0.00     0.000 A 
HETATM   31  C   UNL     1     -39.898  49.552 -53.533  1.00  0.00     0.002 A 
HETATM   32  C   UNL     1     -39.989  50.710 -54.311  1.00  0.00     0.029 A 
ENDBRANCH  23  27
ENDBRANCH  20  21
ENDBRANCH   3  20
TORSDOF 7
ENDMDL
MODEL 6
REMARK VINA RESULT:      -7.9      1.798      7.733
REMARK  7 active torsions:
REMARK  status: ('A' for Active; 'I' for Inactive)
REMARK    1  A    between atoms: C_3  and  C_4 
REMARK    2  A    between atoms: C_4  and  N_5 
REMARK       I    between atoms: N_5  and  C_6 
REMARK    3  A    between atoms: C_6  and  C_7 
REMARK    4  A    between atoms: C_7  and  N_8 
REMARK    5  A    between atoms: C_10  and  C_11 
REMARK    6  A    between atoms: C_11  and  N_12 
REMARK       I    between atoms: N_12  and  C_13 
REMARK       I    between atoms: C_13  and  N_14 
REMARK    7  A    between atoms: N_14  and  C_15 
ROOT
HETATM    1  N   UNL     1     -40.120  52.273 -52.122  1.00  0.00    -0.057 N 
HETATM    2  H   UNL     1     -41.124  52.061 -51.938  1.00  0.00     0.281 HD
HETATM    3  C   UNL     1     -40.095  52.762 -53.567  1.00  0.00     0.206 C 
HETATM    4  C   UNL     1     -40.611  51.640 -54.484  1.00  0.00     0.035 C 
HETATM    5  C   UNL     1     -39.854  50.333 -54.282  1.00  0.00     0.004 C 
HETATM    6  C   UNL     1     -39.886  49.908 -52.820  1.00  0.00     0.028 C 
HETATM    7  C   UNL     1     -39.342  51.002 -51.916  1.00  0.00     0.236 C 
ENDROOT
BRANCH   1   8
HETATM    8  C   UNL     1     -39.786  53.312 -51.046  1.00  0.00     0.337 C 
BRANCH   8   9
HETATM    9  C   UNL     1     -40.918  54.272 -50.668  1.00  0.00     0.243 C 
HETATM   10  N   UNL     1     -40.507  55.557 -50.405  1.00  0.00    -0.355 N 
HETATM   11  H   UNL     1     -39.560  55.855 -50.613  1.00  0.00     0.162 HD
HETATM   12  O   UNL     1     -42.091  53.914 -50.594  1.00  0.00    -0.272 OA
BRANCH  10  13
HETATM   13  C   UNL     1     -41.468  56.617 -50.171  1.00  0.00     0.169 C 
BRANCH  13  14
HETATM   14  C   UNL     1     -41.529  57.506 -51.377  1.00  0.00     0.006 A 
HETATM   15  C   UNL     1     -40.732  58.600 -51.691  1.00  0.00    -0.047 A 
HETATM   16  C   UNL     1     -39.616  59.129 -50.848  1.00  0.00     0.049 C 
HETATM   17  C   UNL     1     -41.123  59.183 -52.942  1.00  0.00     0.015 A 
HETATM   18  C   UNL     1     -42.192  58.538 -53.520  1.00  0.00     0.051 A 
HETATM   19  S   UNL     1     -42.744  57.240 -52.566  1.00  0.00    -0.104 SA
ENDBRANCH  13  14
ENDBRANCH  10  13
ENDBRANCH   8   9
ENDBRANCH   1   8
BRANCH   3  20
HETATM   20  C   UNL     1     -40.896  54.077 -53.794  1.00  0.00     0.157 C 
BRANCH  20  21
HETATM   21  N   UNL     1     -41.125  54.562 -55.154  1.00  0.00    -0.341 N 
HETATM   22  C   UNL     1     -42.320  54.943 -55.713  1.00  0.00     0.320 C 
HETATM   23  N   UNL     1     -42.147  55.577 -56.916  1.00  0.00    -0.309 N 
HETATM   24  O   UNL     1     -43.389  54.731 -55.150  1.00  0.00    -0.247 OA
HETATM   25  H   UNL     1     -41.238  55.981 -57.093  1.00  0.00     0.170 HD
HETATM   26  H   UNL     1     -40.299  54.710 -55.721  1.00  0.00     0.164 HD
BRANCH  23  27
HETATM   27  C   UNL     1     -43.164  55.957 -57.818  1.00  0.00     0.036 A 
HETATM   28  C   UNL     1     -43.508  55.048 -58.826  1.00  0.00     0.029 A 
HETATM   29  C   UNL     1     -44.512  55.356 -59.747  1.00  0.00     0.002 A 
HETATM   30  C   UNL     1     -45.194  56.567 -59.656  1.00  0.00     0.000 A 
HETATM   31  C   UNL     1     -44.871  57.468 -58.644  1.00  0.00     0.002 A 
HETATM   32  C   UNL     1     -43.859  57.165 -57.728  1.00  0.00     0.029 A 
ENDBRANCH  23  27
ENDBRANCH  20  21
ENDBRANCH   3  20
TORSDOF 7
ENDMDL
MODEL 7
REMARK VINA RESULT:      -7.7      2.094      2.535
REMARK  7 active torsions:
REMARK  status: ('A' for Active; 'I' for Inactive)
REMARK    1  A    between atoms: C_3  and  C_4 
REMARK    2  A    between atoms: C_4  and  N_5 
REMARK       I    between atoms: N_5  and  C_6 
REMARK    3  A    between atoms: C_6  and  C_7 
REMARK    4  A    between atoms: C_7  and  N_8 
REMARK    5  A    between atoms: C_10  and  C_11 
REMARK    6  A    between atoms: C_11  and  N_12 
REMARK       I    between atoms: N_12  and  C_13 
REMARK       I    between atoms: C_13  and  N_14 
REMARK    7  A    between atoms: N_14  and  C_15 
ROOT
HETATM    1  N   UNL     1     -44.762  57.863 -53.245  1.00  0.00    -0.057 N 
HETATM    2  H   UNL     1     -45.665  57.513 -52.861  1.00  0.00     0.281 HD
HETATM    3  C   UNL     1     -43.876  58.048 -52.017  1.00  0.00     0.206 C 
HETATM    4  C   UNL     1     -44.528  59.080 -51.080  1.00  0.00     0.035 C 
HETATM    5  C   UNL     1     -44.844  60.390 -51.792  1.00  0.00     0.004 C 
HETATM    6  C   UNL     1     -45.704  60.143 -53.024  1.00  0.00     0.028 C 
HETATM    7  C   UNL     1     -45.044  59.152 -53.968  1.00  0.00     0.236 C 
ENDROOT
BRANCH   1   8
HETATM    8  C   UNL     1     -44.352  56.755 -54.220  1.00  0.00     0.337 C 
BRANCH   8   9
HETATM    9  C   UNL     1     -43.658  57.217 -55.505  1.00  0.00     0.243 C 
HETATM   10  N   UNL     1     -44.362  56.950 -56.655  1.00  0.00    -0.355 N 
HETATM   11  H   UNL     1     -45.323  56.630 -56.617  1.00  0.00     0.162 HD
HETATM   12  O   UNL     1     -42.559  57.766 -55.503  1.00  0.00    -0.272 OA
BRANCH  10  13
HETATM   13  C   UNL     1     -43.911  57.448 -57.941  1.00  0.00     0.169 C 
BRANCH  13  14
HETATM   14  C   UNL     1     -44.600  56.689 -59.035  1.00  0.00     0.006 A 
HETATM   15  C   UNL     1     -45.896  56.837 -59.512  1.00  0.00    -0.047 A 
HETATM   16  C   UNL     1     -46.900  57.821 -59.001  1.00  0.00     0.049 C 
HETATM   17  C   UNL     1     -46.169  55.906 -60.569  1.00  0.00     0.015 A 
HETATM   18  C   UNL     1     -45.100  55.086 -60.846  1.00  0.00     0.051 A 
HETATM   19  S   UNL     1     -43.768  55.413 -59.836  1.00  0.00    -0.104 SA
ENDBRANCH  13  14
ENDBRANCH  10  13
ENDBRANCH   8   9
ENDBRANCH   1   8
BRANCH   3  20
HETATM   20  C   UNL     1     -43.576  56.722 -51.259  1.00  0.00     0.157 C 
BRANCH  20  21
HETATM   21  N   UNL     1     -42.361  55.968 -51.568  1.00  0.00    -0.341 N 
HETATM   22  C   UNL     1     -42.274  54.661 -51.980  1.00  0.00     0.320 C 
HETATM   23  N   UNL     1     -41.015  54.343 -52.418  1.00  0.00    -0.309 N 
HETATM   24  O   UNL     1     -43.245  53.913 -51.952  1.00  0.00    -0.247 OA
HETATM   25  H   UNL     1     -40.423  55.110 -52.705  1.00  0.00     0.170 HD
HETATM   26  H   UNL     1     -41.495  56.491 -51.555  1.00  0.00     0.164 HD
BRANCH  23  27
HETATM   27  C   UNL     1     -40.548  53.056 -52.764  1.00  0.00     0.036 A 
HETATM   28  C   UNL     1     -39.987  52.276 -51.745  1.00  0.00     0.029 A 
HETATM   29  C   UNL     1     -39.512  50.991 -52.015  1.00  0.00     0.002 A 
HETATM   30  C   UNL     1     -39.612  50.467 -53.301  1.00  0.00     0.000 A 
HETATM   31  C   UNL     1     -40.186  51.229 -54.316  1.00  0.00     0.002 A 
HETATM   32  C   UNL     1     -40.651  52.520 -54.049  1.00  0.00     0.029 A 
ENDBRANCH  23  27
ENDBRANCH  20  21
ENDBRANCH   3  20
TORSDOF 7
ENDMDL
MODEL 8
REMARK VINA RESULT:      -7.7      3.948      8.716
REMARK  7 active torsions:
REMARK  status: ('A' for Active; 'I' for Inactive)
REMARK    1  A    between atoms: C_3  and  C_4 
REMARK    2  A    between atoms: C_4  and  N_5 
REMARK       I    between atoms: N_5  and  C_6 
REMARK    3  A    between atoms: C_6  and  C_7 
REMARK    4  A    between atoms: C_7  and  N_8 
REMARK    5  A    between atoms: C_10  and  C_11 
REMARK    6  A    between atoms: C_11  and  N_12 
REMARK       I    between atoms: N_12  and  C_13 
REMARK       I    between atoms: C_13  and  N_14 
REMARK    7  A    between atoms: N_14  and  C_15 
ROOT
HETATM    1  N   UNL     1     -43.752  55.653 -52.835  1.00  0.00    -0.057 N 
HETATM    2  H   UNL     1     -44.713  55.261 -52.922  1.00  0.00     0.281 HD
HETATM    3  C   UNL     1     -43.950  57.164 -52.918  1.00  0.00     0.206 C 
HETATM    4  C   UNL     1     -44.580  57.513 -54.277  1.00  0.00     0.035 C 
HETATM    5  C   UNL     1     -43.780  56.950 -55.446  1.00  0.00     0.004 C 
HETATM    6  C   UNL     1     -43.587  55.447 -55.298  1.00  0.00     0.028 C 
HETATM    7  C   UNL     1     -42.931  55.104 -53.970  1.00  0.00     0.236 C 
ENDROOT
BRANCH   1   8
HETATM    8  C   UNL     1     -43.277  55.102 -51.487  1.00  0.00     0.337 C 
BRANCH   8   9
HETATM    9  C   UNL     1     -41.770  54.861 -51.354  1.00  0.00     0.243 C 
HETATM   10  N   UNL     1     -41.404  53.537 -51.381  1.00  0.00    -0.355 N 
HETATM   11  H   UNL     1     -42.070  52.816 -51.634  1.00  0.00     0.162 HD
HETATM   12  O   UNL     1     -40.964  55.779 -51.222  1.00  0.00    -0.272 OA
BRANCH  10  13
HETATM   13  C   UNL     1     -40.007  53.148 -51.408  1.00  0.00     0.169 C 
BRANCH  13  14
HETATM   14  C   UNL     1     -39.852  51.917 -52.251  1.00  0.00     0.006 A 
HETATM   15  C   UNL     1     -39.903  51.800 -53.634  1.00  0.00    -0.047 A 
HETATM   16  C   UNL     1     -40.137  52.925 -54.591  1.00  0.00     0.049 C 
HETATM   17  C   UNL     1     -39.712  50.439 -54.045  1.00  0.00     0.015 A 
HETATM   18  C   UNL     1     -39.541  49.580 -52.984  1.00  0.00     0.051 A 
HETATM   19  S   UNL     1     -39.622  50.391 -51.489  1.00  0.00    -0.104 SA
ENDBRANCH  13  14
ENDBRANCH  10  13
ENDBRANCH   8   9
ENDBRANCH   1   8
BRANCH   3  20
HETATM   20  C   UNL     1     -44.797  57.746 -51.748  1.00  0.00     0.157 C 
BRANCH  20  21
HETATM   21  N   UNL     1     -44.256  58.830 -50.929  1.00  0.00    -0.341 N 
HETATM   22  C   UNL     1     -44.958  59.718 -50.153  1.00  0.00     0.320 C 
HETATM   23  N   UNL     1     -44.137  60.442 -49.328  1.00  0.00    -0.309 N 
HETATM   24  O   UNL     1     -46.180  59.802 -50.218  1.00  0.00    -0.247 OA
HETATM   25  H   UNL     1     -43.228  60.048 -49.129  1.00  0.00     0.170 HD
HETATM   26  H   UNL     1     -43.246  58.880 -50.865  1.00  0.00     0.164 HD
BRANCH  23  27
HETATM   27  C   UNL     1     -44.513  61.535 -48.519  1.00  0.00     0.036 A 
HETATM   28  C   UNL     1     -44.553  62.800 -49.118  1.00  0.00     0.029 A 
HETATM   29  C   UNL     1     -44.926  63.925 -48.378  1.00  0.00     0.002 A 
HETATM   30  C   UNL     1     -45.280  63.791 -47.038  1.00  0.00     0.000 A 
HETATM   31  C   UNL     1     -45.262  62.534 -46.439  1.00  0.00     0.002 A 
HETATM   32  C   UNL     1     -44.878  61.409 -47.177  1.00  0.00     0.029 A 
ENDBRANCH  23  27
ENDBRANCH  20  21
ENDBRANCH   3  20
TORSDOF 7
ENDMDL
MODEL 9
REMARK VINA RESULT:      -7.5      2.416      3.233
REMARK  7 active torsions:
REMARK  status: ('A' for Active; 'I' for Inactive)
REMARK    1  A    between atoms: C_3  and  C_4 
REMARK    2  A    between atoms: C_4  and  N_5 
REMARK       I    between atoms: N_5  and  C_6 
REMARK    3  A    between atoms: C_6  and  C_7 
REMARK    4  A    between atoms: C_7  and  N_8 
REMARK    5  A    between atoms: C_10  and  C_11 
REMARK    6  A    between atoms: C_11  and  N_12 
REMARK       I    between atoms: N_12  and  C_13 
REMARK       I    between atoms: C_13  and  N_14 
REMARK    7  A    between atoms: N_14  and  C_15 
ROOT
HETATM    1  N   UNL     1     -42.969  58.545 -55.915  1.00  0.00    -0.057 N 
HETATM    2  H   UNL     1     -43.754  58.250 -56.532  1.00  0.00     0.281 HD
HETATM    3  C   UNL     1     -42.692  57.324 -55.044  1.00  0.00     0.206 C 
HETATM    4  C   UNL     1     -43.955  56.992 -54.230  1.00  0.00     0.035 C 
HETATM    5  C   UNL     1     -44.461  58.190 -53.436  1.00  0.00     0.004 C 
HETATM    6  C   UNL     1     -44.692  59.387 -54.347  1.00  0.00     0.028 C 
HETATM    7  C   UNL     1     -43.434  59.739 -55.125  1.00  0.00     0.236 C 
ENDROOT
BRANCH   1   8
HETATM    8  C   UNL     1     -41.874  58.932 -56.914  1.00  0.00     0.337 C 
BRANCH   8   9
HETATM    9  C   UNL     1     -42.286  58.940 -58.390  1.00  0.00     0.243 C 
HETATM   10  N   UNL     1     -42.546  57.696 -58.912  1.00  0.00    -0.355 N 
HETATM   11  H   UNL     1     -42.615  56.881 -58.313  1.00  0.00     0.162 HD
HETATM   12  O   UNL     1     -42.362  59.974 -59.048  1.00  0.00    -0.272 OA
BRANCH  10  13
HETATM   13  C   UNL     1     -43.082  57.544 -60.251  1.00  0.00     0.169 C 
BRANCH  13  14
HETATM   14  C   UNL     1     -44.566  57.341 -60.170  1.00  0.00     0.006 A 
HETATM   15  C   UNL     1     -45.276  56.150 -60.077  1.00  0.00    -0.047 A 
HETATM   16  C   UNL     1     -44.672  54.783 -60.044  1.00  0.00     0.049 C 
HETATM   17  C   UNL     1     -46.689  56.393 -60.027  1.00  0.00     0.015 A 
HETATM   18  C   UNL     1     -47.003  57.730 -60.099  1.00  0.00     0.051 A 
HETATM   19  S   UNL     1     -45.614  58.704 -60.240  1.00  0.00    -0.104 SA
ENDBRANCH  13  14
ENDBRANCH  10  13
ENDBRANCH   8   9
ENDBRANCH   1   8
BRANCH   3  20
HETATM   20  C   UNL     1     -42.208  56.082 -55.849  1.00  0.00     0.157 C 
BRANCH  20  21
HETATM   21  N   UNL     1     -41.177  55.210 -55.288  1.00  0.00    -0.341 N 
HETATM   22  C   UNL     1     -41.357  54.005 -54.656  1.00  0.00     0.320 C 
HETATM   23  N   UNL     1     -40.175  53.336 -54.475  1.00  0.00    -0.309 N 
HETATM   24  O   UNL     1     -42.472  53.614 -54.326  1.00  0.00    -0.247 OA
HETATM   25  H   UNL     1     -39.407  53.595 -55.078  1.00  0.00     0.170 HD
HETATM   26  H   UNL     1     -40.217  55.487 -55.457  1.00  0.00     0.164 HD
BRANCH  23  27
HETATM   27  C   UNL     1     -39.987  52.151 -53.731  1.00  0.00     0.036 A 
HETATM   28  C   UNL     1     -40.051  50.935 -54.422  1.00  0.00     0.029 A 
HETATM   29  C   UNL     1     -39.865  49.725 -53.749  1.00  0.00     0.002 A 
HETATM   30  C   UNL     1     -39.596  49.722 -52.383  1.00  0.00     0.000 A 
HETATM   31  C   UNL     1     -39.512  50.928 -51.692  1.00  0.00     0.002 A 
HETATM   32  C   UNL     1     -39.708  52.139 -52.363  1.00  0.00     0.029 A 
ENDBRANCH  23  27
ENDBRANCH  20  21
ENDBRANCH   3  20
TORSDOF 7
ENDMDL
MODEL 10
REMARK VINA RESULT:      -7.4      1.760      2.085
REMARK  7 active torsions:
REMARK  status: ('A' for Active; 'I' for Inactive)
REMARK    1  A    between atoms: C_3  and  C_4 
REMARK    2  A    between atoms: C_4  and  N_5 
REMARK       I    between atoms: N_5  and  C_6 
REMARK    3  A    between atoms: C_6  and  C_7 
REMARK    4  A    between atoms: C_7  and  N_8 
REMARK    5  A    between atoms: C_10  and  C_11 
REMARK    6  A    between atoms: C_11  and  N_12 
REMARK       I    between atoms: N_12  and  C_13 
REMARK       I    between atoms: C_13  and  N_14 
REMARK    7  A    between atoms: N_14  and  C_15 
ROOT
HETATM    1  N   UNL     1     -42.953  59.007 -52.026  1.00  0.00    -0.057 N 
HETATM    2  H   UNL     1     -43.565  58.682 -51.248  1.00  0.00     0.281 HD
HETATM    3  C   UNL     1     -41.771  58.044 -52.006  1.00  0.00     0.206 C 
HETATM    4  C   UNL     1     -41.059  58.152 -50.646  1.00  0.00     0.035 C 
HETATM    5  C   UNL     1     -40.667  59.586 -50.312  1.00  0.00     0.004 C 
HETATM    6  C   UNL     1     -41.876  60.508 -50.376  1.00  0.00     0.028 C 
HETATM    7  C   UNL     1     -42.559  60.429 -51.731  1.00  0.00     0.236 C 
ENDROOT
BRANCH   1   8
HETATM    8  C   UNL     1     -43.877  58.926 -53.245  1.00  0.00     0.337 C 
BRANCH   8   9
HETATM    9  C   UNL     1     -43.193  59.026 -54.612  1.00  0.00     0.243 C 
HETATM   10  N   UNL     1     -43.341  57.912 -55.402  1.00  0.00    -0.355 N 
HETATM   11  H   UNL     1     -43.989  57.174 -55.149  1.00  0.00     0.162 HD
HETATM   12  O   UNL     1     -42.554  60.016 -54.960  1.00  0.00    -0.272 OA
BRANCH  10  13
HETATM   13  C   UNL     1     -42.874  57.902 -56.776  1.00  0.00     0.169 C 
BRANCH  13  14
HETATM   14  C   UNL     1     -44.029  57.620 -57.689  1.00  0.00     0.006 A 
HETATM   15  C   UNL     1     -44.092  56.742 -58.765  1.00  0.00    -0.047 A 
HETATM   16  C   UNL     1     -42.971  55.876 -59.243  1.00  0.00     0.049 C 
HETATM   17  C   UNL     1     -45.386  56.774 -59.383  1.00  0.00     0.015 A 
HETATM   18  C   UNL     1     -46.243  57.667 -58.782  1.00  0.00     0.051 A 
HETATM   19  S   UNL     1     -45.504  58.483 -57.484  1.00  0.00    -0.104 SA
ENDBRANCH  13  14
ENDBRANCH  10  13
ENDBRANCH   8   9
ENDBRANCH   1   8
BRANCH   3  20
HETATM   20  C   UNL     1     -42.164  56.569 -52.310  1.00  0.00     0.157 C 
BRANCH  20  21
HETATM   21  N   UNL     1     -41.135  55.529 -52.318  1.00  0.00    -0.341 N 
HETATM   22  C   UNL     1     -41.323  54.171 -52.386  1.00  0.00     0.320 C 
HETATM   23  N   UNL     1     -40.151  53.501 -52.622  1.00  0.00    -0.309 N 
HETATM   24  O   UNL     1     -42.435  53.670 -52.259  1.00  0.00    -0.247 OA
HETATM   25  H   UNL     1     -39.397  54.030 -53.036  1.00  0.00     0.170 HD
HETATM   26  H   UNL     1     -40.176  55.850 -52.359  1.00  0.00     0.164 HD
BRANCH  23  27
HETATM   27  C   UNL     1     -39.966  52.101 -52.598  1.00  0.00     0.036 A 
HETATM   28  C   UNL     1     -40.026  51.419 -53.819  1.00  0.00     0.029 A 
HETATM   29  C   UNL     1     -39.844  50.036 -53.870  1.00  0.00     0.002 A 
HETATM   30  C   UNL     1     -39.581  49.324 -52.702  1.00  0.00     0.000 A 
HETATM   31  C   UNL     1     -39.501  49.998 -51.485  1.00  0.00     0.002 A 
HETATM   32  C   UNL     1     -39.694  51.381 -51.433  1.00  0.00     0.029 A 
ENDBRANCH  23  27
ENDBRANCH  20  21
ENDBRANCH   3  20
TORSDOF 7
ENDMDL
