MODEL 1
REMARK VINA RESULT:      -9.1      0.000      0.000
REMARK  8 active torsions:
REMARK  status: ('A' for Active; 'I' for Inactive)
REMARK    1  A    between atoms: O_2  and  C_3 
REMARK    2  A    between atoms: C_4  and  N_5 
REMARK       I    between atoms: N_5  and  C_6 
REMARK       I    between atoms: C_6  and  N_7 
REMARK    3  A    between atoms: N_7  and  C_8 
REMARK    4  A    between atoms: C_11  and  C_12 
REMARK    5  A    between atoms: C_12  and  C_13 
REMARK       I    between atoms: C_13  and  N_14 
REMARK    6  A    between atoms: N_14  and  C_15 
REMARK    7  A    between atoms: C_18  and  O_19 
REMARK    8  A    between atoms: O_19  and  C_20 
ROOT
HETATM    1  C   UNL     1     -46.471  57.901 -57.893  1.00  0.00     0.174 A 
HETATM    2  S   UNL     1     -47.191  59.429 -58.141  1.00  0.00    -0.062 SA
HETATM    3  C   UNL     1     -46.142  60.093 -56.959  1.00  0.00     0.081 A 
HETATM    4  C   UNL     1     -45.315  59.110 -56.444  1.00  0.00     0.052 A 
HETATM    5  N   UNL     1     -45.494  57.860 -57.024  1.00  0.00    -0.228 NA
ENDROOT
BRANCH   4   6
HETATM    6  C   UNL     1     -44.257  59.235 -55.398  1.00  0.00     0.163 C 
BRANCH   6   7
HETATM    7  C   UNL     1     -43.138  58.219 -55.557  1.00  0.00     0.227 C 
HETATM    8  N   UNL     1     -43.306  57.079 -54.783  1.00  0.00    -0.327 N 
HETATM    9  H   UNL     1     -44.135  57.036 -54.203  1.00  0.00     0.169 HD
HETATM   10  O   UNL     1     -42.197  58.444 -56.315  1.00  0.00    -0.273 OA
BRANCH   8  11
HETATM   11  C   UNL     1     -42.455  55.953 -54.727  1.00  0.00     0.034 A 
HETATM   12  C   UNL     1     -41.060  56.030 -54.727  1.00  0.00     0.032 A 
HETATM   13  C   UNL     1     -40.282  54.868 -54.686  1.00  0.00     0.039 A 
HETATM   14  C   UNL     1     -40.894  53.619 -54.631  1.00  0.00     0.076 A 
HETATM   15  C   UNL     1     -42.284  53.522 -54.651  1.00  0.00     0.039 A 
HETATM   16  C   UNL     1     -43.060  54.688 -54.684  1.00  0.00     0.032 A 
BRANCH  14  17
HETATM   17  O   UNL     1     -40.082  52.515 -54.669  1.00  0.00    -0.311 OA
BRANCH  17  18
HETATM   18  C   UNL     1     -39.961  51.738 -53.537  1.00  0.00     0.076 A 
HETATM   19  C   UNL     1     -39.768  50.373 -53.768  1.00  0.00     0.037 A 
HETATM   20  C   UNL     1     -39.594  49.494 -52.698  1.00  0.00     0.003 A 
HETATM   21  C   UNL     1     -39.607  49.980 -51.392  1.00  0.00     0.000 A 
HETATM   22  C   UNL     1     -39.784  51.343 -51.157  1.00  0.00     0.003 A 
HETATM   23  C   UNL     1     -39.951  52.225 -52.228  1.00  0.00     0.037 A 
ENDBRANCH  17  18
ENDBRANCH  14  17
ENDBRANCH   8  11
ENDBRANCH   6   7
ENDBRANCH   4   6
BRANCH   1  24
HETATM   24  N   UNL     1     -46.988  56.915 -58.684  1.00  0.00    -0.287 N 
HETATM   25  C   UNL     1     -46.879  56.817 -60.026  1.00  0.00     0.326 C 
HETATM   26  N   UNL     1     -45.857  57.368 -60.722  1.00  0.00    -0.306 N 
HETATM   27  O   UNL     1     -47.787  56.260 -60.651  1.00  0.00    -0.247 OA
HETATM   28  H   UNL     1     -46.112  57.583 -61.675  1.00  0.00     0.171 HD
HETATM   29  H   UNL     1     -47.715  56.354 -58.270  1.00  0.00     0.172 HD
BRANCH  26  30
HETATM   30  C   UNL     1     -44.481  57.454 -60.418  1.00  0.00     0.069 A 
HETATM   31  C   UNL     1     -43.590  56.367 -60.381  1.00  0.00     0.095 A 
HETATM   32  C   UNL     1     -42.250  56.569 -60.030  1.00  0.00     0.039 A 
HETATM   33  C   UNL     1     -41.773  57.856 -59.779  1.00  0.00     0.003 A 
HETATM   34  C   UNL     1     -42.634  58.945 -59.880  1.00  0.00     0.002 A 
HETATM   35  C   UNL     1     -43.977  58.745 -60.206  1.00  0.00     0.032 A 
BRANCH  31  36
HETATM   36  O   UNL     1     -44.028  55.106 -60.697  1.00  0.00    -0.354 OA
HETATM   37  C   UNL     1     -44.377  54.345 -59.542  1.00  0.00     0.210 C 
ENDBRANCH  31  36
ENDBRANCH  26  30
ENDBRANCH   1  24
TORSDOF 8
ENDMDL
MODEL 2
REMARK VINA RESULT:      -8.9      0.930      1.639
REMARK  8 active torsions:
REMARK  status: ('A' for Active; 'I' for Inactive)
REMARK    1  A    between atoms: O_2  and  C_3 
REMARK    2  A    between atoms: C_4  and  N_5 
REMARK       I    between atoms: N_5  and  C_6 
REMARK       I    between atoms: C_6  and  N_7 
REMARK    3  A    between atoms: N_7  and  C_8 
REMARK    4  A    between atoms: C_11  and  C_12 
REMARK    5  A    between atoms: C_12  and  C_13 
REMARK       I    between atoms: C_13  and  N_14 
REMARK    6  A    between atoms: N_14  and  C_15 
REMARK    7  A    between atoms: C_18  and  O_19 
REMARK    8  A    between atoms: O_19  and  C_20 
ROOT
HETATM    1  C   UNL     1     -46.461  57.963 -57.921  1.00  0.00     0.174 A 
HETATM    2  S   UNL     1     -47.272  59.453 -58.113  1.00  0.00    -0.062 SA
HETATM    3  C   UNL     1     -46.197  60.161 -56.980  1.00  0.00     0.081 A 
HETATM    4  C   UNL     1     -45.294  59.218 -56.522  1.00  0.00     0.052 A 
HETATM    5  N   UNL     1     -45.439  57.966 -57.106  1.00  0.00    -0.228 NA
ENDROOT
BRANCH   4   6
HETATM    6  C   UNL     1     -44.189  59.389 -55.531  1.00  0.00     0.163 C 
BRANCH   6   7
HETATM    7  C   UNL     1     -43.092  58.347 -55.678  1.00  0.00     0.227 C 
HETATM    8  N   UNL     1     -43.280  57.225 -54.884  1.00  0.00    -0.327 N 
HETATM    9  H   UNL     1     -44.107  57.208 -54.300  1.00  0.00     0.169 HD
HETATM   10  O   UNL     1     -42.149  58.540 -56.442  1.00  0.00    -0.273 OA
BRANCH   8  11
HETATM   11  C   UNL     1     -42.451  56.083 -54.812  1.00  0.00     0.034 A 
HETATM   12  C   UNL     1     -41.065  56.135 -54.643  1.00  0.00     0.032 A 
HETATM   13  C   UNL     1     -40.309  54.959 -54.597  1.00  0.00     0.039 A 
HETATM   14  C   UNL     1     -40.934  53.721 -54.706  1.00  0.00     0.076 A 
HETATM   15  C   UNL     1     -42.313  53.650 -54.895  1.00  0.00     0.039 A 
HETATM   16  C   UNL     1     -43.069  54.828 -54.932  1.00  0.00     0.032 A 
BRANCH  14  17
HETATM   17  O   UNL     1     -40.133  52.608 -54.729  1.00  0.00    -0.311 OA
BRANCH  17  18
HETATM   18  C   UNL     1     -40.001  51.858 -53.581  1.00  0.00     0.076 A 
HETATM   19  C   UNL     1     -39.784  50.492 -53.782  1.00  0.00     0.037 A 
HETATM   20  C   UNL     1     -39.598  49.639 -52.693  1.00  0.00     0.003 A 
HETATM   21  C   UNL     1     -39.623  50.152 -51.398  1.00  0.00     0.000 A 
HETATM   22  C   UNL     1     -39.823  51.517 -51.192  1.00  0.00     0.003 A 
HETATM   23  C   UNL     1     -40.002  52.373 -52.282  1.00  0.00     0.037 A 
ENDBRANCH  17  18
ENDBRANCH  14  17
ENDBRANCH   8  11
ENDBRANCH   6   7
ENDBRANCH   4   6
BRANCH   1  24
HETATM   24  N   UNL     1     -46.968  56.959 -58.695  1.00  0.00    -0.287 N 
HETATM   25  C   UNL     1     -46.851  56.834 -60.034  1.00  0.00     0.326 C 
HETATM   26  N   UNL     1     -45.827  57.377 -60.735  1.00  0.00    -0.306 N 
HETATM   27  O   UNL     1     -47.752  56.259 -60.654  1.00  0.00    -0.247 OA
HETATM   28  H   UNL     1     -46.077  57.570 -61.694  1.00  0.00     0.171 HD
HETATM   29  H   UNL     1     -47.695  56.403 -58.275  1.00  0.00     0.172 HD
BRANCH  26  30
HETATM   30  C   UNL     1     -44.454  57.476 -60.424  1.00  0.00     0.069 A 
HETATM   31  C   UNL     1     -43.745  58.679 -60.262  1.00  0.00     0.095 A 
HETATM   32  C   UNL     1     -42.371  58.654 -59.990  1.00  0.00     0.039 A 
HETATM   33  C   UNL     1     -41.710  57.438 -59.811  1.00  0.00     0.003 A 
HETATM   34  C   UNL     1     -42.420  56.245 -59.901  1.00  0.00     0.002 A 
HETATM   35  C   UNL     1     -43.784  56.265 -60.198  1.00  0.00     0.032 A 
BRANCH  31  36
HETATM   36  O   UNL     1     -44.395  59.882 -60.363  1.00  0.00    -0.354 OA
HETATM   37  C   UNL     1     -43.664  60.950 -59.763  1.00  0.00     0.210 C 
ENDBRANCH  31  36
ENDBRANCH  26  30
ENDBRANCH   1  24
TORSDOF 8
ENDMDL
MODEL 3
REMARK VINA RESULT:      -8.9      3.212      5.948
REMARK  8 active torsions:
REMARK  status: ('A' for Active; 'I' for Inactive)
REMARK    1  A    between atoms: O_2  and  C_3 
REMARK    2  A    between atoms: C_4  and  N_5 
REMARK       I    between atoms: N_5  and  C_6 
REMARK       I    between atoms: C_6  and  N_7 
REMARK    3  A    between atoms: N_7  and  C_8 
REMARK    4  A    between atoms: C_11  and  C_12 
REMARK    5  A    between atoms: C_12  and  C_13 
REMARK       I    between atoms: C_13  and  N_14 
REMARK    6  A    between atoms: N_14  and  C_15 
REMARK    7  A    between atoms: C_18  and  O_19 
REMARK    8  A    between atoms: O_19  and  C_20 
ROOT
HETATM    1  C   UNL     1     -45.105  59.766 -53.410  1.00  0.00     0.174 A 
HETATM    2  S   UNL     1     -44.133  61.102 -53.839  1.00  0.00    -0.062 SA
HETATM    3  C   UNL     1     -43.860  60.386 -55.372  1.00  0.00     0.081 A 
HETATM    4  C   UNL     1     -44.519  59.172 -55.459  1.00  0.00     0.052 A 
HETATM    5  N   UNL     1     -45.263  58.850 -54.331  1.00  0.00    -0.228 NA
ENDROOT
BRANCH   4   6
HETATM    6  C   UNL     1     -44.556  58.212 -56.602  1.00  0.00     0.163 C 
BRANCH   6   7
HETATM    7  C   UNL     1     -43.399  57.226 -56.590  1.00  0.00     0.227 C 
HETATM    8  N   UNL     1     -43.349  56.441 -55.446  1.00  0.00    -0.327 N 
HETATM    9  H   UNL     1     -44.068  56.596 -54.750  1.00  0.00     0.169 HD
HETATM   10  O   UNL     1     -42.613  57.178 -57.533  1.00  0.00    -0.273 OA
BRANCH   8  11
HETATM   11  C   UNL     1     -42.411  55.427 -55.149  1.00  0.00     0.034 A 
HETATM   12  C   UNL     1     -41.033  55.638 -55.071  1.00  0.00     0.032 A 
HETATM   13  C   UNL     1     -40.164  54.579 -54.787  1.00  0.00     0.039 A 
HETATM   14  C   UNL     1     -40.670  53.301 -54.566  1.00  0.00     0.076 A 
HETATM   15  C   UNL     1     -42.040  53.067 -54.660  1.00  0.00     0.039 A 
HETATM   16  C   UNL     1     -42.908  54.132 -54.936  1.00  0.00     0.032 A 
BRANCH  14  17
HETATM   17  O   UNL     1     -39.765  52.289 -54.367  1.00  0.00    -0.311 OA
BRANCH  17  18
HETATM   18  C   UNL     1     -39.800  51.589 -53.181  1.00  0.00     0.076 A 
HETATM   19  C   UNL     1     -39.623  50.208 -53.299  1.00  0.00     0.037 A 
HETATM   20  C   UNL     1     -39.601  49.400 -52.160  1.00  0.00     0.003 A 
HETATM   21  C   UNL     1     -39.751  49.973 -50.899  1.00  0.00     0.000 A 
HETATM   22  C   UNL     1     -39.912  51.353 -50.775  1.00  0.00     0.003 A 
HETATM   23  C   UNL     1     -39.927  52.164 -51.914  1.00  0.00     0.037 A 
ENDBRANCH  17  18
ENDBRANCH  14  17
ENDBRANCH   8  11
ENDBRANCH   6   7
ENDBRANCH   4   6
BRANCH   1  24
HETATM   24  N   UNL     1     -45.638  59.853 -52.156  1.00  0.00    -0.287 N 
HETATM   25  C   UNL     1     -45.436  58.996 -51.132  1.00  0.00     0.326 C 
HETATM   26  N   UNL     1     -44.323  58.233 -51.023  1.00  0.00    -0.306 N 
HETATM   27  O   UNL     1     -46.335  58.854 -50.297  1.00  0.00    -0.247 OA
HETATM   28  H   UNL     1     -44.486  57.387 -50.495  1.00  0.00     0.171 HD
HETATM   29  H   UNL     1     -46.436  60.459 -52.057  1.00  0.00     0.172 HD
BRANCH  26  30
HETATM   30  C   UNL     1     -42.972  58.536 -51.297  1.00  0.00     0.069 A 
HETATM   31  C   UNL     1     -42.253  59.608 -50.740  1.00  0.00     0.095 A 
HETATM   32  C   UNL     1     -40.923  59.832 -51.117  1.00  0.00     0.039 A 
HETATM   33  C   UNL     1     -40.281  58.957 -51.993  1.00  0.00     0.003 A 
HETATM   34  C   UNL     1     -40.965  57.854 -52.495  1.00  0.00     0.002 A 
HETATM   35  C   UNL     1     -42.299  57.642 -52.142  1.00  0.00     0.032 A 
BRANCH  31  36
HETATM   36  O   UNL     1     -42.848  60.435 -49.821  1.00  0.00    -0.354 OA
HETATM   37  C   UNL     1     -43.065  61.749 -50.331  1.00  0.00     0.210 C 
ENDBRANCH  31  36
ENDBRANCH  26  30
ENDBRANCH   1  24
TORSDOF 8
ENDMDL
MODEL 4
REMARK VINA RESULT:      -8.6      4.185      5.438
REMARK  8 active torsions:
REMARK  status: ('A' for Active; 'I' for Inactive)
REMARK    1  A    between atoms: O_2  and  C_3 
REMARK    2  A    between atoms: C_4  and  N_5 
REMARK       I    between atoms: N_5  and  C_6 
REMARK       I    between atoms: C_6  and  N_7 
REMARK    3  A    between atoms: N_7  and  C_8 
REMARK    4  A    between atoms: C_11  and  C_12 
REMARK    5  A    between atoms: C_12  and  C_13 
REMARK       I    between atoms: C_13  and  N_14 
REMARK    6  A    between atoms: N_14  and  C_15 
REMARK    7  A    between atoms: C_18  and  O_19 
REMARK    8  A    between atoms: O_19  and  C_20 
ROOT
HETATM    1  C   UNL     1     -44.507  60.965 -53.702  1.00  0.00     0.174 A 
HETATM    2  S   UNL     1     -44.077  62.150 -52.551  1.00  0.00    -0.062 SA
HETATM    3  C   UNL     1     -44.401  61.024 -51.300  1.00  0.00     0.081 A 
HETATM    4  C   UNL     1     -44.823  59.820 -51.836  1.00  0.00     0.052 A 
HETATM    5  N   UNL     1     -44.841  59.794 -53.224  1.00  0.00    -0.228 NA
ENDROOT
BRANCH   4   6
HETATM    6  C   UNL     1     -45.215  58.568 -51.121  1.00  0.00     0.163 C 
BRANCH   6   7
HETATM    7  C   UNL     1     -44.395  57.360 -51.544  1.00  0.00     0.227 C 
HETATM    8  N   UNL     1     -43.503  56.926 -50.574  1.00  0.00    -0.327 N 
HETATM    9  H   UNL     1     -43.484  57.441 -49.703  1.00  0.00     0.169 HD
HETATM   10  O   UNL     1     -44.552  56.860 -52.656  1.00  0.00    -0.273 OA
BRANCH   8  11
HETATM   11  C   UNL     1     -42.623  55.823 -50.658  1.00  0.00     0.034 A 
HETATM   12  C   UNL     1     -43.005  54.553 -51.095  1.00  0.00     0.032 A 
HETATM   13  C   UNL     1     -42.079  53.505 -51.136  1.00  0.00     0.039 A 
HETATM   14  C   UNL     1     -40.760  53.723 -50.752  1.00  0.00     0.076 A 
HETATM   15  C   UNL     1     -40.365  54.978 -50.293  1.00  0.00     0.039 A 
HETATM   16  C   UNL     1     -41.292  56.028 -50.262  1.00  0.00     0.032 A 
BRANCH  14  17
HETATM   17  O   UNL     1     -39.917  52.640 -50.741  1.00  0.00    -0.311 OA
BRANCH  17  18
HETATM   18  C   UNL     1     -39.852  51.836 -51.858  1.00  0.00     0.076 A 
HETATM   19  C   UNL     1     -39.617  50.482 -51.604  1.00  0.00     0.037 A 
HETATM   20  C   UNL     1     -39.569  49.565 -52.655  1.00  0.00     0.003 A 
HETATM   21  C   UNL     1     -39.762  50.001 -53.965  1.00  0.00     0.000 A 
HETATM   22  C   UNL     1     -40.012  51.348 -54.222  1.00  0.00     0.003 A 
HETATM   23  C   UNL     1     -40.068  52.266 -53.169  1.00  0.00     0.037 A 
ENDBRANCH  17  18
ENDBRANCH  14  17
ENDBRANCH   8  11
ENDBRANCH   6   7
ENDBRANCH   4   6
BRANCH   1  24
HETATM   24  N   UNL     1     -44.398  61.390 -54.995  1.00  0.00    -0.287 N 
HETATM   25  C   UNL     1     -43.261  61.505 -55.714  1.00  0.00     0.326 C 
HETATM   26  N   UNL     1     -42.155  60.766 -55.460  1.00  0.00    -0.306 N 
HETATM   27  O   UNL     1     -43.206  62.367 -56.596  1.00  0.00    -0.247 OA
HETATM   28  H   UNL     1     -41.307  61.227 -55.759  1.00  0.00     0.171 HD
HETATM   29  H   UNL     1     -45.190  61.893 -55.362  1.00  0.00     0.172 HD
BRANCH  26  30
HETATM   30  C   UNL     1     -42.021  59.410 -55.093  1.00  0.00     0.069 A 
HETATM   31  C   UNL     1     -41.382  58.944 -53.930  1.00  0.00     0.095 A 
HETATM   32  C   UNL     1     -41.278  57.569 -53.689  1.00  0.00     0.039 A 
HETATM   33  C   UNL     1     -41.864  56.653 -54.564  1.00  0.00     0.003 A 
HETATM   34  C   UNL     1     -42.558  57.109 -55.681  1.00  0.00     0.002 A 
HETATM   35  C   UNL     1     -42.642  58.479 -55.938  1.00  0.00     0.032 A 
BRANCH  31  36
HETATM   36  O   UNL     1     -40.865  59.835 -53.024  1.00  0.00    -0.354 OA
HETATM   37  C   UNL     1     -41.106  59.440 -51.674  1.00  0.00     0.210 C 
ENDBRANCH  31  36
ENDBRANCH  26  30
ENDBRANCH   1  24
TORSDOF 8
ENDMDL
MODEL 5
REMARK VINA RESULT:      -8.4      2.741      4.421
REMARK  8 active torsions:
REMARK  status: ('A' for Active; 'I' for Inactive)
REMARK    1  A    between atoms: O_2  and  C_3 
REMARK    2  A    between atoms: C_4  and  N_5 
REMARK       I    between atoms: N_5  and  C_6 
REMARK       I    between atoms: C_6  and  N_7 
REMARK    3  A    between atoms: N_7  and  C_8 
REMARK    4  A    between atoms: C_11  and  C_12 
REMARK    5  A    between atoms: C_12  and  C_13 
REMARK       I    between atoms: C_13  and  N_14 
REMARK    6  A    between atoms: N_14  and  C_15 
REMARK    7  A    between atoms: C_18  and  O_19 
REMARK    8  A    between atoms: O_19  and  C_20 
ROOT
HETATM    1  C   UNL     1     -45.415  58.908 -54.728  1.00  0.00     0.174 A 
HETATM    2  S   UNL     1     -45.172  60.575 -55.001  1.00  0.00    -0.062 SA
HETATM    3  C   UNL     1     -44.668  60.749 -53.372  1.00  0.00     0.081 A 
HETATM    4  C   UNL     1     -44.724  59.529 -52.720  1.00  0.00     0.052 A 
HETATM    5  N   UNL     1     -45.120  58.473 -53.530  1.00  0.00    -0.228 NA
ENDROOT
BRANCH   4   6
HETATM    6  C   UNL     1     -44.382  59.214 -51.301  1.00  0.00     0.163 C 
BRANCH   6   7
HETATM    7  C   UNL     1     -43.172  58.303 -51.168  1.00  0.00     0.227 C 
HETATM    8  N   UNL     1     -43.498  56.978 -50.914  1.00  0.00    -0.327 N 
HETATM    9  H   UNL     1     -44.483  56.752 -50.845  1.00  0.00     0.169 HD
HETATM   10  O   UNL     1     -42.036  58.758 -51.282  1.00  0.00    -0.273 OA
BRANCH   8  11
HETATM   11  C   UNL     1     -42.604  55.894 -50.761  1.00  0.00     0.034 A 
HETATM   12  C   UNL     1     -41.294  56.025 -50.295  1.00  0.00     0.032 A 
HETATM   13  C   UNL     1     -40.462  54.906 -50.185  1.00  0.00     0.039 A 
HETATM   14  C   UNL     1     -40.939  53.645 -50.529  1.00  0.00     0.076 A 
HETATM   15  C   UNL     1     -42.236  53.498 -51.016  1.00  0.00     0.039 A 
HETATM   16  C   UNL     1     -43.070  54.619 -51.117  1.00  0.00     0.032 A 
BRANCH  14  17
HETATM   17  O   UNL     1     -40.055  52.597 -50.473  1.00  0.00    -0.311 OA
BRANCH  17  18
HETATM   18  C   UNL     1     -39.904  51.792 -51.581  1.00  0.00     0.076 A 
HETATM   19  C   UNL     1     -39.675  50.441 -51.309  1.00  0.00     0.037 A 
HETATM   20  C   UNL     1     -39.545  49.523 -52.353  1.00  0.00     0.003 A 
HETATM   21  C   UNL     1     -39.649  49.956 -53.674  1.00  0.00     0.000 A 
HETATM   22  C   UNL     1     -39.893  51.301 -53.950  1.00  0.00     0.003 A 
HETATM   23  C   UNL     1     -40.030  52.219 -52.905  1.00  0.00     0.037 A 
ENDBRANCH  17  18
ENDBRANCH  14  17
ENDBRANCH   8  11
ENDBRANCH   6   7
ENDBRANCH   4   6
BRANCH   1  24
HETATM   24  N   UNL     1     -45.849  58.228 -55.830  1.00  0.00    -0.287 N 
HETATM   25  C   UNL     1     -45.118  57.906 -56.918  1.00  0.00     0.326 C 
HETATM   26  N   UNL     1     -43.773  57.755 -56.881  1.00  0.00    -0.306 N 
HETATM   27  O   UNL     1     -45.694  57.812 -58.007  1.00  0.00    -0.247 OA
HETATM   28  H   UNL     1     -43.341  57.937 -57.775  1.00  0.00     0.171 HD
HETATM   29  H   UNL     1     -46.847  58.181 -55.954  1.00  0.00     0.172 HD
BRANCH  26  30
HETATM   30  C   UNL     1     -42.943  57.165 -55.904  1.00  0.00     0.069 A 
HETATM   31  C   UNL     1     -42.008  57.855 -55.112  1.00  0.00     0.095 A 
HETATM   32  C   UNL     1     -41.211  57.156 -54.198  1.00  0.00     0.039 A 
HETATM   33  C   UNL     1     -41.383  55.783 -54.016  1.00  0.00     0.003 A 
HETATM   34  C   UNL     1     -42.355  55.106 -54.747  1.00  0.00     0.002 A 
HETATM   35  C   UNL     1     -43.134  55.795 -55.679  1.00  0.00     0.032 A 
BRANCH  31  36
HETATM   36  O   UNL     1     -41.878  59.216 -55.226  1.00  0.00    -0.354 OA
HETATM   37  C   UNL     1     -41.345  59.813 -54.046  1.00  0.00     0.210 C 
ENDBRANCH  31  36
ENDBRANCH  26  30
ENDBRANCH   1  24
TORSDOF 8
ENDMDL
MODEL 6
REMARK VINA RESULT:      -8.2      1.586      2.107
REMARK  8 active torsions:
REMARK  status: ('A' for Active; 'I' for Inactive)
REMARK    1  A    between atoms: O_2  and  C_3 
REMARK    2  A    between atoms: C_4  and  N_5 
REMARK       I    between atoms: N_5  and  C_6 
REMARK       I    between atoms: C_6  and  N_7 
REMARK    3  A    between atoms: N_7  and  C_8 
REMARK    4  A    between atoms: C_11  and  C_12 
REMARK    5  A    between atoms: C_12  and  C_13 
REMARK       I    between atoms: C_13  and  N_14 
REMARK    6  A    between atoms: N_14  and  C_15 
REMARK    7  A    between atoms: C_18  and  O_19 
REMARK    8  A    between atoms: O_19  and  C_20 
ROOT
HETATM    1  C   UNL     1     -45.195  59.843 -58.233  1.00  0.00     0.174 A 
HETATM    2  S   UNL     1     -43.805  60.794 -57.955  1.00  0.00    -0.062 SA
HETATM    3  C   UNL     1     -43.699  60.142 -56.373  1.00  0.00     0.081 A 
HETATM    4  C   UNL     1     -44.732  59.247 -56.153  1.00  0.00     0.052 A 
HETATM    5  N   UNL     1     -45.562  59.060 -57.251  1.00  0.00    -0.228 NA
ENDROOT
BRANCH   4   6
HETATM    6  C   UNL     1     -45.031  58.454 -54.923  1.00  0.00     0.163 C 
BRANCH   6   7
HETATM    7  C   UNL     1     -43.852  57.617 -54.453  1.00  0.00     0.227 C 
HETATM    8  N   UNL     1     -43.696  56.431 -55.156  1.00  0.00    -0.327 N 
HETATM    9  H   UNL     1     -44.363  56.242 -55.894  1.00  0.00     0.169 HD
HETATM   10  O   UNL     1     -43.142  58.008 -53.530  1.00  0.00    -0.273 OA
BRANCH   8  11
HETATM   11  C   UNL     1     -42.689  55.457 -54.971  1.00  0.00     0.034 A 
HETATM   12  C   UNL     1     -41.330  55.687 -55.201  1.00  0.00     0.032 A 
HETATM   13  C   UNL     1     -40.393  54.667 -55.010  1.00  0.00     0.039 A 
HETATM   14  C   UNL     1     -40.805  53.411 -54.575  1.00  0.00     0.076 A 
HETATM   15  C   UNL     1     -42.158  53.157 -54.360  1.00  0.00     0.039 A 
HETATM   16  C   UNL     1     -43.094  54.183 -54.543  1.00  0.00     0.032 A 
BRANCH  14  17
HETATM   17  O   UNL     1     -39.851  52.430 -54.479  1.00  0.00    -0.311 OA
BRANCH  17  18
HETATM   18  C   UNL     1     -39.816  51.645 -53.348  1.00  0.00     0.076 A 
HETATM   19  C   UNL     1     -39.678  50.273 -53.579  1.00  0.00     0.037 A 
HETATM   20  C   UNL     1     -39.592  49.382 -52.507  1.00  0.00     0.003 A 
HETATM   21  C   UNL     1     -39.638  49.863 -51.200  1.00  0.00     0.000 A 
HETATM   22  C   UNL     1     -39.760  51.232 -50.964  1.00  0.00     0.003 A 
HETATM   23  C   UNL     1     -39.839  52.125 -52.036  1.00  0.00     0.037 A 
ENDBRANCH  17  18
ENDBRANCH  14  17
ENDBRANCH   8  11
ENDBRANCH   6   7
ENDBRANCH   4   6
BRANCH   1  24
HETATM   24  N   UNL     1     -45.723  59.993 -59.483  1.00  0.00    -0.287 N 
HETATM   25  C   UNL     1     -45.133  59.664 -60.653  1.00  0.00     0.326 C 
HETATM   26  N   UNL     1     -44.183  58.705 -60.751  1.00  0.00    -0.306 N 
HETATM   27  O   UNL     1     -45.424  60.314 -61.662  1.00  0.00    -0.247 OA
HETATM   28  H   UNL     1     -43.563  58.856 -61.534  1.00  0.00     0.171 HD
HETATM   29  H   UNL     1     -46.504  60.624 -59.559  1.00  0.00     0.172 HD
BRANCH  26  30
HETATM   30  C   UNL     1     -44.079  57.448 -60.117  1.00  0.00     0.069 A 
HETATM   31  C   UNL     1     -44.965  56.373 -60.300  1.00  0.00     0.095 A 
HETATM   32  C   UNL     1     -44.782  55.182 -59.586  1.00  0.00     0.039 A 
HETATM   33  C   UNL     1     -43.682  55.029 -58.741  1.00  0.00     0.003 A 
HETATM   34  C   UNL     1     -42.762  56.064 -58.608  1.00  0.00     0.002 A 
HETATM   35  C   UNL     1     -42.955  57.263 -59.299  1.00  0.00     0.032 A 
BRANCH  31  36
HETATM   36  O   UNL     1     -46.010  56.482 -61.182  1.00  0.00    -0.354 OA
HETATM   37  C   UNL     1     -47.266  56.634 -60.524  1.00  0.00     0.210 C 
ENDBRANCH  31  36
ENDBRANCH  26  30
ENDBRANCH   1  24
TORSDOF 8
ENDMDL
MODEL 7
REMARK VINA RESULT:      -7.9      2.473      4.974
REMARK  8 active torsions:
REMARK  status: ('A' for Active; 'I' for Inactive)
REMARK    1  A    between atoms: O_2  and  C_3 
REMARK    2  A    between atoms: C_4  and  N_5 
REMARK       I    between atoms: N_5  and  C_6 
REMARK       I    between atoms: C_6  and  N_7 
REMARK    3  A    between atoms: N_7  and  C_8 
REMARK    4  A    between atoms: C_11  and  C_12 
REMARK    5  A    between atoms: C_12  and  C_13 
REMARK       I    between atoms: C_13  and  N_14 
REMARK    6  A    between atoms: N_14  and  C_15 
REMARK    7  A    between atoms: C_18  and  O_19 
REMARK    8  A    between atoms: O_19  and  C_20 
ROOT
HETATM    1  C   UNL     1     -44.904  60.618 -57.219  1.00  0.00     0.174 A 
HETATM    2  S   UNL     1     -43.410  61.063 -57.915  1.00  0.00    -0.062 SA
HETATM    3  C   UNL     1     -43.235  59.466 -58.513  1.00  0.00     0.081 A 
HETATM    4  C   UNL     1     -44.321  58.693 -58.140  1.00  0.00     0.052 A 
HETATM    5  N   UNL     1     -45.290  59.386 -57.427  1.00  0.00    -0.228 NA
ENDROOT
BRANCH   4   6
HETATM    6  C   UNL     1     -44.585  57.253 -58.436  1.00  0.00     0.163 C 
BRANCH   6   7
HETATM    7  C   UNL     1     -43.604  56.315 -57.751  1.00  0.00     0.227 C 
HETATM    8  N   UNL     1     -43.597  56.429 -56.368  1.00  0.00    -0.327 N 
HETATM    9  H   UNL     1     -44.229  57.106 -55.960  1.00  0.00     0.169 HD
HETATM   10  O   UNL     1     -42.906  55.551 -58.416  1.00  0.00    -0.273 OA
BRANCH   8  11
HETATM   11  C   UNL     1     -42.816  55.685 -55.455  1.00  0.00     0.034 A 
HETATM   12  C   UNL     1     -43.339  54.731 -54.579  1.00  0.00     0.032 A 
HETATM   13  C   UNL     1     -42.504  54.045 -53.691  1.00  0.00     0.039 A 
HETATM   14  C   UNL     1     -41.136  54.298 -53.682  1.00  0.00     0.076 A 
HETATM   15  C   UNL     1     -40.599  55.260 -54.535  1.00  0.00     0.039 A 
HETATM   16  C   UNL     1     -41.436  55.939 -55.429  1.00  0.00     0.032 A 
BRANCH  14  17
HETATM   17  O   UNL     1     -40.379  53.650 -52.739  1.00  0.00    -0.311 OA
BRANCH  17  18
HETATM   18  C   UNL     1     -40.104  52.311 -52.912  1.00  0.00     0.076 A 
HETATM   19  C   UNL     1     -39.807  51.608 -51.741  1.00  0.00     0.037 A 
HETATM   20  C   UNL     1     -39.549  50.237 -51.787  1.00  0.00     0.003 A 
HETATM   21  C   UNL     1     -39.593  49.563 -53.007  1.00  0.00     0.000 A 
HETATM   22  C   UNL     1     -39.904  50.258 -54.176  1.00  0.00     0.003 A 
HETATM   23  C   UNL     1     -40.170  51.629 -54.129  1.00  0.00     0.037 A 
ENDBRANCH  17  18
ENDBRANCH  14  17
ENDBRANCH   8  11
ENDBRANCH   6   7
ENDBRANCH   4   6
BRANCH   1  24
HETATM   24  N   UNL     1     -45.532  61.640 -56.566  1.00  0.00    -0.287 N 
HETATM   25  C   UNL     1     -46.162  61.568 -55.373  1.00  0.00     0.326 C 
HETATM   26  N   UNL     1     -45.849  60.647 -54.432  1.00  0.00    -0.306 N 
HETATM   27  O   UNL     1     -47.109  62.332 -55.161  1.00  0.00    -0.247 OA
HETATM   28  H   UNL     1     -46.627  60.439 -53.823  1.00  0.00     0.171 HD
HETATM   29  H   UNL     1     -45.761  62.446 -57.124  1.00  0.00     0.172 HD
BRANCH  26  30
HETATM   30  C   UNL     1     -44.595  60.141 -54.024  1.00  0.00     0.069 A 
HETATM   31  C   UNL     1     -43.402  60.882 -53.968  1.00  0.00     0.095 A 
HETATM   32  C   UNL     1     -42.208  60.262 -53.582  1.00  0.00     0.039 A 
HETATM   33  C   UNL     1     -42.204  58.925 -53.185  1.00  0.00     0.003 A 
HETATM   34  C   UNL     1     -43.394  58.203 -53.172  1.00  0.00     0.002 A 
HETATM   35  C   UNL     1     -44.583  58.811 -53.581  1.00  0.00     0.032 A 
BRANCH  31  36
HETATM   36  O   UNL     1     -43.403  62.217 -54.285  1.00  0.00    -0.354 OA
HETATM   37  C   UNL     1     -43.312  63.051 -53.131  1.00  0.00     0.210 C 
ENDBRANCH  31  36
ENDBRANCH  26  30
ENDBRANCH   1  24
TORSDOF 8
ENDMDL
MODEL 8
REMARK VINA RESULT:      -7.7      4.585      6.839
REMARK  8 active torsions:
REMARK  status: ('A' for Active; 'I' for Inactive)
REMARK    1  A    between atoms: O_2  and  C_3 
REMARK    2  A    between atoms: C_4  and  N_5 
REMARK       I    between atoms: N_5  and  C_6 
REMARK       I    between atoms: C_6  and  N_7 
REMARK    3  A    between atoms: N_7  and  C_8 
REMARK    4  A    between atoms: C_11  and  C_12 
REMARK    5  A    between atoms: C_12  and  C_13 
REMARK       I    between atoms: C_13  and  N_14 
REMARK    6  A    between atoms: N_14  and  C_15 
REMARK    7  A    between atoms: C_18  and  O_19 
REMARK    8  A    between atoms: O_19  and  C_20 
ROOT
HETATM    1  C   UNL     1     -45.358  60.409 -53.045  1.00  0.00     0.174 A 
HETATM    2  S   UNL     1     -45.691  61.989 -53.596  1.00  0.00    -0.062 SA
HETATM    3  C   UNL     1     -44.332  61.892 -54.636  1.00  0.00     0.081 A 
HETATM    4  C   UNL     1     -43.705  60.666 -54.493  1.00  0.00     0.052 A 
HETATM    5  N   UNL     1     -44.335  59.810 -53.599  1.00  0.00    -0.228 NA
ENDROOT
BRANCH   4   6
HETATM    6  C   UNL     1     -42.490  60.153 -55.193  1.00  0.00     0.163 C 
BRANCH   6   7
HETATM    7  C   UNL     1     -41.709  59.143 -54.368  1.00  0.00     0.227 C 
HETATM    8  N   UNL     1     -42.296  57.886 -54.326  1.00  0.00    -0.327 N 
HETATM    9  H   UNL     1     -43.162  57.766 -54.836  1.00  0.00     0.169 HD
HETATM   10  O   UNL     1     -40.664  59.470 -53.810  1.00  0.00    -0.273 OA
BRANCH   8  11
HETATM   11  C   UNL     1     -41.805  56.738 -53.664  1.00  0.00     0.034 A 
HETATM   12  C   UNL     1     -42.189  56.356 -52.377  1.00  0.00     0.032 A 
HETATM   13  C   UNL     1     -41.647  55.213 -51.780  1.00  0.00     0.039 A 
HETATM   14  C   UNL     1     -40.726  54.434 -52.473  1.00  0.00     0.076 A 
HETATM   15  C   UNL     1     -40.315  54.810 -53.751  1.00  0.00     0.039 A 
HETATM   16  C   UNL     1     -40.866  55.950 -54.348  1.00  0.00     0.032 A 
BRANCH  14  17
HETATM   17  O   UNL     1     -40.173  53.368 -51.809  1.00  0.00    -0.311 OA
BRANCH  17  18
HETATM   18  C   UNL     1     -40.090  52.153 -52.454  1.00  0.00     0.076 A 
HETATM   19  C   UNL     1     -40.564  52.142 -53.768  1.00  0.00     0.037 A 
HETATM   20  C   UNL     1     -40.495  50.976 -54.533  1.00  0.00     0.003 A 
HETATM   21  C   UNL     1     -39.946  49.819 -53.985  1.00  0.00     0.000 A 
HETATM   22  C   UNL     1     -39.457  49.829 -52.679  1.00  0.00     0.003 A 
HETATM   23  C   UNL     1     -39.519  50.998 -51.915  1.00  0.00     0.037 A 
ENDBRANCH  17  18
ENDBRANCH  14  17
ENDBRANCH   8  11
ENDBRANCH   6   7
ENDBRANCH   4   6
BRANCH   1  24
HETATM   24  N   UNL     1     -46.249  59.952 -52.115  1.00  0.00    -0.287 N 
HETATM   25  C   UNL     1     -45.961  59.510 -50.872  1.00  0.00     0.326 C 
HETATM   26  N   UNL     1     -44.864  59.909 -50.187  1.00  0.00    -0.306 N 
HETATM   27  O   UNL     1     -46.696  58.655 -50.367  1.00  0.00    -0.247 OA
HETATM   28  H   UNL     1     -44.563  59.223 -49.510  1.00  0.00     0.171 HD
HETATM   29  H   UNL     1     -47.155  59.688 -52.465  1.00  0.00     0.172 HD
BRANCH  26  30
HETATM   30  C   UNL     1     -44.252  61.177 -50.093  1.00  0.00     0.069 A 
HETATM   31  C   UNL     1     -42.952  61.484 -50.532  1.00  0.00     0.095 A 
HETATM   32  C   UNL     1     -42.436  62.773 -50.351  1.00  0.00     0.039 A 
HETATM   33  C   UNL     1     -43.228  63.779 -49.797  1.00  0.00     0.003 A 
HETATM   34  C   UNL     1     -44.539  63.500 -49.424  1.00  0.00     0.002 A 
HETATM   35  C   UNL     1     -45.049  62.209 -49.578  1.00  0.00     0.032 A 
BRANCH  31  36
HETATM   36  O   UNL     1     -42.186  60.525 -51.145  1.00  0.00    -0.354 OA
HETATM   37  C   UNL     1     -41.161  60.018 -50.292  1.00  0.00     0.210 C 
ENDBRANCH  31  36
ENDBRANCH  26  30
ENDBRANCH   1  24
TORSDOF 8
ENDMDL
MODEL 9
REMARK VINA RESULT:      -7.7      4.018     10.080
REMARK  8 active torsions:
REMARK  status: ('A' for Active; 'I' for Inactive)
REMARK    1  A    between atoms: O_2  and  C_3 
REMARK    2  A    between atoms: C_4  and  N_5 
REMARK       I    between atoms: N_5  and  C_6 
REMARK       I    between atoms: C_6  and  N_7 
REMARK    3  A    between atoms: N_7  and  C_8 
REMARK    4  A    between atoms: C_11  and  C_12 
REMARK    5  A    between atoms: C_12  and  C_13 
REMARK       I    between atoms: C_13  and  N_14 
REMARK    6  A    between atoms: N_14  and  C_15 
REMARK    7  A    between atoms: C_18  and  O_19 
REMARK    8  A    between atoms: O_19  and  C_20 
ROOT
HETATM    1  C   UNL     1     -42.776  56.772 -53.066  1.00  0.00     0.174 A 
HETATM    2  S   UNL     1     -41.106  57.124 -53.084  1.00  0.00    -0.062 SA
HETATM    3  C   UNL     1     -41.058  56.717 -54.749  1.00  0.00     0.081 A 
HETATM    4  C   UNL     1     -42.315  56.332 -55.185  1.00  0.00     0.052 A 
HETATM    5  N   UNL     1     -43.299  56.407 -54.208  1.00  0.00    -0.228 NA
ENDROOT
BRANCH   4   6
HETATM    6  C   UNL     1     -42.734  55.894 -56.550  1.00  0.00     0.163 C 
BRANCH   6   7
HETATM    7  C   UNL     1     -43.100  57.054 -57.461  1.00  0.00     0.227 C 
HETATM    8  N   UNL     1     -42.002  57.685 -58.028  1.00  0.00    -0.327 N 
HETATM    9  H   UNL     1     -41.088  57.321 -57.788  1.00  0.00     0.169 HD
HETATM   10  O   UNL     1     -44.278  57.359 -57.637  1.00  0.00    -0.273 OA
BRANCH   8  11
HETATM   11  C   UNL     1     -42.015  58.774 -58.929  1.00  0.00     0.034 A 
HETATM   12  C   UNL     1     -41.957  58.637 -60.318  1.00  0.00     0.032 A 
HETATM   13  C   UNL     1     -41.958  59.765 -61.145  1.00  0.00     0.039 A 
HETATM   14  C   UNL     1     -42.031  61.039 -60.590  1.00  0.00     0.076 A 
HETATM   15  C   UNL     1     -42.070  61.195 -59.205  1.00  0.00     0.039 A 
HETATM   16  C   UNL     1     -42.077  60.064 -58.380  1.00  0.00     0.032 A 
BRANCH  14  17
HETATM   17  O   UNL     1     -41.953  62.107 -61.446  1.00  0.00    -0.311 OA
BRANCH  17  18
HETATM   18  C   UNL     1     -40.721  62.674 -61.693  1.00  0.00     0.076 A 
HETATM   19  C   UNL     1     -40.338  62.705 -63.037  1.00  0.00     0.037 A 
HETATM   20  C   UNL     1     -39.127  63.289 -63.412  1.00  0.00     0.003 A 
HETATM   21  C   UNL     1     -38.298  63.850 -62.443  1.00  0.00     0.000 A 
HETATM   22  C   UNL     1     -38.683  63.836 -61.103  1.00  0.00     0.003 A 
HETATM   23  C   UNL     1     -39.899  63.257 -60.727  1.00  0.00     0.037 A 
ENDBRANCH  17  18
ENDBRANCH  14  17
ENDBRANCH   8  11
ENDBRANCH   6   7
ENDBRANCH   4   6
BRANCH   1  24
HETATM   24  N   UNL     1     -43.365  56.966 -51.850  1.00  0.00    -0.287 N 
HETATM   25  C   UNL     1     -43.949  56.025 -51.077  1.00  0.00     0.326 C 
HETATM   26  N   UNL     1     -43.611  54.716 -51.133  1.00  0.00    -0.306 N 
HETATM   27  O   UNL     1     -44.878  56.365 -50.336  1.00  0.00    -0.247 OA
HETATM   28  H   UNL     1     -44.368  54.110 -50.848  1.00  0.00     0.171 HD
HETATM   29  H   UNL     1     -43.606  57.917 -51.623  1.00  0.00     0.172 HD
BRANCH  26  30
HETATM   30  C   UNL     1     -42.349  54.099 -51.276  1.00  0.00     0.069 A 
HETATM   31  C   UNL     1     -41.390  53.972 -50.256  1.00  0.00     0.095 A 
HETATM   32  C   UNL     1     -40.154  53.372 -50.526  1.00  0.00     0.039 A 
HETATM   33  C   UNL     1     -39.891  52.835 -51.786  1.00  0.00     0.003 A 
HETATM   34  C   UNL     1     -40.862  52.895 -52.781  1.00  0.00     0.002 A 
HETATM   35  C   UNL     1     -42.086  53.516 -52.524  1.00  0.00     0.032 A 
BRANCH  31  36
HETATM   36  O   UNL     1     -41.662  54.429 -48.992  1.00  0.00    -0.354 OA
HETATM   37  C   UNL     1     -40.613  54.140 -48.070  1.00  0.00     0.210 C 
ENDBRANCH  31  36
ENDBRANCH  26  30
ENDBRANCH   1  24
TORSDOF 8
ENDMDL
MODEL 10
REMARK VINA RESULT:      -7.6      2.238      3.484
REMARK  8 active torsions:
REMARK  status: ('A' for Active; 'I' for Inactive)
REMARK    1  A    between atoms: O_2  and  C_3 
REMARK    2  A    between atoms: C_4  and  N_5 
REMARK       I    between atoms: N_5  and  C_6 
REMARK       I    between atoms: C_6  and  N_7 
REMARK    3  A    between atoms: N_7  and  C_8 
REMARK    4  A    between atoms: C_11  and  C_12 
REMARK    5  A    between atoms: C_12  and  C_13 
REMARK       I    between atoms: C_13  and  N_14 
REMARK    6  A    between atoms: N_14  and  C_15 
REMARK    7  A    between atoms: C_18  and  O_19 
REMARK    8  A    between atoms: O_19  and  C_20 
ROOT
HETATM    1  C   UNL     1     -42.739  60.095 -58.963  1.00  0.00     0.174 A 
HETATM    2  S   UNL     1     -43.904  61.199 -59.543  1.00  0.00    -0.062 SA
HETATM    3  C   UNL     1     -43.968  61.920 -57.989  1.00  0.00     0.081 A 
HETATM    4  C   UNL     1     -43.104  61.270 -57.124  1.00  0.00     0.052 A 
HETATM    5  N   UNL     1     -42.376  60.245 -57.715  1.00  0.00    -0.228 NA
ENDROOT
BRANCH   4   6
HETATM    6  C   UNL     1     -42.840  61.556 -55.682  1.00  0.00     0.163 C 
BRANCH   6   7
HETATM    7  C   UNL     1     -43.080  60.353 -54.783  1.00  0.00     0.227 C 
HETATM    8  N   UNL     1     -42.264  59.269 -55.074  1.00  0.00    -0.327 N 
HETATM    9  H   UNL     1     -41.605  59.381 -55.835  1.00  0.00     0.169 HD
HETATM   10  O   UNL     1     -43.934  60.397 -53.900  1.00  0.00    -0.273 OA
BRANCH   8  11
HETATM   11  C   UNL     1     -42.233  58.023 -54.409  1.00  0.00     0.034 A 
HETATM   12  C   UNL     1     -43.251  57.069 -54.493  1.00  0.00     0.032 A 
HETATM   13  C   UNL     1     -43.156  55.863 -53.791  1.00  0.00     0.039 A 
HETATM   14  C   UNL     1     -42.036  55.594 -53.011  1.00  0.00     0.076 A 
HETATM   15  C   UNL     1     -41.020  56.542 -52.899  1.00  0.00     0.039 A 
HETATM   16  C   UNL     1     -41.114  57.745 -53.609  1.00  0.00     0.032 A 
BRANCH  14  17
HETATM   17  O   UNL     1     -42.034  54.428 -52.288  1.00  0.00    -0.311 OA
BRANCH  17  18
HETATM   18  C   UNL     1     -41.199  53.404 -52.678  1.00  0.00     0.076 A 
HETATM   19  C   UNL     1     -40.393  52.874 -51.667  1.00  0.00     0.037 A 
HETATM   20  C   UNL     1     -39.534  51.807 -51.937  1.00  0.00     0.003 A 
HETATM   21  C   UNL     1     -39.484  51.263 -53.219  1.00  0.00     0.000 A 
HETATM   22  C   UNL     1     -40.298  51.778 -54.227  1.00  0.00     0.003 A 
HETATM   23  C   UNL     1     -41.163  52.842 -53.957  1.00  0.00     0.037 A 
ENDBRANCH  17  18
ENDBRANCH  14  17
ENDBRANCH   8  11
ENDBRANCH   6   7
ENDBRANCH   4   6
BRANCH   1  24
HETATM   24  N   UNL     1     -42.298  59.215 -59.908  1.00  0.00    -0.287 N 
HETATM   25  C   UNL     1     -42.281  57.868 -59.811  1.00  0.00     0.326 C 
HETATM   26  N   UNL     1     -43.131  57.179 -59.015  1.00  0.00    -0.306 N 
HETATM   27  O   UNL     1     -41.408  57.244 -60.424  1.00  0.00    -0.247 OA
HETATM   28  H   UNL     1     -42.750  56.290 -58.723  1.00  0.00     0.171 HD
HETATM   29  H   UNL     1     -41.710  59.600 -60.629  1.00  0.00     0.172 HD
BRANCH  26  30
HETATM   30  C   UNL     1     -44.502  57.379 -58.746  1.00  0.00     0.069 A 
HETATM   31  C   UNL     1     -45.559  56.980 -59.582  1.00  0.00     0.095 A 
HETATM   32  C   UNL     1     -46.883  57.267 -59.227  1.00  0.00     0.039 A 
HETATM   33  C   UNL     1     -47.168  57.890 -58.012  1.00  0.00     0.003 A 
HETATM   34  C   UNL     1     -46.131  58.226 -57.147  1.00  0.00     0.002 A 
HETATM   35  C   UNL     1     -44.808  57.965 -57.509  1.00  0.00     0.032 A 
BRANCH  31  36
HETATM   36  O   UNL     1     -45.299  56.301 -60.746  1.00  0.00    -0.354 OA
HETATM   37  C   UNL     1     -45.176  54.895 -60.541  1.00  0.00     0.210 C 
ENDBRANCH  31  36
ENDBRANCH  26  30
ENDBRANCH   1  24
TORSDOF 8
ENDMDL
