MODEL 1
REMARK VINA RESULT:      -8.4      0.000      0.000
REMARK  7 active torsions:
REMARK  status: ('A' for Active; 'I' for Inactive)
REMARK       I    between atoms: C_2  and  N_3 
REMARK    1  A    between atoms: N_3  and  C_4 
REMARK    2  A    between atoms: C_7  and  N_8 
REMARK       I    between atoms: N_8  and  C_9 
REMARK    3  A    between atoms: C_9  and  C_10 
REMARK    4  A    between atoms: C_11  and  C_12 
REMARK    5  A    between atoms: C_13  and  O_14 
REMARK    6  A    between atoms: N_20  and  C_21 
REMARK    7  A    between atoms: C_24  and  O_25 
ROOT
HETATM    1  C   UNL     1     -42.645  57.380 -52.280  1.00  0.00     0.106 C 
HETATM    2  C   UNL     1     -42.962  56.863 -53.693  1.00  0.00     0.142 C 
HETATM    3  N   UNL     1     -42.918  57.934 -54.729  1.00  0.00    -0.308 N 
HETATM    4  C   UNL     1     -41.923  58.924 -54.684  1.00  0.00     0.225 C 
HETATM    5  O   UNL     1     -41.537  59.576 -55.654  1.00  0.00    -0.273 OA
HETATM    6  C   UNL     1     -41.378  59.298 -53.316  1.00  0.00     0.104 C 
HETATM    7  C   UNL     1     -41.367  58.206 -52.270  1.00  0.00     0.026 C 
ENDROOT
BRANCH   1   8
HETATM    8  C   UNL     1     -43.801  58.142 -51.620  1.00  0.00     0.228 C 
HETATM    9  N   UNL     1     -43.724  59.520 -51.704  1.00  0.00    -0.327 N 
HETATM   10  H   UNL     1     -43.099  59.913 -52.397  1.00  0.00     0.169 HD
HETATM   11  O   UNL     1     -44.648  57.515 -50.988  1.00  0.00    -0.273 OA
BRANCH   9  12
HETATM   12  C   UNL     1     -44.402  60.466 -50.907  1.00  0.00     0.034 A 
HETATM   13  C   UNL     1     -45.683  60.943 -51.178  1.00  0.00     0.032 A 
HETATM   14  C   UNL     1     -46.331  61.804 -50.278  1.00  0.00     0.032 A 
HETATM   15  C   UNL     1     -45.710  62.199 -49.096  1.00  0.00     0.034 A 
HETATM   16  C   UNL     1     -44.411  61.746 -48.840  1.00  0.00     0.032 A 
HETATM   17  C   UNL     1     -43.763  60.887 -49.736  1.00  0.00     0.032 A 
BRANCH  15  18
HETATM   18  N   UNL     1     -46.316  63.015 -48.117  1.00  0.00    -0.328 N 
HETATM   19  C   UNL     1     -47.047  62.604 -47.017  1.00  0.00     0.218 C 
HETATM   20  C   UNL     1     -47.480  63.752 -46.137  1.00  0.00     0.117 C 
HETATM   21  O   UNL     1     -47.331  61.453 -46.709  1.00  0.00    -0.274 OA
HETATM   22  H   UNL     1     -46.163  64.010 -48.220  1.00  0.00     0.169 HD
ENDBRANCH  15  18
ENDBRANCH   9  12
ENDBRANCH   1   8
BRANCH   2  23
HETATM   23  C   UNL     1     -42.074  55.652 -54.031  1.00  0.00    -0.001 A 
HETATM   24  C   UNL     1     -42.409  54.375 -53.526  1.00  0.00     0.076 A 
HETATM   25  C   UNL     1     -41.570  53.282 -53.772  1.00  0.00     0.037 A 
HETATM   26  C   UNL     1     -40.405  53.437 -54.521  1.00  0.00     0.003 A 
HETATM   27  C   UNL     1     -40.073  54.683 -55.038  1.00  0.00     0.001 A 
HETATM   28  C   UNL     1     -40.900  55.781 -54.797  1.00  0.00     0.012 A 
BRANCH  24  29
HETATM   29  O   UNL     1     -43.571  54.306 -52.801  1.00  0.00    -0.355 OA
HETATM   30  C   UNL     1     -43.468  53.930 -51.433  1.00  0.00     0.210 C 
ENDBRANCH  24  29
ENDBRANCH   2  23
BRANCH   3  31
HETATM   31  C   UNL     1     -43.799  57.814 -55.877  1.00  0.00     0.038 A 
HETATM   32  C   UNL     1     -43.362  57.217 -57.068  1.00  0.00     0.032 A 
HETATM   33  C   UNL     1     -44.182  57.160 -58.204  1.00  0.00     0.039 A 
HETATM   34  C   UNL     1     -45.462  57.705 -58.190  1.00  0.00     0.068 A 
HETATM   35  C   UNL     1     -45.920  58.297 -57.019  1.00  0.00     0.039 A 
HETATM   36  C   UNL     1     -45.097  58.352 -55.881  1.00  0.00     0.032 A 
BRANCH  34  37
HETATM   37  O   UNL     1     -46.151  57.597 -59.364  1.00  0.00    -0.356 OA
HETATM   38  C   UNL     1     -46.177  56.316 -59.979  1.00  0.00     0.210 C 
ENDBRANCH  34  37
ENDBRANCH   3  31
TORSDOF 7
ENDMDL
MODEL 2
REMARK VINA RESULT:      -8.3      3.908      7.835
REMARK  7 active torsions:
REMARK  status: ('A' for Active; 'I' for Inactive)
REMARK       I    between atoms: C_2  and  N_3 
REMARK    1  A    between atoms: N_3  and  C_4 
REMARK    2  A    between atoms: C_7  and  N_8 
REMARK       I    between atoms: N_8  and  C_9 
REMARK    3  A    between atoms: C_9  and  C_10 
REMARK    4  A    between atoms: C_11  and  C_12 
REMARK    5  A    between atoms: C_13  and  O_14 
REMARK    6  A    between atoms: N_20  and  C_21 
REMARK    7  A    between atoms: C_24  and  O_25 
ROOT
HETATM    1  C   UNL     1     -42.015  59.341 -54.132  1.00  0.00     0.106 C 
HETATM    2  C   UNL     1     -42.497  59.317 -55.591  1.00  0.00     0.142 C 
HETATM    3  N   UNL     1     -43.661  58.411 -55.806  1.00  0.00    -0.308 N 
HETATM    4  C   UNL     1     -44.692  58.344 -54.854  1.00  0.00     0.225 C 
HETATM    5  O   UNL     1     -45.844  57.982 -55.092  1.00  0.00    -0.273 OA
HETATM    6  C   UNL     1     -44.319  58.618 -53.407  1.00  0.00     0.104 C 
HETATM    7  C   UNL     1     -43.174  59.577 -53.174  1.00  0.00     0.026 C 
ENDROOT
BRANCH   1   8
HETATM    8  C   UNL     1     -41.201  58.107 -53.721  1.00  0.00     0.228 C 
HETATM    9  N   UNL     1     -41.423  56.974 -54.480  1.00  0.00    -0.327 N 
HETATM   10  H   UNL     1     -41.868  57.094 -55.383  1.00  0.00     0.169 HD
HETATM   11  O   UNL     1     -40.499  58.162 -52.714  1.00  0.00    -0.273 OA
BRANCH   9  12
HETATM   12  C   UNL     1     -41.126  55.639 -54.135  1.00  0.00     0.034 A 
HETATM   13  C   UNL     1     -41.651  54.982 -53.024  1.00  0.00     0.032 A 
HETATM   14  C   UNL     1     -41.390  53.620 -52.808  1.00  0.00     0.032 A 
HETATM   15  C   UNL     1     -40.603  52.895 -53.699  1.00  0.00     0.034 A 
HETATM   16  C   UNL     1     -40.049  53.562 -54.797  1.00  0.00     0.032 A 
HETATM   17  C   UNL     1     -40.309  54.921 -55.014  1.00  0.00     0.032 A 
BRANCH  15  18
HETATM   18  N   UNL     1     -40.342  51.513 -53.582  1.00  0.00    -0.328 N 
HETATM   19  C   UNL     1     -39.589  50.879 -52.611  1.00  0.00     0.218 C 
HETATM   20  C   UNL     1     -39.590  49.376 -52.755  1.00  0.00     0.117 C 
HETATM   21  O   UNL     1     -38.982  51.407 -51.687  1.00  0.00    -0.274 OA
HETATM   22  H   UNL     1     -40.790  50.924 -54.272  1.00  0.00     0.169 HD
ENDBRANCH  15  18
ENDBRANCH   9  12
ENDBRANCH   1   8
BRANCH   2  23
HETATM   23  C   UNL     1     -42.738  60.749 -56.099  1.00  0.00    -0.001 A 
HETATM   24  C   UNL     1     -42.086  61.196 -57.271  1.00  0.00     0.076 A 
HETATM   25  C   UNL     1     -42.246  62.518 -57.702  1.00  0.00     0.037 A 
HETATM   26  C   UNL     1     -43.054  63.403 -56.988  1.00  0.00     0.003 A 
HETATM   27  C   UNL     1     -43.714  62.972 -55.845  1.00  0.00     0.001 A 
HETATM   28  C   UNL     1     -43.560  61.657 -55.404  1.00  0.00     0.012 A 
BRANCH  24  29
HETATM   29  O   UNL     1     -41.313  60.264 -57.915  1.00  0.00    -0.355 OA
HETATM   30  C   UNL     1     -41.628  59.976 -59.272  1.00  0.00     0.210 C 
ENDBRANCH  24  29
ENDBRANCH   2  23
BRANCH   3  31
HETATM   31  C   UNL     1     -43.793  57.758 -57.096  1.00  0.00     0.038 A 
HETATM   32  C   UNL     1     -43.065  56.598 -57.400  1.00  0.00     0.032 A 
HETATM   33  C   UNL     1     -43.132  56.001 -58.666  1.00  0.00     0.039 A 
HETATM   34  C   UNL     1     -43.922  56.547 -59.674  1.00  0.00     0.068 A 
HETATM   35  C   UNL     1     -44.658  57.692 -59.395  1.00  0.00     0.039 A 
HETATM   36  C   UNL     1     -44.590  58.289 -58.124  1.00  0.00     0.032 A 
BRANCH  34  37
HETATM   37  O   UNL     1     -43.888  55.878 -60.864  1.00  0.00    -0.356 OA
HETATM   38  C   UNL     1     -45.011  55.064 -61.176  1.00  0.00     0.210 C 
ENDBRANCH  34  37
ENDBRANCH   3  31
TORSDOF 7
ENDMDL
MODEL 3
REMARK VINA RESULT:      -7.8      5.137      8.021
REMARK  7 active torsions:
REMARK  status: ('A' for Active; 'I' for Inactive)
REMARK       I    between atoms: C_2  and  N_3 
REMARK    1  A    between atoms: N_3  and  C_4 
REMARK    2  A    between atoms: C_7  and  N_8 
REMARK       I    between atoms: N_8  and  C_9 
REMARK    3  A    between atoms: C_9  and  C_10 
REMARK    4  A    between atoms: C_11  and  C_12 
REMARK    5  A    between atoms: C_13  and  O_14 
REMARK    6  A    between atoms: N_20  and  C_21 
REMARK    7  A    between atoms: C_24  and  O_25 
ROOT
HETATM    1  C   UNL     1     -43.936  56.890 -57.979  1.00  0.00     0.106 C 
HETATM    2  C   UNL     1     -44.036  58.392 -58.288  1.00  0.00     0.142 C 
HETATM    3  N   UNL     1     -42.870  58.907 -59.062  1.00  0.00    -0.308 N 
HETATM    4  C   UNL     1     -42.310  58.138 -60.096  1.00  0.00     0.225 C 
HETATM    5  O   UNL     1     -41.660  58.595 -61.036  1.00  0.00    -0.273 OA
HETATM    6  C   UNL     1     -42.412  56.628 -59.971  1.00  0.00     0.104 C 
HETATM    7  C   UNL     1     -43.618  56.090 -59.234  1.00  0.00     0.026 C 
ENDROOT
BRANCH   1   8
HETATM    8  C   UNL     1     -42.962  56.548 -56.845  1.00  0.00     0.228 C 
HETATM    9  N   UNL     1     -42.959  55.225 -56.447  1.00  0.00    -0.327 N 
HETATM   10  H   UNL     1     -43.366  54.544 -57.078  1.00  0.00     0.169 HD
HETATM   11  O   UNL     1     -42.334  57.455 -56.302  1.00  0.00    -0.273 OA
BRANCH   9  12
HETATM   12  C   UNL     1     -42.474  54.695 -55.233  1.00  0.00     0.034 A 
HETATM   13  C   UNL     1     -41.173  54.233 -55.045  1.00  0.00     0.032 A 
HETATM   14  C   UNL     1     -40.736  53.820 -53.776  1.00  0.00     0.032 A 
HETATM   15  C   UNL     1     -41.592  53.864 -52.678  1.00  0.00     0.034 A 
HETATM   16  C   UNL     1     -42.907  54.297 -52.873  1.00  0.00     0.032 A 
HETATM   17  C   UNL     1     -43.344  54.710 -54.138  1.00  0.00     0.032 A 
BRANCH  15  18
HETATM   18  N   UNL     1     -41.212  53.520 -51.363  1.00  0.00    -0.328 N 
HETATM   19  C   UNL     1     -40.826  54.377 -50.350  1.00  0.00     0.218 C 
HETATM   20  C   UNL     1     -40.564  53.665 -49.044  1.00  0.00     0.117 C 
HETATM   21  O   UNL     1     -40.712  55.596 -50.417  1.00  0.00    -0.274 OA
HETATM   22  H   UNL     1     -41.265  52.536 -51.136  1.00  0.00     0.169 HD
ENDBRANCH  15  18
ENDBRANCH   9  12
ENDBRANCH   1   8
BRANCH   2  23
HETATM   23  C   UNL     1     -45.391  58.716 -58.942  1.00  0.00    -0.001 A 
HETATM   24  C   UNL     1     -46.344  59.483 -58.234  1.00  0.00     0.076 A 
HETATM   25  C   UNL     1     -47.605  59.723 -58.793  1.00  0.00     0.037 A 
HETATM   26  C   UNL     1     -47.930  59.220 -60.052  1.00  0.00     0.003 A 
HETATM   27  C   UNL     1     -46.995  58.479 -60.765  1.00  0.00     0.001 A 
HETATM   28  C   UNL     1     -45.737  58.230 -60.217  1.00  0.00     0.012 A 
BRANCH  24  29
HETATM   29  O   UNL     1     -45.947  59.942 -57.005  1.00  0.00    -0.355 OA
HETATM   30  C   UNL     1     -45.875  61.352 -56.824  1.00  0.00     0.210 C 
ENDBRANCH  24  29
ENDBRANCH   2  23
BRANCH   3  31
HETATM   31  C   UNL     1     -42.460  60.284 -58.850  1.00  0.00     0.038 A 
HETATM   32  C   UNL     1     -43.162  61.348 -59.435  1.00  0.00     0.032 A 
HETATM   33  C   UNL     1     -42.732  62.675 -59.294  1.00  0.00     0.039 A 
HETATM   34  C   UNL     1     -41.583  62.982 -58.572  1.00  0.00     0.068 A 
HETATM   35  C   UNL     1     -40.874  61.945 -57.978  1.00  0.00     0.039 A 
HETATM   36  C   UNL     1     -41.307  60.615 -58.120  1.00  0.00     0.032 A 
BRANCH  34  37
HETATM   37  O   UNL     1     -41.266  64.309 -58.523  1.00  0.00    -0.356 OA
HETATM   38  C   UNL     1     -39.907  64.637 -58.265  1.00  0.00     0.210 C 
ENDBRANCH  34  37
ENDBRANCH   3  31
TORSDOF 7
ENDMDL
MODEL 4
REMARK VINA RESULT:      -7.6      3.251      8.316
REMARK  7 active torsions:
REMARK  status: ('A' for Active; 'I' for Inactive)
REMARK       I    between atoms: C_2  and  N_3 
REMARK    1  A    between atoms: N_3  and  C_4 
REMARK    2  A    between atoms: C_7  and  N_8 
REMARK       I    between atoms: N_8  and  C_9 
REMARK    3  A    between atoms: C_9  and  C_10 
REMARK    4  A    between atoms: C_11  and  C_12 
REMARK    5  A    between atoms: C_13  and  O_14 
REMARK    6  A    between atoms: N_20  and  C_21 
REMARK    7  A    between atoms: C_24  and  O_25 
ROOT
HETATM    1  C   UNL     1     -43.739  57.549 -58.777  1.00  0.00     0.106 C 
HETATM    2  C   UNL     1     -44.567  58.418 -57.817  1.00  0.00     0.142 C 
HETATM    3  N   UNL     1     -43.729  59.156 -56.829  1.00  0.00    -0.308 N 
HETATM    4  C   UNL     1     -42.508  59.729 -57.222  1.00  0.00     0.225 C 
HETATM    5  O   UNL     1     -41.958  60.670 -56.650  1.00  0.00    -0.273 OA
HETATM    6  C   UNL     1     -41.759  59.053 -58.357  1.00  0.00     0.104 C 
HETATM    7  C   UNL     1     -42.600  58.345 -59.396  1.00  0.00     0.026 C 
ENDROOT
BRANCH   1   8
HETATM    8  C   UNL     1     -43.226  56.244 -58.153  1.00  0.00     0.228 C 
HETATM    9  N   UNL     1     -43.392  56.137 -56.786  1.00  0.00    -0.327 N 
HETATM   10  H   UNL     1     -44.057  56.761 -56.344  1.00  0.00     0.169 HD
HETATM   11  O   UNL     1     -42.625  55.439 -58.862  1.00  0.00    -0.273 OA
BRANCH   9  12
HETATM   12  C   UNL     1     -42.716  55.267 -55.905  1.00  0.00     0.034 A 
HETATM   13  C   UNL     1     -43.223  54.043 -55.473  1.00  0.00     0.032 A 
HETATM   14  C   UNL     1     -42.444  53.185 -54.681  1.00  0.00     0.032 A 
HETATM   15  C   UNL     1     -41.148  53.537 -54.311  1.00  0.00     0.034 A 
HETATM   16  C   UNL     1     -40.651  54.779 -54.718  1.00  0.00     0.032 A 
HETATM   17  C   UNL     1     -41.427  55.636 -55.509  1.00  0.00     0.032 A 
BRANCH  15  18
HETATM   18  N   UNL     1     -40.283  52.706 -53.567  1.00  0.00    -0.328 N 
HETATM   19  C   UNL     1     -40.208  52.590 -52.191  1.00  0.00     0.218 C 
HETATM   20  C   UNL     1     -39.217  51.543 -51.743  1.00  0.00     0.117 C 
HETATM   21  O   UNL     1     -40.860  53.214 -51.362  1.00  0.00    -0.274 OA
HETATM   22  H   UNL     1     -39.677  52.106 -54.111  1.00  0.00     0.169 HD
ENDBRANCH  15  18
ENDBRANCH   9  12
ENDBRANCH   1   8
BRANCH   2  23
HETATM   23  C   UNL     1     -45.521  59.330 -58.608  1.00  0.00    -0.001 A 
HETATM   24  C   UNL     1     -46.710  58.795 -59.153  1.00  0.00     0.076 A 
HETATM   25  C   UNL     1     -47.548  59.601 -59.933  1.00  0.00     0.037 A 
HETATM   26  C   UNL     1     -47.226  60.937 -60.171  1.00  0.00     0.003 A 
HETATM   27  C   UNL     1     -46.069  61.479 -59.626  1.00  0.00     0.001 A 
HETATM   28  C   UNL     1     -45.224  60.685 -58.851  1.00  0.00     0.012 A 
BRANCH  24  29
HETATM   29  O   UNL     1     -46.954  57.476 -58.871  1.00  0.00    -0.355 OA
HETATM   30  C   UNL     1     -47.024  56.573 -59.969  1.00  0.00     0.210 C 
ENDBRANCH  24  29
ENDBRANCH   2  23
BRANCH   3  31
HETATM   31  C   UNL     1     -44.293  59.430 -55.519  1.00  0.00     0.038 A 
HETATM   32  C   UNL     1     -44.185  58.501 -54.474  1.00  0.00     0.032 A 
HETATM   33  C   UNL     1     -44.787  58.725 -53.228  1.00  0.00     0.039 A 
HETATM   34  C   UNL     1     -45.525  59.880 -52.988  1.00  0.00     0.068 A 
HETATM   35  C   UNL     1     -45.642  60.818 -54.006  1.00  0.00     0.039 A 
HETATM   36  C   UNL     1     -45.037  60.592 -55.254  1.00  0.00     0.032 A 
BRANCH  34  37
HETATM   37  O   UNL     1     -46.071  59.970 -51.740  1.00  0.00    -0.356 OA
HETATM   38  C   UNL     1     -45.564  59.084 -50.750  1.00  0.00     0.210 C 
ENDBRANCH  34  37
ENDBRANCH   3  31
TORSDOF 7
ENDMDL
MODEL 5
REMARK VINA RESULT:      -7.4      2.615      8.650
REMARK  7 active torsions:
REMARK  status: ('A' for Active; 'I' for Inactive)
REMARK       I    between atoms: C_2  and  N_3 
REMARK    1  A    between atoms: N_3  and  C_4 
REMARK    2  A    between atoms: C_7  and  N_8 
REMARK       I    between atoms: N_8  and  C_9 
REMARK    3  A    between atoms: C_9  and  C_10 
REMARK    4  A    between atoms: C_11  and  C_12 
REMARK    5  A    between atoms: C_13  and  O_14 
REMARK    6  A    between atoms: N_20  and  C_21 
REMARK    7  A    between atoms: C_24  and  O_25 
ROOT
HETATM    1  C   UNL     1     -44.138  59.481 -53.935  1.00  0.00     0.106 C 
HETATM    2  C   UNL     1     -43.601  58.807 -52.663  1.00  0.00     0.142 C 
HETATM    3  N   UNL     1     -42.193  58.338 -52.801  1.00  0.00    -0.308 N 
HETATM    4  C   UNL     1     -41.248  59.122 -53.484  1.00  0.00     0.225 C 
HETATM    5  O   UNL     1     -40.030  59.060 -53.314  1.00  0.00    -0.273 OA
HETATM    6  C   UNL     1     -41.764  60.017 -54.597  1.00  0.00     0.104 C 
HETATM    7  C   UNL     1     -43.174  60.543 -54.443  1.00  0.00     0.026 C 
ENDROOT
BRANCH   1   8
HETATM    8  C   UNL     1     -44.516  58.499 -55.052  1.00  0.00     0.228 C 
HETATM    9  N   UNL     1     -44.461  59.012 -56.333  1.00  0.00    -0.327 N 
HETATM   10  H   UNL     1     -43.934  59.866 -56.475  1.00  0.00     0.169 HD
HETATM   11  O   UNL     1     -44.930  57.382 -54.750  1.00  0.00    -0.273 OA
BRANCH   9  12
HETATM   12  C   UNL     1     -45.084  58.498 -57.490  1.00  0.00     0.034 A 
HETATM   13  C   UNL     1     -44.464  57.643 -58.399  1.00  0.00     0.032 A 
HETATM   14  C   UNL     1     -45.185  57.090 -59.469  1.00  0.00     0.032 A 
HETATM   15  C   UNL     1     -46.536  57.382 -59.644  1.00  0.00     0.034 A 
HETATM   16  C   UNL     1     -47.150  58.266 -58.751  1.00  0.00     0.032 A 
HETATM   17  C   UNL     1     -46.432  58.818 -57.683  1.00  0.00     0.032 A 
BRANCH  15  18
HETATM   18  N   UNL     1     -47.342  56.823 -60.659  1.00  0.00    -0.328 N 
HETATM   19  C   UNL     1     -47.965  57.487 -61.699  1.00  0.00     0.218 C 
HETATM   20  C   UNL     1     -48.685  56.555 -62.644  1.00  0.00     0.117 C 
HETATM   21  O   UNL     1     -47.956  58.693 -61.914  1.00  0.00    -0.274 OA
HETATM   22  H   UNL     1     -47.441  55.816 -60.633  1.00  0.00     0.169 HD
ENDBRANCH  15  18
ENDBRANCH   9  12
ENDBRANCH   1   8
BRANCH   2  23
HETATM   23  C   UNL     1     -43.823  59.716 -51.441  1.00  0.00    -0.001 A 
HETATM   24  C   UNL     1     -44.940  59.502 -50.602  1.00  0.00     0.076 A 
HETATM   25  C   UNL     1     -45.188  60.366 -49.529  1.00  0.00     0.037 A 
HETATM   26  C   UNL     1     -44.333  61.437 -49.271  1.00  0.00     0.003 A 
HETATM   27  C   UNL     1     -43.221  61.648 -50.077  1.00  0.00     0.001 A 
HETATM   28  C   UNL     1     -42.966  60.795 -51.151  1.00  0.00     0.012 A 
BRANCH  24  29
HETATM   29  O   UNL     1     -45.730  58.427 -50.923  1.00  0.00    -0.355 OA
HETATM   30  C   UNL     1     -45.196  57.129 -50.688  1.00  0.00     0.210 C 
ENDBRANCH  24  29
ENDBRANCH   2  23
BRANCH   3  31
HETATM   31  C   UNL     1     -41.785  57.161 -52.055  1.00  0.00     0.038 A 
HETATM   32  C   UNL     1     -41.456  57.242 -50.694  1.00  0.00     0.032 A 
HETATM   33  C   UNL     1     -40.994  56.126 -49.983  1.00  0.00     0.039 A 
HETATM   34  C   UNL     1     -40.837  54.893 -50.610  1.00  0.00     0.068 A 
HETATM   35  C   UNL     1     -41.162  54.786 -51.957  1.00  0.00     0.039 A 
HETATM   36  C   UNL     1     -41.626  55.907 -52.667  1.00  0.00     0.032 A 
BRANCH  34  37
HETATM   37  O   UNL     1     -40.366  53.891 -49.811  1.00  0.00    -0.356 OA
HETATM   38  C   UNL     1     -40.468  54.088 -48.406  1.00  0.00     0.210 C 
ENDBRANCH  34  37
ENDBRANCH   3  31
TORSDOF 7
ENDMDL
MODEL 6
REMARK VINA RESULT:      -7.0      3.474      8.595
REMARK  7 active torsions:
REMARK  status: ('A' for Active; 'I' for Inactive)
REMARK       I    between atoms: C_2  and  N_3 
REMARK    1  A    between atoms: N_3  and  C_4 
REMARK    2  A    between atoms: C_7  and  N_8 
REMARK       I    between atoms: N_8  and  C_9 
REMARK    3  A    between atoms: C_9  and  C_10 
REMARK    4  A    between atoms: C_11  and  C_12 
REMARK    5  A    between atoms: C_13  and  O_14 
REMARK    6  A    between atoms: N_20  and  C_21 
REMARK    7  A    between atoms: C_24  and  O_25 
ROOT
HETATM    1  C   UNL     1     -43.967  58.850 -54.473  1.00  0.00     0.106 C 
HETATM    2  C   UNL     1     -43.679  60.267 -54.995  1.00  0.00     0.142 C 
HETATM    3  N   UNL     1     -43.693  60.354 -56.483  1.00  0.00    -0.308 N 
HETATM    4  C   UNL     1     -44.652  59.646 -57.226  1.00  0.00     0.225 C 
HETATM    5  O   UNL     1     -45.021  59.946 -58.361  1.00  0.00    -0.273 OA
HETATM    6  C   UNL     1     -45.172  58.349 -56.630  1.00  0.00     0.104 C 
HETATM    7  C   UNL     1     -45.215  58.268 -55.121  1.00  0.00     0.026 C 
ENDROOT
BRANCH   1   8
HETATM    8  C   UNL     1     -42.780  57.886 -54.595  1.00  0.00     0.228 C 
HETATM    9  N   UNL     1     -43.103  56.543 -54.550  1.00  0.00    -0.327 N 
HETATM   10  H   UNL     1     -44.069  56.287 -54.716  1.00  0.00     0.169 HD
HETATM   11  O   UNL     1     -41.639  58.342 -54.622  1.00  0.00    -0.273 OA
BRANCH   9  12
HETATM   12  C   UNL     1     -42.240  55.463 -54.269  1.00  0.00     0.034 A 
HETATM   13  C   UNL     1     -42.191  54.798 -53.045  1.00  0.00     0.032 A 
HETATM   14  C   UNL     1     -41.381  53.664 -52.879  1.00  0.00     0.032 A 
HETATM   15  C   UNL     1     -40.610  53.177 -53.932  1.00  0.00     0.034 A 
HETATM   16  C   UNL     1     -40.635  53.863 -55.150  1.00  0.00     0.032 A 
HETATM   17  C   UNL     1     -41.443  54.995 -55.318  1.00  0.00     0.032 A 
BRANCH  15  18
HETATM   18  N   UNL     1     -39.817  52.012 -53.860  1.00  0.00    -0.328 N 
HETATM   19  C   UNL     1     -40.188  50.721 -54.187  1.00  0.00     0.218 C 
HETATM   20  C   UNL     1     -39.053  49.733 -54.062  1.00  0.00     0.117 C 
HETATM   21  O   UNL     1     -41.290  50.345 -54.570  1.00  0.00    -0.274 OA
HETATM   22  H   UNL     1     -38.858  52.154 -53.569  1.00  0.00     0.169 HD
ENDBRANCH  15  18
ENDBRANCH   9  12
ENDBRANCH   1   8
BRANCH   2  23
HETATM   23  C   UNL     1     -44.612  61.287 -54.317  1.00  0.00    -0.001 A 
HETATM   24  C   UNL     1     -44.238  61.865 -53.083  1.00  0.00     0.076 A 
HETATM   25  C   UNL     1     -45.111  62.740 -52.426  1.00  0.00     0.037 A 
HETATM   26  C   UNL     1     -46.349  63.058 -52.985  1.00  0.00     0.003 A 
HETATM   27  C   UNL     1     -46.720  62.510 -54.206  1.00  0.00     0.001 A 
HETATM   28  C   UNL     1     -45.860  61.634 -54.868  1.00  0.00     0.012 A 
BRANCH  24  29
HETATM   29  O   UNL     1     -43.006  61.503 -52.603  1.00  0.00    -0.355 OA
HETATM   30  C   UNL     1     -42.925  61.102 -51.240  1.00  0.00     0.210 C 
ENDBRANCH  24  29
ENDBRANCH   2  23
BRANCH   3  31
HETATM   31  C   UNL     1     -42.824  61.327 -57.121  1.00  0.00     0.038 A 
HETATM   32  C   UNL     1     -43.225  62.662 -57.282  1.00  0.00     0.032 A 
HETATM   33  C   UNL     1     -42.424  63.592 -57.959  1.00  0.00     0.039 A 
HETATM   34  C   UNL     1     -41.200  63.218 -58.506  1.00  0.00     0.068 A 
HETATM   35  C   UNL     1     -40.778  61.902 -58.354  1.00  0.00     0.039 A 
HETATM   36  C   UNL     1     -41.583  60.972 -57.674  1.00  0.00     0.032 A 
BRANCH  34  37
HETATM   37  O   UNL     1     -40.525  64.213 -59.151  1.00  0.00    -0.356 OA
HETATM   38  C   UNL     1     -39.272  64.601 -58.603  1.00  0.00     0.210 C 
ENDBRANCH  34  37
ENDBRANCH   3  31
TORSDOF 7
ENDMDL
MODEL 7
REMARK VINA RESULT:      -6.9      2.620      7.988
REMARK  7 active torsions:
REMARK  status: ('A' for Active; 'I' for Inactive)
REMARK       I    between atoms: C_2  and  N_3 
REMARK    1  A    between atoms: N_3  and  C_4 
REMARK    2  A    between atoms: C_7  and  N_8 
REMARK       I    between atoms: N_8  and  C_9 
REMARK    3  A    between atoms: C_9  and  C_10 
REMARK    4  A    between atoms: C_11  and  C_12 
REMARK    5  A    between atoms: C_13  and  O_14 
REMARK    6  A    between atoms: N_20  and  C_21 
REMARK    7  A    between atoms: C_24  and  O_25 
ROOT
HETATM    1  C   UNL     1     -41.911  56.089 -53.683  1.00  0.00     0.106 C 
HETATM    2  C   UNL     1     -42.421  57.363 -52.990  1.00  0.00     0.142 C 
HETATM    3  N   UNL     1     -43.680  57.145 -52.223  1.00  0.00    -0.308 N 
HETATM    4  C   UNL     1     -43.863  55.968 -51.479  1.00  0.00     0.225 C 
HETATM    5  O   UNL     1     -44.624  55.857 -50.518  1.00  0.00    -0.273 OA
HETATM    6  C   UNL     1     -43.163  54.716 -51.978  1.00  0.00     0.104 C 
HETATM    7  C   UNL     1     -41.856  54.919 -52.712  1.00  0.00     0.026 C 
ENDROOT
BRANCH   1   8
HETATM    8  C   UNL     1     -42.686  55.716 -54.954  1.00  0.00     0.228 C 
HETATM    9  N   UNL     1     -42.674  56.670 -55.954  1.00  0.00    -0.327 N 
HETATM   10  H   UNL     1     -41.964  57.391 -55.906  1.00  0.00     0.169 HD
HETATM   11  O   UNL     1     -43.336  54.673 -54.974  1.00  0.00    -0.273 OA
BRANCH   9  12
HETATM   12  C   UNL     1     -43.564  56.781 -57.043  1.00  0.00     0.034 A 
HETATM   13  C   UNL     1     -44.577  57.734 -57.130  1.00  0.00     0.032 A 
HETATM   14  C   UNL     1     -45.353  57.848 -58.295  1.00  0.00     0.032 A 
HETATM   15  C   UNL     1     -45.127  57.014 -59.387  1.00  0.00     0.034 A 
HETATM   16  C   UNL     1     -44.131  56.037 -59.287  1.00  0.00     0.032 A 
HETATM   17  C   UNL     1     -43.356  55.922 -58.126  1.00  0.00     0.032 A 
BRANCH  15  18
HETATM   18  N   UNL     1     -45.824  57.105 -60.611  1.00  0.00    -0.328 N 
HETATM   19  C   UNL     1     -47.062  56.569 -60.914  1.00  0.00     0.218 C 
HETATM   20  C   UNL     1     -47.537  56.932 -62.301  1.00  0.00     0.117 C 
HETATM   21  O   UNL     1     -47.770  55.887 -60.181  1.00  0.00    -0.274 OA
HETATM   22  H   UNL     1     -45.374  57.656 -61.331  1.00  0.00     0.169 HD
ENDBRANCH  15  18
ENDBRANCH   9  12
ENDBRANCH   1   8
BRANCH   2  23
HETATM   23  C   UNL     1     -41.299  58.001 -52.151  1.00  0.00    -0.001 A 
HETATM   24  C   UNL     1     -40.424  58.937 -52.747  1.00  0.00     0.076 A 
HETATM   25  C   UNL     1     -39.360  59.470 -52.010  1.00  0.00     0.037 A 
HETATM   26  C   UNL     1     -39.157  59.092 -50.683  1.00  0.00     0.003 A 
HETATM   27  C   UNL     1     -40.020  58.186 -50.081  1.00  0.00     0.001 A 
HETATM   28  C   UNL     1     -41.083  57.645 -50.806  1.00  0.00     0.012 A 
BRANCH  24  29
HETATM   29  O   UNL     1     -40.693  59.257 -54.053  1.00  0.00    -0.355 OA
HETATM   30  C   UNL     1     -41.814  60.097 -54.305  1.00  0.00     0.210 C 
ENDBRANCH  24  29
ENDBRANCH   2  23
BRANCH   3  31
HETATM   31  C   UNL     1     -44.615  58.251 -52.111  1.00  0.00     0.038 A 
HETATM   32  C   UNL     1     -45.019  58.976 -53.241  1.00  0.00     0.032 A 
HETATM   33  C   UNL     1     -45.865  60.089 -53.135  1.00  0.00     0.039 A 
HETATM   34  C   UNL     1     -46.328  60.520 -51.895  1.00  0.00     0.068 A 
HETATM   35  C   UNL     1     -45.946  59.814 -50.761  1.00  0.00     0.039 A 
HETATM   36  C   UNL     1     -45.098  58.698 -50.870  1.00  0.00     0.032 A 
BRANCH  34  37
HETATM   37  O   UNL     1     -47.132  61.622 -51.927  1.00  0.00    -0.356 OA
HETATM   38  C   UNL     1     -47.303  62.258 -53.187  1.00  0.00     0.210 C 
ENDBRANCH  34  37
ENDBRANCH   3  31
TORSDOF 7
ENDMDL
MODEL 8
REMARK VINA RESULT:      -6.9      3.370      8.855
REMARK  7 active torsions:
REMARK  status: ('A' for Active; 'I' for Inactive)
REMARK       I    between atoms: C_2  and  N_3 
REMARK    1  A    between atoms: N_3  and  C_4 
REMARK    2  A    between atoms: C_7  and  N_8 
REMARK       I    between atoms: N_8  and  C_9 
REMARK    3  A    between atoms: C_9  and  C_10 
REMARK    4  A    between atoms: C_11  and  C_12 
REMARK    5  A    between atoms: C_13  and  O_14 
REMARK    6  A    between atoms: N_20  and  C_21 
REMARK    7  A    between atoms: C_24  and  O_25 
ROOT
HETATM    1  C   UNL     1     -42.690  58.109 -54.434  1.00  0.00     0.106 C 
HETATM    2  C   UNL     1     -42.603  58.777 -53.053  1.00  0.00     0.142 C 
HETATM    3  N   UNL     1     -43.754  59.681 -52.769  1.00  0.00    -0.308 N 
HETATM    4  C   UNL     1     -45.054  59.317 -53.156  1.00  0.00     0.225 C 
HETATM    5  O   UNL     1     -46.086  59.744 -52.638  1.00  0.00    -0.273 OA
HETATM    6  C   UNL     1     -45.190  58.432 -54.382  1.00  0.00     0.104 C 
HETATM    7  C   UNL     1     -44.054  57.471 -54.653  1.00  0.00     0.026 C 
ENDROOT
BRANCH   1   8
HETATM    8  C   UNL     1     -42.321  59.036 -55.600  1.00  0.00     0.228 C 
HETATM    9  N   UNL     1     -42.930  58.740 -56.805  1.00  0.00    -0.327 N 
HETATM   10  H   UNL     1     -43.749  58.145 -56.783  1.00  0.00     0.169 HD
HETATM   11  O   UNL     1     -41.458  59.895 -55.431  1.00  0.00    -0.273 OA
BRANCH   9  12
HETATM   12  C   UNL     1     -42.527  59.152 -58.093  1.00  0.00     0.034 A 
HETATM   13  C   UNL     1     -42.224  58.278 -59.135  1.00  0.00     0.032 A 
HETATM   14  C   UNL     1     -41.934  58.767 -60.418  1.00  0.00     0.032 A 
HETATM   15  C   UNL     1     -41.944  60.135 -60.679  1.00  0.00     0.034 A 
HETATM   16  C   UNL     1     -42.217  61.014 -59.626  1.00  0.00     0.032 A 
HETATM   17  C   UNL     1     -42.507  60.528 -58.345  1.00  0.00     0.032 A 
BRANCH  15  18
HETATM   18  N   UNL     1     -41.720  60.701 -61.952  1.00  0.00    -0.328 N 
HETATM   19  C   UNL     1     -42.669  61.157 -62.848  1.00  0.00     0.218 C 
HETATM   20  C   UNL     1     -42.062  61.774 -64.085  1.00  0.00     0.117 C 
HETATM   21  O   UNL     1     -43.887  61.124 -62.712  1.00  0.00    -0.274 OA
HETATM   22  H   UNL     1     -40.749  60.814 -62.216  1.00  0.00     0.169 HD
ENDBRANCH  15  18
ENDBRANCH   9  12
ENDBRANCH   1   8
BRANCH   2  23
HETATM   23  C   UNL     1     -42.378  57.717 -51.959  1.00  0.00    -0.001 A 
HETATM   24  C   UNL     1     -41.178  57.726 -51.212  1.00  0.00     0.076 A 
HETATM   25  C   UNL     1     -40.935  56.725 -50.264  1.00  0.00     0.037 A 
HETATM   26  C   UNL     1     -41.873  55.718 -50.041  1.00  0.00     0.003 A 
HETATM   27  C   UNL     1     -43.064  55.707 -50.757  1.00  0.00     0.001 A 
HETATM   28  C   UNL     1     -43.316  56.698 -51.707  1.00  0.00     0.012 A 
BRANCH  24  29
HETATM   29  O   UNL     1     -40.310  58.751 -51.490  1.00  0.00    -0.355 OA
HETATM   30  C   UNL     1     -39.966  59.626 -50.422  1.00  0.00     0.210 C 
ENDBRANCH  24  29
ENDBRANCH   2  23
BRANCH   3  31
HETATM   31  C   UNL     1     -43.524  60.838 -51.922  1.00  0.00     0.038 A 
HETATM   32  C   UNL     1     -43.568  60.734 -50.524  1.00  0.00     0.032 A 
HETATM   33  C   UNL     1     -43.418  61.858 -49.700  1.00  0.00     0.039 A 
HETATM   34  C   UNL     1     -43.227  63.124 -50.245  1.00  0.00     0.068 A 
HETATM   35  C   UNL     1     -43.173  63.252 -51.627  1.00  0.00     0.039 A 
HETATM   36  C   UNL     1     -43.324  62.123 -52.452  1.00  0.00     0.032 A 
BRANCH  34  37
HETATM   37  O   UNL     1     -43.109  64.136 -49.335  1.00  0.00    -0.356 OA
HETATM   38  C   UNL     1     -44.176  64.296 -48.409  1.00  0.00     0.210 C 
ENDBRANCH  34  37
ENDBRANCH   3  31
TORSDOF 7
ENDMDL
MODEL 9
REMARK VINA RESULT:      -6.6      4.167      8.654
REMARK  7 active torsions:
REMARK  status: ('A' for Active; 'I' for Inactive)
REMARK       I    between atoms: C_2  and  N_3 
REMARK    1  A    between atoms: N_3  and  C_4 
REMARK    2  A    between atoms: C_7  and  N_8 
REMARK       I    between atoms: N_8  and  C_9 
REMARK    3  A    between atoms: C_9  and  C_10 
REMARK    4  A    between atoms: C_11  and  C_12 
REMARK    5  A    between atoms: C_13  and  O_14 
REMARK    6  A    between atoms: N_20  and  C_21 
REMARK    7  A    between atoms: C_24  and  O_25 
ROOT
HETATM    1  C   UNL     1     -44.772  58.568 -57.113  1.00  0.00     0.106 C 
HETATM    2  C   UNL     1     -44.392  60.006 -57.502  1.00  0.00     0.142 C 
HETATM    3  N   UNL     1     -43.634  60.083 -58.783  1.00  0.00    -0.308 N 
HETATM    4  C   UNL     1     -43.988  59.263 -59.867  1.00  0.00     0.225 C 
HETATM    5  O   UNL     1     -43.736  59.512 -61.046  1.00  0.00    -0.273 OA
HETATM    6  C   UNL     1     -44.615  57.918 -59.544  1.00  0.00     0.104 C 
HETATM    7  C   UNL     1     -45.433  57.840 -58.274  1.00  0.00     0.026 C 
ENDROOT
BRANCH   1   8
HETATM    8  C   UNL     1     -43.609  57.749 -56.537  1.00  0.00     0.228 C 
HETATM    9  N   UNL     1     -43.869  56.405 -56.352  1.00  0.00    -0.327 N 
HETATM   10  H   UNL     1     -44.663  56.008 -56.840  1.00  0.00     0.169 HD
HETATM   11  O   UNL     1     -42.583  58.329 -56.190  1.00  0.00    -0.273 OA
BRANCH   9  12
HETATM   12  C   UNL     1     -43.167  55.502 -55.526  1.00  0.00     0.034 A 
HETATM   13  C   UNL     1     -41.980  54.869 -55.891  1.00  0.00     0.032 A 
HETATM   14  C   UNL     1     -41.285  54.066 -54.973  1.00  0.00     0.032 A 
HETATM   15  C   UNL     1     -41.765  53.885 -53.678  1.00  0.00     0.034 A 
HETATM   16  C   UNL     1     -42.973  54.494 -53.322  1.00  0.00     0.032 A 
HETATM   17  C   UNL     1     -43.667  55.296 -54.236  1.00  0.00     0.032 A 
BRANCH  15  18
HETATM   18  N   UNL     1     -41.097  53.142 -52.682  1.00  0.00    -0.328 N 
HETATM   19  C   UNL     1     -40.111  52.190 -52.863  1.00  0.00     0.218 C 
HETATM   20  C   UNL     1     -39.565  51.653 -51.562  1.00  0.00     0.117 C 
HETATM   21  O   UNL     1     -39.657  51.792 -53.930  1.00  0.00    -0.274 OA
HETATM   22  H   UNL     1     -41.350  53.363 -51.727  1.00  0.00     0.169 HD
ENDBRANCH  15  18
ENDBRANCH   9  12
ENDBRANCH   1   8
BRANCH   2  23
HETATM   23  C   UNL     1     -45.636  60.913 -57.475  1.00  0.00    -0.001 A 
HETATM   24  C   UNL     1     -46.019  61.541 -56.268  1.00  0.00     0.076 A 
HETATM   25  C   UNL     1     -47.186  62.312 -56.219  1.00  0.00     0.037 A 
HETATM   26  C   UNL     1     -47.975  62.476 -57.357  1.00  0.00     0.003 A 
HETATM   27  C   UNL     1     -47.600  61.880 -58.554  1.00  0.00     0.001 A 
HETATM   28  C   UNL     1     -46.440  61.106 -58.614  1.00  0.00     0.012 A 
BRANCH  24  29
HETATM   29  O   UNL     1     -45.189  61.331 -55.197  1.00  0.00    -0.355 OA
HETATM   30  C   UNL     1     -45.795  61.195 -53.916  1.00  0.00     0.210 C 
ENDBRANCH  24  29
ENDBRANCH   2  23
BRANCH   3  31
HETATM   31  C   UNL     1     -42.659  61.148 -58.940  1.00  0.00     0.038 A 
HETATM   32  C   UNL     1     -41.360  61.024 -58.426  1.00  0.00     0.032 A 
HETATM   33  C   UNL     1     -40.435  62.074 -58.511  1.00  0.00     0.039 A 
HETATM   34  C   UNL     1     -40.780  63.285 -59.103  1.00  0.00     0.068 A 
HETATM   35  C   UNL     1     -42.059  63.430 -59.625  1.00  0.00     0.039 A 
HETATM   36  C   UNL     1     -42.985  62.376 -59.540  1.00  0.00     0.032 A 
BRANCH  34  37
HETATM   37  O   UNL     1     -39.794  64.230 -59.109  1.00  0.00    -0.356 OA
HETATM   38  C   UNL     1     -38.943  64.265 -60.247  1.00  0.00     0.210 C 
ENDBRANCH  34  37
ENDBRANCH   3  31
TORSDOF 7
ENDMDL
MODEL 10
REMARK VINA RESULT:      -6.5      3.396      6.648
REMARK  7 active torsions:
REMARK  status: ('A' for Active; 'I' for Inactive)
REMARK       I    between atoms: C_2  and  N_3 
REMARK    1  A    between atoms: N_3  and  C_4 
REMARK    2  A    between atoms: C_7  and  N_8 
REMARK       I    between atoms: N_8  and  C_9 
REMARK    3  A    between atoms: C_9  and  C_10 
REMARK    4  A    between atoms: C_11  and  C_12 
REMARK    5  A    between atoms: C_13  and  O_14 
REMARK    6  A    between atoms: N_20  and  C_21 
REMARK    7  A    between atoms: C_24  and  O_25 
ROOT
HETATM    1  C   UNL     1     -44.706  57.132 -57.720  1.00  0.00     0.106 C 
HETATM    2  C   UNL     1     -44.595  58.157 -58.860  1.00  0.00     0.142 C 
HETATM    3  N   UNL     1     -43.237  58.201 -59.473  1.00  0.00    -0.308 N 
HETATM    4  C   UNL     1     -42.516  57.015 -59.688  1.00  0.00     0.225 C 
HETATM    5  O   UNL     1     -41.622  56.878 -60.522  1.00  0.00    -0.273 OA
HETATM    6  C   UNL     1     -42.779  55.862 -58.735  1.00  0.00     0.104 C 
HETATM    7  C   UNL     1     -44.170  55.773 -58.147  1.00  0.00     0.026 C 
ENDROOT
BRANCH   1   8
HETATM    8  C   UNL     1     -44.067  57.590 -56.403  1.00  0.00     0.228 C 
HETATM    9  N   UNL     1     -44.795  57.307 -55.263  1.00  0.00    -0.327 N 
HETATM   10  H   UNL     1     -45.524  56.607 -55.334  1.00  0.00     0.169 HD
HETATM   11  O   UNL     1     -43.030  58.249 -56.439  1.00  0.00    -0.273 OA
BRANCH   9  12
HETATM   12  C   UNL     1     -44.664  57.905 -53.992  1.00  0.00     0.034 A 
HETATM   13  C   UNL     1     -44.080  57.283 -52.891  1.00  0.00     0.032 A 
HETATM   14  C   UNL     1     -43.891  57.983 -51.689  1.00  0.00     0.032 A 
HETATM   15  C   UNL     1     -44.282  59.315 -51.571  1.00  0.00     0.034 A 
HETATM   16  C   UNL     1     -44.898  59.930 -52.667  1.00  0.00     0.032 A 
HETATM   17  C   UNL     1     -45.087  59.232 -53.866  1.00  0.00     0.032 A 
BRANCH  15  18
HETATM   18  N   UNL     1     -44.076  60.103 -50.419  1.00  0.00    -0.328 N 
HETATM   19  C   UNL     1     -45.038  60.688 -49.618  1.00  0.00     0.218 C 
HETATM   20  C   UNL     1     -44.454  61.397 -48.419  1.00  0.00     0.117 C 
HETATM   21  O   UNL     1     -46.253  60.656 -49.781  1.00  0.00    -0.274 OA
HETATM   22  H   UNL     1     -43.111  60.217 -50.135  1.00  0.00     0.169 HD
ENDBRANCH  15  18
ENDBRANCH   9  12
ENDBRANCH   1   8
BRANCH   2  23
HETATM   23  C   UNL     1     -45.719  57.939 -59.888  1.00  0.00    -0.001 A 
HETATM   24  C   UNL     1     -46.529  59.028 -60.282  1.00  0.00     0.076 A 
HETATM   25  C   UNL     1     -47.597  58.826 -61.163  1.00  0.00     0.037 A 
HETATM   26  C   UNL     1     -47.868  57.554 -61.668  1.00  0.00     0.003 A 
HETATM   27  C   UNL     1     -47.069  56.478 -61.303  1.00  0.00     0.001 A 
HETATM   28  C   UNL     1     -46.003  56.667 -60.422  1.00  0.00     0.012 A 
BRANCH  24  29
HETATM   29  O   UNL     1     -46.196  60.245 -59.742  1.00  0.00    -0.355 OA
HETATM   30  C   UNL     1     -46.230  61.375 -60.605  1.00  0.00     0.210 C 
ENDBRANCH  24  29
ENDBRANCH   2  23
BRANCH   3  31
HETATM   31  C   UNL     1     -42.768  59.466 -60.012  1.00  0.00     0.038 A 
HETATM   32  C   UNL     1     -43.026  59.828 -61.342  1.00  0.00     0.032 A 
HETATM   33  C   UNL     1     -42.518  61.014 -61.891  1.00  0.00     0.039 A 
HETATM   34  C   UNL     1     -41.728  61.873 -61.132  1.00  0.00     0.068 A 
HETATM   35  C   UNL     1     -41.465  61.539 -59.809  1.00  0.00     0.039 A 
HETATM   36  C   UNL     1     -41.975  60.350 -59.261  1.00  0.00     0.032 A 
BRANCH  34  37
HETATM   37  O   UNL     1     -41.285  62.985 -61.788  1.00  0.00    -0.356 OA
HETATM   38  C   UNL     1     -39.879  63.122 -61.945  1.00  0.00     0.210 C 
ENDBRANCH  34  37
ENDBRANCH   3  31
TORSDOF 7
ENDMDL
