MODEL 1
REMARK VINA RESULT:      -7.9      0.000      0.000
REMARK  8 active torsions:
REMARK  status: ('A' for Active; 'I' for Inactive)
REMARK    1  A    between atoms: C_2  and  O_3 
REMARK    2  A    between atoms: O_3  and  C_4 
REMARK    3  A    between atoms: C_4  and  C_5 
REMARK    4  A    between atoms: N_7  and  C_9 
REMARK    5  A    between atoms: C_9  and  C_10 
REMARK       I    between atoms: C_10  and  N_11 
REMARK    6  A    between atoms: N_11  and  C_12 
REMARK    7  A    between atoms: C_20  and  C_21 
REMARK       I    between atoms: C_21  and  N_22 
REMARK    8  A    between atoms: N_22  and  C_23 
ROOT
HETATM    1  C   UNL     1     -40.668  54.069 -51.930  1.00  0.00     0.093 C 
HETATM    2  S   UNL     1     -40.172  52.898 -50.807  1.00  0.00    -0.075 SA
HETATM    3  C   UNL     1     -39.964  51.738 -52.015  1.00  0.00    -0.008 C 
HETATM    4  C   UNL     1     -40.243  52.220 -53.285  1.00  0.00    -0.026 C 
HETATM    5  C   UNL     1     -40.180  51.282 -54.465  1.00  0.00     0.041 C 
HETATM    6  C   UNL     1     -40.190  49.803 -54.050  1.00  0.00     0.005 C 
HETATM    7  C   UNL     1     -39.198  49.538 -52.914  1.00  0.00     0.005 C 
HETATM    8  C   UNL     1     -39.574  50.332 -51.660  1.00  0.00     0.047 C 
HETATM    9  C   UNL     1     -40.564  53.645 -53.256  1.00  0.00     0.073 C 
ENDROOT
BRANCH   1  10
HETATM   10  N   UNL     1     -41.027  55.336 -51.480  1.00  0.00    -0.319 N 
HETATM   11  C   UNL     1     -42.322  55.795 -51.414  1.00  0.00     0.248 C 
HETATM   12  O   UNL     1     -43.340  55.256 -51.858  1.00  0.00    -0.271 OA
HETATM   13  H   UNL     1     -40.257  56.010 -51.492  1.00  0.00     0.169 HD
BRANCH  11  14
HETATM   14  C   UNL     1     -42.501  57.145 -50.715  1.00  0.00     0.337 C 
BRANCH  14  15
HETATM   15  N   UNL     1     -42.838  58.206 -51.779  1.00  0.00    -0.062 N 
HETATM   16  C   UNL     1     -44.124  58.949 -51.464  1.00  0.00     0.249 C 
HETATM   17  C   UNL     1     -44.542  59.774 -52.680  1.00  0.00     0.111 C 
HETATM   18  C   UNL     1     -43.414  60.713 -53.112  1.00  0.00     0.018 C 
HETATM   19  C   UNL     1     -42.101  59.961 -53.329  1.00  0.00     0.029 C 
HETATM   20  C   UNL     1     -41.705  59.121 -52.120  1.00  0.00     0.235 C 
HETATM   21  H   UNL     1     -43.054  57.620 -52.609  1.00  0.00     0.280 HD
BRANCH  17  22
HETATM   22  C   UNL     1     -45.793  60.543 -52.318  1.00  0.00     0.264 C 
HETATM   23  O   UNL     1     -46.500  61.108 -53.140  1.00  0.00    -0.265 OA
BRANCH  22  24
HETATM   24  O   UNL     1     -45.984  60.530 -50.974  1.00  0.00    -0.322 OA
BRANCH  24  25
HETATM   25  C   UNL     1     -46.132  61.812 -50.339  1.00  0.00     0.174 C 
HETATM   26  C   UNL     1     -44.787  62.293 -49.830  1.00  0.00     0.034 C 
ENDBRANCH  24  25
ENDBRANCH  22  24
ENDBRANCH  17  22
ENDBRANCH  14  15
ENDBRANCH  11  14
ENDBRANCH   1  10
BRANCH   9  27
HETATM   27  C   UNL     1     -40.843  54.600 -54.358  1.00  0.00     0.259 C 
HETATM   28  N   UNL     1     -42.173  54.779 -54.676  1.00  0.00    -0.323 N 
HETATM   29  H   UNL     1     -42.840  54.208 -54.185  1.00  0.00     0.169 HD
HETATM   30  O   UNL     1     -39.903  55.144 -54.940  1.00  0.00    -0.267 OA
BRANCH  28  31
HETATM   31  C   UNL     1     -42.740  55.643 -55.636  1.00  0.00     0.035 A 
HETATM   32  C   UNL     1     -42.810  55.370 -57.003  1.00  0.00     0.031 A 
HETATM   33  C   UNL     1     -43.396  56.293 -57.880  1.00  0.00     0.026 A 
HETATM   34  C   UNL     1     -43.902  57.496 -57.395  1.00  0.00     0.034 A 
HETATM   35 CL   UNL     1     -44.613  58.628 -58.476  1.00  0.00    -0.084 Cl
HETATM   36  C   UNL     1     -43.833  57.785 -56.036  1.00  0.00     0.026 A 
HETATM   37  C   UNL     1     -43.258  56.859 -55.161  1.00  0.00     0.031 A 
ENDBRANCH  28  31
ENDBRANCH   9  27
TORSDOF 8
ENDMDL
MODEL 2
REMARK VINA RESULT:      -7.8      1.049      1.900
REMARK  8 active torsions:
REMARK  status: ('A' for Active; 'I' for Inactive)
REMARK    1  A    between atoms: C_2  and  O_3 
REMARK    2  A    between atoms: O_3  and  C_4 
REMARK    3  A    between atoms: C_4  and  C_5 
REMARK    4  A    between atoms: N_7  and  C_9 
REMARK    5  A    between atoms: C_9  and  C_10 
REMARK       I    between atoms: C_10  and  N_11 
REMARK    6  A    between atoms: N_11  and  C_12 
REMARK    7  A    between atoms: C_20  and  C_21 
REMARK       I    between atoms: C_21  and  N_22 
REMARK    8  A    between atoms: N_22  and  C_23 
ROOT
HETATM    1  C   UNL     1     -40.774  54.110 -51.996  1.00  0.00     0.093 C 
HETATM    2  S   UNL     1     -40.348  52.992 -50.794  1.00  0.00    -0.075 SA
HETATM    3  C   UNL     1     -40.034  51.790 -51.937  1.00  0.00    -0.008 C 
HETATM    4  C   UNL     1     -40.224  52.218 -53.242  1.00  0.00    -0.026 C 
HETATM    5  C   UNL     1     -40.061  51.237 -54.376  1.00  0.00     0.041 C 
HETATM    6  C   UNL     1     -40.082  49.775 -53.905  1.00  0.00     0.005 C 
HETATM    7  C   UNL     1     -39.174  49.571 -52.689  1.00  0.00     0.005 C 
HETATM    8  C   UNL     1     -39.653  50.406 -51.499  1.00  0.00     0.047 C 
HETATM    9  C   UNL     1     -40.566  53.638 -53.293  1.00  0.00     0.073 C 
ENDROOT
BRANCH   1  10
HETATM   10  N   UNL     1     -41.184  55.388 -51.624  1.00  0.00    -0.319 N 
HETATM   11  C   UNL     1     -42.496  55.799 -51.584  1.00  0.00     0.248 C 
HETATM   12  O   UNL     1     -43.491  55.194 -51.993  1.00  0.00    -0.271 OA
HETATM   13  H   UNL     1     -40.441  56.089 -51.679  1.00  0.00     0.169 HD
BRANCH  11  14
HETATM   14  C   UNL     1     -42.728  57.181 -50.969  1.00  0.00     0.337 C 
BRANCH  14  15
HETATM   15  N   UNL     1     -42.777  58.220 -52.105  1.00  0.00    -0.062 N 
HETATM   16  C   UNL     1     -44.094  58.975 -52.137  1.00  0.00     0.249 C 
HETATM   17  C   UNL     1     -44.187  59.775 -53.436  1.00  0.00     0.111 C 
HETATM   18  C   UNL     1     -42.977  60.700 -53.591  1.00  0.00     0.018 C 
HETATM   19  C   UNL     1     -41.659  59.937 -53.456  1.00  0.00     0.029 C 
HETATM   20  C   UNL     1     -41.587  59.123 -52.170  1.00  0.00     0.235 C 
HETATM   21  H   UNL     1     -42.784  57.617 -52.950  1.00  0.00     0.280 HD
BRANCH  17  22
HETATM   22  C   UNL     1     -45.481  60.557 -53.414  1.00  0.00     0.264 C 
HETATM   23  O   UNL     1     -46.335  60.425 -52.550  1.00  0.00    -0.265 OA
BRANCH  22  24
HETATM   24  O   UNL     1     -45.552  61.383 -54.488  1.00  0.00    -0.322 OA
BRANCH  24  25
HETATM   25  C   UNL     1     -45.839  60.762 -55.753  1.00  0.00     0.174 C 
HETATM   26  C   UNL     1     -44.856  61.247 -56.801  1.00  0.00     0.034 C 
ENDBRANCH  24  25
ENDBRANCH  22  24
ENDBRANCH  17  22
ENDBRANCH  14  15
ENDBRANCH  11  14
ENDBRANCH   1  10
BRANCH   9  27
HETATM   27  C   UNL     1     -40.775  54.546 -54.449  1.00  0.00     0.259 C 
HETATM   28  N   UNL     1     -42.088  54.849 -54.745  1.00  0.00    -0.323 N 
HETATM   29  H   UNL     1     -42.796  54.389 -54.200  1.00  0.00     0.169 HD
HETATM   30  O   UNL     1     -39.801  54.943 -55.090  1.00  0.00    -0.267 OA
BRANCH  28  31
HETATM   31  C   UNL     1     -42.588  55.708 -55.746  1.00  0.00     0.035 A 
HETATM   32  C   UNL     1     -42.882  57.059 -55.555  1.00  0.00     0.031 A 
HETATM   33  C   UNL     1     -43.375  57.833 -56.614  1.00  0.00     0.026 A 
HETATM   34  C   UNL     1     -43.587  57.256 -57.864  1.00  0.00     0.034 A 
HETATM   35 CL   UNL     1     -44.199  58.208 -59.158  1.00  0.00    -0.084 Cl
HETATM   36  C   UNL     1     -43.306  55.909 -58.067  1.00  0.00     0.026 A 
HETATM   37  C   UNL     1     -42.804  55.140 -57.012  1.00  0.00     0.031 A 
ENDBRANCH  28  31
ENDBRANCH   9  27
TORSDOF 8
ENDMDL
MODEL 3
REMARK VINA RESULT:      -7.7      3.579      6.866
REMARK  8 active torsions:
REMARK  status: ('A' for Active; 'I' for Inactive)
REMARK    1  A    between atoms: C_2  and  O_3 
REMARK    2  A    between atoms: O_3  and  C_4 
REMARK    3  A    between atoms: C_4  and  C_5 
REMARK    4  A    between atoms: N_7  and  C_9 
REMARK    5  A    between atoms: C_9  and  C_10 
REMARK       I    between atoms: C_10  and  N_11 
REMARK    6  A    between atoms: N_11  and  C_12 
REMARK    7  A    between atoms: C_20  and  C_21 
REMARK       I    between atoms: C_21  and  N_22 
REMARK    8  A    between atoms: N_22  and  C_23 
ROOT
HETATM    1  C   UNL     1     -44.849  58.423 -57.289  1.00  0.00     0.093 C 
HETATM    2  S   UNL     1     -46.213  58.789 -58.228  1.00  0.00    -0.075 SA
HETATM    3  C   UNL     1     -45.952  57.460 -59.236  1.00  0.00    -0.008 C 
HETATM    4  C   UNL     1     -44.848  56.707 -58.868  1.00  0.00    -0.026 C 
HETATM    5  C   UNL     1     -44.436  55.530 -59.716  1.00  0.00     0.041 C 
HETATM    6  C   UNL     1     -45.075  55.551 -61.113  1.00  0.00     0.005 C 
HETATM    7  C   UNL     1     -46.577  55.842 -61.031  1.00  0.00     0.005 C 
HETATM    8  C   UNL     1     -46.837  57.223 -60.425  1.00  0.00     0.047 C 
HETATM    9  C   UNL     1     -44.241  57.216 -57.639  1.00  0.00     0.073 C 
ENDROOT
BRANCH   1  10
HETATM   10  N   UNL     1     -44.510  59.255 -56.226  1.00  0.00    -0.319 N 
HETATM   11  C   UNL     1     -44.683  58.929 -54.901  1.00  0.00     0.248 C 
HETATM   12  O   UNL     1     -45.280  57.954 -54.433  1.00  0.00    -0.271 OA
HETATM   13  H   UNL     1     -44.410  60.239 -56.490  1.00  0.00     0.169 HD
BRANCH  11  14
HETATM   14  C   UNL     1     -44.070  59.912 -53.901  1.00  0.00     0.337 C 
BRANCH  14  15
HETATM   15  N   UNL     1     -42.882  59.223 -53.204  1.00  0.00    -0.062 N 
HETATM   16  C   UNL     1     -43.325  58.076 -52.313  1.00  0.00     0.249 C 
HETATM   17  C   UNL     1     -42.149  57.626 -51.447  1.00  0.00     0.111 C 
HETATM   18  C   UNL     1     -40.944  57.260 -52.317  1.00  0.00     0.018 C 
HETATM   19  C   UNL     1     -40.574  58.390 -53.278  1.00  0.00     0.029 C 
HETATM   20  C   UNL     1     -41.760  58.849 -54.119  1.00  0.00     0.235 C 
HETATM   21  H   UNL     1     -42.551  59.964 -52.556  1.00  0.00     0.280 HD
BRANCH  17  22
HETATM   22  C   UNL     1     -42.604  56.449 -50.612  1.00  0.00     0.264 C 
HETATM   23  O   UNL     1     -43.739  55.995 -50.647  1.00  0.00    -0.265 OA
BRANCH  22  24
HETATM   24  O   UNL     1     -41.592  56.010 -49.823  1.00  0.00    -0.322 OA
BRANCH  24  25
HETATM   25  C   UNL     1     -41.596  54.608 -49.502  1.00  0.00     0.174 C 
HETATM   26  C   UNL     1     -40.532  54.314 -48.462  1.00  0.00     0.034 C 
ENDBRANCH  24  25
ENDBRANCH  22  24
ENDBRANCH  17  22
ENDBRANCH  14  15
ENDBRANCH  11  14
ENDBRANCH   1  10
BRANCH   9  27
HETATM   27  C   UNL     1     -43.111  56.698 -56.827  1.00  0.00     0.259 C 
HETATM   28  N   UNL     1     -43.408  55.644 -55.988  1.00  0.00    -0.323 N 
HETATM   29  H   UNL     1     -44.369  55.353 -55.945  1.00  0.00     0.169 HD
HETATM   30  O   UNL     1     -42.007  57.237 -56.913  1.00  0.00    -0.267 OA
BRANCH  28  31
HETATM   31  C   UNL     1     -42.542  54.923 -55.140  1.00  0.00     0.035 A 
HETATM   32  C   UNL     1     -41.233  54.565 -55.466  1.00  0.00     0.031 A 
HETATM   33  C   UNL     1     -40.447  53.848 -54.553  1.00  0.00     0.026 A 
HETATM   34  C   UNL     1     -40.971  53.478 -53.318  1.00  0.00     0.034 A 
HETATM   35 CL   UNL     1     -40.005  52.593 -52.205  1.00  0.00    -0.084 Cl
HETATM   36  C   UNL     1     -42.276  53.822 -52.981  1.00  0.00     0.026 A 
HETATM   37  C   UNL     1     -43.056  54.546 -53.888  1.00  0.00     0.031 A 
ENDBRANCH  28  31
ENDBRANCH   9  27
TORSDOF 8
ENDMDL
MODEL 4
REMARK VINA RESULT:      -7.7      3.438      6.467
REMARK  8 active torsions:
REMARK  status: ('A' for Active; 'I' for Inactive)
REMARK    1  A    between atoms: C_2  and  O_3 
REMARK    2  A    between atoms: O_3  and  C_4 
REMARK    3  A    between atoms: C_4  and  C_5 
REMARK    4  A    between atoms: N_7  and  C_9 
REMARK    5  A    between atoms: C_9  and  C_10 
REMARK       I    between atoms: C_10  and  N_11 
REMARK    6  A    between atoms: N_11  and  C_12 
REMARK    7  A    between atoms: C_20  and  C_21 
REMARK       I    between atoms: C_21  and  N_22 
REMARK    8  A    between atoms: N_22  and  C_23 
ROOT
HETATM    1  C   UNL     1     -41.123  54.917 -54.503  1.00  0.00     0.093 C 
HETATM    2  S   UNL     1     -40.527  53.330 -54.558  1.00  0.00    -0.075 SA
HETATM    3  C   UNL     1     -40.416  53.248 -52.876  1.00  0.00    -0.008 C 
HETATM    4  C   UNL     1     -40.846  54.406 -52.246  1.00  0.00    -0.026 C 
HETATM    5  C   UNL     1     -40.735  54.519 -50.746  1.00  0.00     0.041 C 
HETATM    6  C   UNL     1     -39.789  53.472 -50.138  1.00  0.00     0.005 C 
HETATM    7  C   UNL     1     -40.074  52.076 -50.698  1.00  0.00     0.005 C 
HETATM    8  C   UNL     1     -39.840  52.032 -52.210  1.00  0.00     0.047 C 
HETATM    9  C   UNL     1     -41.371  55.373 -53.208  1.00  0.00     0.073 C 
ENDROOT
BRANCH   1  10
HETATM   10  N   UNL     1     -41.404  55.582 -55.694  1.00  0.00    -0.319 N 
HETATM   11  C   UNL     1     -42.672  55.800 -56.178  1.00  0.00     0.248 C 
HETATM   12  O   UNL     1     -43.736  55.341 -55.750  1.00  0.00    -0.271 OA
HETATM   13  H   UNL     1     -40.608  55.627 -56.336  1.00  0.00     0.169 HD
BRANCH  11  14
HETATM   14  C   UNL     1     -42.755  56.712 -57.405  1.00  0.00     0.337 C 
BRANCH  14  15
HETATM   15  N   UNL     1     -43.953  56.268 -58.264  1.00  0.00    -0.062 N 
HETATM   16  C   UNL     1     -44.796  57.443 -58.726  1.00  0.00     0.249 C 
HETATM   17  C   UNL     1     -46.103  56.925 -59.325  1.00  0.00     0.111 C 
HETATM   18  C   UNL     1     -45.824  55.924 -60.450  1.00  0.00     0.018 C 
HETATM   19  C   UNL     1     -44.894  54.801 -59.993  1.00  0.00     0.029 C 
HETATM   20  C   UNL     1     -43.604  55.330 -59.375  1.00  0.00     0.235 C 
HETATM   21  H   UNL     1     -44.541  55.763 -57.573  1.00  0.00     0.280 HD
BRANCH  17  22
HETATM   22  C   UNL     1     -46.895  58.112 -59.825  1.00  0.00     0.264 C 
HETATM   23  O   UNL     1     -47.373  58.963 -59.089  1.00  0.00    -0.265 OA
BRANCH  22  24
HETATM   24  O   UNL     1     -47.009  58.069 -61.176  1.00  0.00    -0.322 OA
BRANCH  24  25
HETATM   25  C   UNL     1     -48.326  58.281 -61.712  1.00  0.00     0.174 C 
HETATM   26  C   UNL     1     -48.684  57.153 -62.661  1.00  0.00     0.034 C 
ENDBRANCH  24  25
ENDBRANCH  22  24
ENDBRANCH  17  22
ENDBRANCH  14  15
ENDBRANCH  11  14
ENDBRANCH   1  10
BRANCH   9  27
HETATM   27  C   UNL     1     -42.011  56.697 -53.002  1.00  0.00     0.259 C 
HETATM   28  N   UNL     1     -43.375  56.678 -52.796  1.00  0.00    -0.323 N 
HETATM   29  H   UNL     1     -43.834  55.787 -52.862  1.00  0.00     0.169 HD
HETATM   30  O   UNL     1     -41.323  57.717 -53.058  1.00  0.00    -0.267 OA
BRANCH  28  31
HETATM   31  C   UNL     1     -44.240  57.761 -52.532  1.00  0.00     0.035 A 
HETATM   32  C   UNL     1     -44.819  58.026 -51.290  1.00  0.00     0.031 A 
HETATM   33  C   UNL     1     -45.666  59.130 -51.125  1.00  0.00     0.026 A 
HETATM   34  C   UNL     1     -45.945  59.966 -52.203  1.00  0.00     0.034 A 
HETATM   35 CL   UNL     1     -46.991  61.315 -51.997  1.00  0.00    -0.084 Cl
HETATM   36  C   UNL     1     -45.381  59.710 -53.448  1.00  0.00     0.026 A 
HETATM   37  C   UNL     1     -44.528  58.614 -53.609  1.00  0.00     0.031 A 
ENDBRANCH  28  31
ENDBRANCH   9  27
TORSDOF 8
ENDMDL
MODEL 5
REMARK VINA RESULT:      -7.6      2.153      3.246
REMARK  8 active torsions:
REMARK  status: ('A' for Active; 'I' for Inactive)
REMARK    1  A    between atoms: C_2  and  O_3 
REMARK    2  A    between atoms: O_3  and  C_4 
REMARK    3  A    between atoms: C_4  and  C_5 
REMARK    4  A    between atoms: N_7  and  C_9 
REMARK    5  A    between atoms: C_9  and  C_10 
REMARK       I    between atoms: C_10  and  N_11 
REMARK    6  A    between atoms: N_11  and  C_12 
REMARK    7  A    between atoms: C_20  and  C_21 
REMARK       I    between atoms: C_21  and  N_22 
REMARK    8  A    between atoms: N_22  and  C_23 
ROOT
HETATM    1  C   UNL     1     -42.718  54.648 -51.936  1.00  0.00     0.093 C 
HETATM    2  S   UNL     1     -41.750  53.922 -50.748  1.00  0.00    -0.075 SA
HETATM    3  C   UNL     1     -40.902  53.024 -51.900  1.00  0.00    -0.008 C 
HETATM    4  C   UNL     1     -41.320  53.274 -53.198  1.00  0.00    -0.026 C 
HETATM    5  C   UNL     1     -40.714  52.491 -54.336  1.00  0.00     0.041 C 
HETATM    6  C   UNL     1     -39.977  51.228 -53.863  1.00  0.00     0.005 C 
HETATM    7  C   UNL     1     -39.057  51.534 -52.678  1.00  0.00     0.005 C 
HETATM    8  C   UNL     1     -39.860  52.032 -51.474  1.00  0.00     0.047 C 
HETATM    9  C   UNL     1     -42.336  54.324 -53.239  1.00  0.00     0.073 C 
ENDROOT
BRANCH   1  10
HETATM   10  N   UNL     1     -43.708  55.548 -51.552  1.00  0.00    -0.319 N 
HETATM   11  C   UNL     1     -43.493  56.890 -51.338  1.00  0.00     0.248 C 
HETATM   12  O   UNL     1     -42.414  57.487 -51.299  1.00  0.00    -0.271 OA
HETATM   13  H   UNL     1     -44.533  55.102 -51.144  1.00  0.00     0.169 HD
BRANCH  11  14
HETATM   14  C   UNL     1     -44.756  57.724 -51.106  1.00  0.00     0.337 C 
BRANCH  14  15
HETATM   15  N   UNL     1     -44.756  58.899 -52.101  1.00  0.00    -0.062 N 
HETATM   16  C   UNL     1     -45.075  58.454 -53.517  1.00  0.00     0.249 C 
HETATM   17  C   UNL     1     -44.786  59.600 -54.485  1.00  0.00     0.111 C 
HETATM   18  C   UNL     1     -45.554  60.861 -54.079  1.00  0.00     0.018 C 
HETATM   19  C   UNL     1     -45.296  61.236 -52.620  1.00  0.00     0.029 C 
HETATM   20  C   UNL     1     -45.564  60.079 -51.665  1.00  0.00     0.235 C 
HETATM   21  H   UNL     1     -43.753  59.170 -52.117  1.00  0.00     0.280 HD
BRANCH  17  22
HETATM   22  C   UNL     1     -45.165  59.147 -55.878  1.00  0.00     0.264 C 
HETATM   23  O   UNL     1     -45.601  58.033 -56.129  1.00  0.00    -0.265 OA
BRANCH  22  24
HETATM   24  O   UNL     1     -44.927  60.133 -56.778  1.00  0.00    -0.322 OA
BRANCH  24  25
HETATM   25  C   UNL     1     -45.629  60.038 -58.029  1.00  0.00     0.174 C 
HETATM   26  C   UNL     1     -45.197  61.164 -58.949  1.00  0.00     0.034 C 
ENDBRANCH  24  25
ENDBRANCH  22  24
ENDBRANCH  17  22
ENDBRANCH  14  15
ENDBRANCH  11  14
ENDBRANCH   1  10
BRANCH   9  27
HETATM   27  C   UNL     1     -43.009  54.979 -54.389  1.00  0.00     0.259 C 
HETATM   28  N   UNL     1     -42.178  55.421 -55.398  1.00  0.00    -0.323 N 
HETATM   29  H   UNL     1     -41.189  55.322 -55.250  1.00  0.00     0.169 HD
HETATM   30  O   UNL     1     -44.232  55.125 -54.372  1.00  0.00    -0.267 OA
BRANCH  28  31
HETATM   31  C   UNL     1     -42.526  56.034 -56.619  1.00  0.00     0.035 A 
HETATM   32  C   UNL     1     -43.234  55.407 -57.646  1.00  0.00     0.031 A 
HETATM   33  C   UNL     1     -43.535  56.101 -58.826  1.00  0.00     0.026 A 
HETATM   34  C   UNL     1     -43.120  57.420 -58.987  1.00  0.00     0.034 A 
HETATM   35 CL   UNL     1     -43.486  58.265 -60.438  1.00  0.00    -0.084 Cl
HETATM   36  C   UNL     1     -42.408  58.057 -57.976  1.00  0.00     0.026 A 
HETATM   37  C   UNL     1     -42.117  57.366 -56.795  1.00  0.00     0.031 A 
ENDBRANCH  28  31
ENDBRANCH   9  27
TORSDOF 8
ENDMDL
MODEL 6
REMARK VINA RESULT:      -7.6      3.605      6.835
REMARK  8 active torsions:
REMARK  status: ('A' for Active; 'I' for Inactive)
REMARK    1  A    between atoms: C_2  and  O_3 
REMARK    2  A    between atoms: O_3  and  C_4 
REMARK    3  A    between atoms: C_4  and  C_5 
REMARK    4  A    between atoms: N_7  and  C_9 
REMARK    5  A    between atoms: C_9  and  C_10 
REMARK       I    between atoms: C_10  and  N_11 
REMARK    6  A    between atoms: N_11  and  C_12 
REMARK    7  A    between atoms: C_20  and  C_21 
REMARK       I    between atoms: C_21  and  N_22 
REMARK    8  A    between atoms: N_22  and  C_23 
ROOT
HETATM    1  C   UNL     1     -44.490  58.569 -57.068  1.00  0.00     0.093 C 
HETATM    2  S   UNL     1     -45.674  58.931 -58.226  1.00  0.00    -0.075 SA
HETATM    3  C   UNL     1     -45.398  57.485 -59.051  1.00  0.00    -0.008 C 
HETATM    4  C   UNL     1     -44.425  56.697 -58.456  1.00  0.00    -0.026 C 
HETATM    5  C   UNL     1     -44.007  55.407 -59.118  1.00  0.00     0.041 C 
HETATM    6  C   UNL     1     -44.446  55.324 -60.588  1.00  0.00     0.005 C 
HETATM    7  C   UNL     1     -45.913  55.732 -60.753  1.00  0.00     0.005 C 
HETATM    8  C   UNL     1     -46.129  57.187 -60.328  1.00  0.00     0.047 C 
HETATM    9  C   UNL     1     -43.949  57.289 -57.208  1.00  0.00     0.073 C 
ENDROOT
BRANCH   1  10
HETATM   10  N   UNL     1     -44.226  59.484 -56.053  1.00  0.00    -0.319 N 
HETATM   11  C   UNL     1     -43.454  60.611 -56.209  1.00  0.00     0.248 C 
HETATM   12  O   UNL     1     -42.764  60.928 -57.182  1.00  0.00    -0.271 OA
HETATM   13  H   UNL     1     -44.384  59.111 -55.113  1.00  0.00     0.169 HD
BRANCH  11  14
HETATM   14  C   UNL     1     -43.451  61.571 -55.015  1.00  0.00     0.337 C 
BRANCH  14  15
HETATM   15  N   UNL     1     -43.460  60.739 -53.720  1.00  0.00    -0.062 N 
HETATM   16  C   UNL     1     -42.067  60.298 -53.309  1.00  0.00     0.249 C 
HETATM   17  C   UNL     1     -42.173  59.259 -52.194  1.00  0.00     0.111 C 
HETATM   18  C   UNL     1     -42.984  59.806 -51.017  1.00  0.00     0.018 C 
HETATM   19  C   UNL     1     -44.346  60.337 -51.465  1.00  0.00     0.029 C 
HETATM   20  C   UNL     1     -44.231  61.354 -52.595  1.00  0.00     0.235 C 
HETATM   21  H   UNL     1     -43.946  59.872 -54.021  1.00  0.00     0.280 HD
BRANCH  17  22
HETATM   22  C   UNL     1     -40.771  58.880 -51.770  1.00  0.00     0.264 C 
HETATM   23  O   UNL     1     -39.763  59.282 -52.333  1.00  0.00    -0.265 OA
BRANCH  22  24
HETATM   24  O   UNL     1     -40.811  58.028 -50.715  1.00  0.00    -0.322 OA
BRANCH  24  25
HETATM   25  C   UNL     1     -41.093  56.650 -51.018  1.00  0.00     0.174 C 
HETATM   26  C   UNL     1     -41.321  55.876 -49.733  1.00  0.00     0.034 C 
ENDBRANCH  24  25
ENDBRANCH  22  24
ENDBRANCH  17  22
ENDBRANCH  14  15
ENDBRANCH  11  14
ENDBRANCH   1  10
BRANCH   9  27
HETATM   27  C   UNL     1     -42.991  56.780 -56.195  1.00  0.00     0.259 C 
HETATM   28  N   UNL     1     -43.197  55.483 -55.772  1.00  0.00    -0.323 N 
HETATM   29  H   UNL     1     -44.008  55.010 -56.131  1.00  0.00     0.169 HD
HETATM   30  O   UNL     1     -42.107  57.525 -55.768  1.00  0.00    -0.267 OA
BRANCH  28  31
HETATM   31  C   UNL     1     -42.434  54.721 -54.863  1.00  0.00     0.035 A 
HETATM   32  C   UNL     1     -42.828  54.417 -53.559  1.00  0.00     0.031 A 
HETATM   33  C   UNL     1     -41.999  53.650 -52.729  1.00  0.00     0.026 A 
HETATM   34  C   UNL     1     -40.769  53.196 -53.195  1.00  0.00     0.034 A 
HETATM   35 CL   UNL     1     -39.752  52.262 -52.171  1.00  0.00    -0.084 Cl
HETATM   36  C   UNL     1     -40.358  53.498 -54.490  1.00  0.00     0.026 A 
HETATM   37  C   UNL     1     -41.191  54.254 -55.320  1.00  0.00     0.031 A 
ENDBRANCH  28  31
ENDBRANCH   9  27
TORSDOF 8
ENDMDL
MODEL 7
REMARK VINA RESULT:      -7.5      4.281      8.446
REMARK  8 active torsions:
REMARK  status: ('A' for Active; 'I' for Inactive)
REMARK    1  A    between atoms: C_2  and  O_3 
REMARK    2  A    between atoms: O_3  and  C_4 
REMARK    3  A    between atoms: C_4  and  C_5 
REMARK    4  A    between atoms: N_7  and  C_9 
REMARK    5  A    between atoms: C_9  and  C_10 
REMARK       I    between atoms: C_10  and  N_11 
REMARK    6  A    between atoms: N_11  and  C_12 
REMARK    7  A    between atoms: C_20  and  C_21 
REMARK       I    between atoms: C_21  and  N_22 
REMARK    8  A    between atoms: N_22  and  C_23 
ROOT
HETATM    1  C   UNL     1     -42.365  59.866 -54.884  1.00  0.00     0.093 C 
HETATM    2  S   UNL     1     -43.157  61.360 -54.753  1.00  0.00    -0.075 SA
HETATM    3  C   UNL     1     -43.054  61.337 -53.068  1.00  0.00    -0.008 C 
HETATM    4  C   UNL     1     -42.402  60.215 -52.579  1.00  0.00    -0.026 C 
HETATM    5  C   UNL     1     -42.298  60.008 -51.089  1.00  0.00     0.041 C 
HETATM    6  C   UNL     1     -43.279  60.886 -50.297  1.00  0.00     0.005 C 
HETATM    7  C   UNL     1     -43.248  62.336 -50.789  1.00  0.00     0.005 C 
HETATM    8  C   UNL     1     -43.684  62.428 -52.253  1.00  0.00     0.047 C 
HETATM    9  C   UNL     1     -41.892  59.379 -53.665  1.00  0.00     0.073 C 
ENDROOT
BRANCH   1  10
HETATM   10  N   UNL     1     -42.164  59.309 -56.144  1.00  0.00    -0.319 N 
HETATM   11  C   UNL     1     -42.939  58.309 -56.681  1.00  0.00     0.248 C 
HETATM   12  O   UNL     1     -43.817  57.647 -56.119  1.00  0.00    -0.271 OA
HETATM   13  H   UNL     1     -41.226  59.472 -56.520  1.00  0.00     0.169 HD
BRANCH  11  14
HETATM   14  C   UNL     1     -42.656  57.979 -58.149  1.00  0.00     0.337 C 
BRANCH  14  15
HETATM   15  N   UNL     1     -43.714  56.973 -58.637  1.00  0.00    -0.062 N 
HETATM   16  C   UNL     1     -44.792  57.635 -59.477  1.00  0.00     0.249 C 
HETATM   17  C   UNL     1     -45.942  56.652 -59.690  1.00  0.00     0.111 C 
HETATM   18  C   UNL     1     -45.433  55.347 -60.310  1.00  0.00     0.018 C 
HETATM   19  C   UNL     1     -44.281  54.748 -59.504  1.00  0.00     0.029 C 
HETATM   20  C   UNL     1     -43.150  55.744 -59.276  1.00  0.00     0.235 C 
HETATM   21  H   UNL     1     -44.183  56.703 -57.751  1.00  0.00     0.280 HD
BRANCH  17  22
HETATM   22  C   UNL     1     -46.973  57.318 -60.574  1.00  0.00     0.264 C 
HETATM   23  O   UNL     1     -47.285  58.496 -60.477  1.00  0.00    -0.265 OA
BRANCH  22  24
HETATM   24  O   UNL     1     -47.498  56.422 -61.447  1.00  0.00    -0.322 OA
BRANCH  24  25
HETATM   25  C   UNL     1     -48.708  56.816 -62.115  1.00  0.00     0.174 C 
HETATM   26  C   UNL     1     -48.448  56.980 -63.601  1.00  0.00     0.034 C 
ENDBRANCH  24  25
ENDBRANCH  22  24
ENDBRANCH  17  22
ENDBRANCH  14  15
ENDBRANCH  11  14
ENDBRANCH   1  10
BRANCH   9  27
HETATM   27  C   UNL     1     -41.070  58.143 -53.634  1.00  0.00     0.259 C 
HETATM   28  N   UNL     1     -41.764  56.957 -53.749  1.00  0.00    -0.323 N 
HETATM   29  H   UNL     1     -42.767  57.017 -53.781  1.00  0.00     0.169 HD
HETATM   30  O   UNL     1     -39.851  58.231 -53.477  1.00  0.00    -0.267 OA
BRANCH  28  31
HETATM   31  C   UNL     1     -41.257  55.641 -53.796  1.00  0.00     0.035 A 
HETATM   32  C   UNL     1     -40.677  55.057 -54.923  1.00  0.00     0.031 A 
HETATM   33  C   UNL     1     -40.199  53.740 -54.871  1.00  0.00     0.026 A 
HETATM   34  C   UNL     1     -40.310  53.001 -53.696  1.00  0.00     0.034 A 
HETATM   35 CL   UNL     1     -39.728  51.384 -53.640  1.00  0.00    -0.084 Cl
HETATM   36  C   UNL     1     -40.891  53.568 -52.567  1.00  0.00     0.026 A 
HETATM   37  C   UNL     1     -41.358  54.885 -52.617  1.00  0.00     0.031 A 
ENDBRANCH  28  31
ENDBRANCH   9  27
TORSDOF 8
ENDMDL
MODEL 8
REMARK VINA RESULT:      -7.5      3.561      6.721
REMARK  8 active torsions:
REMARK  status: ('A' for Active; 'I' for Inactive)
REMARK    1  A    between atoms: C_2  and  O_3 
REMARK    2  A    between atoms: O_3  and  C_4 
REMARK    3  A    between atoms: C_4  and  C_5 
REMARK    4  A    between atoms: N_7  and  C_9 
REMARK    5  A    between atoms: C_9  and  C_10 
REMARK       I    between atoms: C_10  and  N_11 
REMARK    6  A    between atoms: N_11  and  C_12 
REMARK    7  A    between atoms: C_20  and  C_21 
REMARK       I    between atoms: C_21  and  N_22 
REMARK    8  A    between atoms: N_22  and  C_23 
ROOT
HETATM    1  C   UNL     1     -41.192  54.986 -54.581  1.00  0.00     0.093 C 
HETATM    2  S   UNL     1     -40.459  53.460 -54.673  1.00  0.00    -0.075 SA
HETATM    3  C   UNL     1     -40.433  53.303 -52.992  1.00  0.00    -0.008 C 
HETATM    4  C   UNL     1     -40.995  54.388 -52.337  1.00  0.00    -0.026 C 
HETATM    5  C   UNL     1     -40.976  54.435 -50.829  1.00  0.00     0.041 C 
HETATM    6  C   UNL     1     -39.977  53.442 -50.216  1.00  0.00     0.005 C 
HETATM    7  C   UNL     1     -40.110  52.056 -50.854  1.00  0.00     0.005 C 
HETATM    8  C   UNL     1     -39.790  52.108 -52.350  1.00  0.00     0.047 C 
HETATM    9  C   UNL     1     -41.548  55.355 -53.283  1.00  0.00     0.073 C 
ENDROOT
BRANCH   1  10
HETATM   10  N   UNL     1     -41.464  55.684 -55.755  1.00  0.00    -0.319 N 
HETATM   11  C   UNL     1     -42.588  55.495 -56.524  1.00  0.00     0.248 C 
HETATM   12  O   UNL     1     -43.446  54.615 -56.408  1.00  0.00    -0.271 OA
HETATM   13  H   UNL     1     -40.639  56.122 -56.173  1.00  0.00     0.169 HD
BRANCH  11  14
HETATM   14  C   UNL     1     -42.774  56.498 -57.666  1.00  0.00     0.337 C 
BRANCH  14  15
HETATM   15  N   UNL     1     -44.020  56.093 -58.475  1.00  0.00    -0.062 N 
HETATM   16  C   UNL     1     -44.863  57.292 -58.870  1.00  0.00     0.249 C 
HETATM   17  C   UNL     1     -46.206  56.809 -59.415  1.00  0.00     0.111 C 
HETATM   18  C   UNL     1     -46.001  55.829 -60.573  1.00  0.00     0.018 C 
HETATM   19  C   UNL     1     -45.069  54.681 -60.186  1.00  0.00     0.029 C 
HETATM   20  C   UNL     1     -43.742  55.174 -59.621  1.00  0.00     0.235 C 
HETATM   21  H   UNL     1     -44.582  55.582 -57.767  1.00  0.00     0.280 HD
BRANCH  17  22
HETATM   22  C   UNL     1     -47.001  58.020 -59.850  1.00  0.00     0.264 C 
HETATM   23  O   UNL     1     -47.373  58.895 -59.082  1.00  0.00    -0.265 OA
BRANCH  22  24
HETATM   24  O   UNL     1     -47.249  57.969 -61.183  1.00  0.00    -0.322 OA
BRANCH  24  25
HETATM   25  C   UNL     1     -48.379  58.725 -61.651  1.00  0.00     0.174 C 
HETATM   26  C   UNL     1     -49.156  57.913 -62.670  1.00  0.00     0.034 C 
ENDBRANCH  24  25
ENDBRANCH  22  24
ENDBRANCH  17  22
ENDBRANCH  14  15
ENDBRANCH  11  14
ENDBRANCH   1  10
BRANCH   9  27
HETATM   27  C   UNL     1     -42.311  56.608 -53.056  1.00  0.00     0.259 C 
HETATM   28  N   UNL     1     -41.590  57.664 -52.536  1.00  0.00    -0.323 N 
HETATM   29  H   UNL     1     -40.631  57.486 -52.295  1.00  0.00     0.169 HD
HETATM   30  O   UNL     1     -43.518  56.635 -53.301  1.00  0.00    -0.267 OA
BRANCH  28  31
HETATM   31  C   UNL     1     -42.027  58.976 -52.258  1.00  0.00     0.035 A 
HETATM   32  C   UNL     1     -42.408  59.905 -53.227  1.00  0.00     0.031 A 
HETATM   33  C   UNL     1     -42.831  61.187 -52.852  1.00  0.00     0.026 A 
HETATM   34  C   UNL     1     -42.863  61.548 -51.508  1.00  0.00     0.034 A 
HETATM   35 CL   UNL     1     -43.376  63.124 -51.053  1.00  0.00    -0.084 Cl
HETATM   36  C   UNL     1     -42.480  60.635 -50.531  1.00  0.00     0.026 A 
HETATM   37  C   UNL     1     -42.068  59.353 -50.906  1.00  0.00     0.031 A 
ENDBRANCH  28  31
ENDBRANCH   9  27
TORSDOF 8
ENDMDL
MODEL 9
REMARK VINA RESULT:      -7.5      2.509      7.885
REMARK  8 active torsions:
REMARK  status: ('A' for Active; 'I' for Inactive)
REMARK    1  A    between atoms: C_2  and  O_3 
REMARK    2  A    between atoms: O_3  and  C_4 
REMARK    3  A    between atoms: C_4  and  C_5 
REMARK    4  A    between atoms: N_7  and  C_9 
REMARK    5  A    between atoms: C_9  and  C_10 
REMARK       I    between atoms: C_10  and  N_11 
REMARK    6  A    between atoms: N_11  and  C_12 
REMARK    7  A    between atoms: C_20  and  C_21 
REMARK       I    between atoms: C_21  and  N_22 
REMARK    8  A    between atoms: N_22  and  C_23 
ROOT
HETATM    1  C   UNL     1     -43.297  58.793 -52.146  1.00  0.00     0.093 C 
HETATM    2  S   UNL     1     -43.012  60.041 -51.033  1.00  0.00    -0.075 SA
HETATM    3  C   UNL     1     -43.340  61.229 -52.187  1.00  0.00    -0.008 C 
HETATM    4  C   UNL     1     -43.690  60.705 -53.422  1.00  0.00    -0.026 C 
HETATM    5  C   UNL     1     -43.936  61.637 -54.581  1.00  0.00     0.041 C 
HETATM    6  C   UNL     1     -43.382  63.049 -54.337  1.00  0.00     0.005 C 
HETATM    7  C   UNL     1     -43.773  63.566 -52.949  1.00  0.00     0.005 C 
HETATM    8  C   UNL     1     -43.183  62.682 -51.847  1.00  0.00     0.047 C 
HETATM    9  C   UNL     1     -43.770  59.245 -53.379  1.00  0.00     0.073 C 
ENDROOT
BRANCH   1  10
HETATM   10  N   UNL     1     -43.145  57.470 -51.740  1.00  0.00    -0.319 N 
HETATM   11  C   UNL     1     -44.094  56.760 -51.044  1.00  0.00     0.248 C 
HETATM   12  O   UNL     1     -45.140  57.183 -50.542  1.00  0.00    -0.271 OA
HETATM   13  H   UNL     1     -42.171  57.156 -51.722  1.00  0.00     0.169 HD
BRANCH  11  14
HETATM   14  C   UNL     1     -43.794  55.269 -50.867  1.00  0.00     0.337 C 
BRANCH  14  15
HETATM   15  N   UNL     1     -42.789  54.840 -51.951  1.00  0.00    -0.062 N 
HETATM   16  C   UNL     1     -41.926  53.673 -51.507  1.00  0.00     0.249 C 
HETATM   17  C   UNL     1     -40.781  53.483 -52.501  1.00  0.00     0.111 C 
HETATM   18  C   UNL     1     -41.320  53.306 -53.923  1.00  0.00     0.018 C 
HETATM   19  C   UNL     1     -42.266  54.440 -54.316  1.00  0.00     0.029 C 
HETATM   20  C   UNL     1     -43.390  54.638 -53.306  1.00  0.00     0.235 C 
HETATM   21  H   UNL     1     -42.149  55.657 -51.990  1.00  0.00     0.280 HD
BRANCH  17  22
HETATM   22  C   UNL     1     -39.973  52.281 -52.063  1.00  0.00     0.264 C 
HETATM   23  O   UNL     1     -39.872  51.924 -50.898  1.00  0.00    -0.265 OA
BRANCH  22  24
HETATM   24  O   UNL     1     -39.376  51.698 -53.132  1.00  0.00    -0.322 OA
BRANCH  24  25
HETATM   25  C   UNL     1     -39.491  50.267 -53.225  1.00  0.00     0.174 C 
HETATM   26  C   UNL     1     -40.082  49.883 -54.568  1.00  0.00     0.034 C 
ENDBRANCH  24  25
ENDBRANCH  22  24
ENDBRANCH  17  22
ENDBRANCH  14  15
ENDBRANCH  11  14
ENDBRANCH   1  10
BRANCH   9  27
HETATM   27  C   UNL     1     -44.183  58.265 -54.414  1.00  0.00     0.259 C 
HETATM   28  N   UNL     1     -43.543  58.371 -55.631  1.00  0.00    -0.323 N 
HETATM   29  H   UNL     1     -42.899  59.134 -55.743  1.00  0.00     0.169 HD
HETATM   30  O   UNL     1     -45.073  57.453 -54.157  1.00  0.00    -0.267 OA
BRANCH  28  31
HETATM   31  C   UNL     1     -43.692  57.562 -56.777  1.00  0.00     0.035 A 
HETATM   32  C   UNL     1     -42.898  56.453 -57.072  1.00  0.00     0.031 A 
HETATM   33  C   UNL     1     -43.124  55.709 -58.238  1.00  0.00     0.026 A 
HETATM   34  C   UNL     1     -44.138  56.078 -59.117  1.00  0.00     0.034 A 
HETATM   35 CL   UNL     1     -44.407  55.166 -60.550  1.00  0.00    -0.084 Cl
HETATM   36  C   UNL     1     -44.933  57.185 -58.841  1.00  0.00     0.026 A 
HETATM   37  C   UNL     1     -44.713  57.921 -57.673  1.00  0.00     0.031 A 
ENDBRANCH  28  31
ENDBRANCH   9  27
TORSDOF 8
ENDMDL
MODEL 10
REMARK VINA RESULT:      -7.5      3.204      5.862
REMARK  8 active torsions:
REMARK  status: ('A' for Active; 'I' for Inactive)
REMARK    1  A    between atoms: C_2  and  O_3 
REMARK    2  A    between atoms: O_3  and  C_4 
REMARK    3  A    between atoms: C_4  and  C_5 
REMARK    4  A    between atoms: N_7  and  C_9 
REMARK    5  A    between atoms: C_9  and  C_10 
REMARK       I    between atoms: C_10  and  N_11 
REMARK    6  A    between atoms: N_11  and  C_12 
REMARK    7  A    between atoms: C_20  and  C_21 
REMARK       I    between atoms: C_21  and  N_22 
REMARK    8  A    between atoms: N_22  and  C_23 
ROOT
HETATM    1  C   UNL     1     -41.245  54.690 -54.496  1.00  0.00     0.093 C 
HETATM    2  S   UNL     1     -40.450  53.192 -54.471  1.00  0.00    -0.075 SA
HETATM    3  C   UNL     1     -40.461  53.145 -52.783  1.00  0.00    -0.008 C 
HETATM    4  C   UNL     1     -41.081  54.246 -52.213  1.00  0.00    -0.026 C 
HETATM    5  C   UNL     1     -41.103  54.391 -50.712  1.00  0.00     0.041 C 
HETATM    6  C   UNL     1     -40.082  53.481 -50.012  1.00  0.00     0.005 C 
HETATM    7  C   UNL     1     -40.144  52.052 -50.561  1.00  0.00     0.005 C 
HETATM    8  C   UNL     1     -39.789  52.021 -52.050  1.00  0.00     0.047 C 
HETATM    9  C   UNL     1     -41.648  55.127 -53.233  1.00  0.00     0.073 C 
ENDROOT
BRANCH   1  10
HETATM   10  N   UNL     1     -41.514  55.299 -55.719  1.00  0.00    -0.319 N 
HETATM   11  C   UNL     1     -42.633  55.048 -56.477  1.00  0.00     0.248 C 
HETATM   12  O   UNL     1     -43.487  54.174 -56.302  1.00  0.00    -0.271 OA
HETATM   13  H   UNL     1     -40.689  55.709 -56.163  1.00  0.00     0.169 HD
BRANCH  11  14
HETATM   14  C   UNL     1     -42.817  55.964 -57.690  1.00  0.00     0.337 C 
BRANCH  14  15
HETATM   15  N   UNL     1     -42.969  57.413 -57.191  1.00  0.00    -0.062 N 
HETATM   16  C   UNL     1     -42.223  58.404 -58.065  1.00  0.00     0.249 C 
HETATM   17  C   UNL     1     -42.180  59.763 -57.367  1.00  0.00     0.111 C 
HETATM   18  C   UNL     1     -43.593  60.237 -57.017  1.00  0.00     0.018 C 
HETATM   19  C   UNL     1     -44.364  59.185 -56.221  1.00  0.00     0.029 C 
HETATM   20  C   UNL     1     -44.379  57.827 -56.914  1.00  0.00     0.235 C 
HETATM   21  H   UNL     1     -42.446  57.389 -56.293  1.00  0.00     0.280 HD
BRANCH  17  22
HETATM   22  C   UNL     1     -41.480  60.741 -58.284  1.00  0.00     0.264 C 
HETATM   23  O   UNL     1     -40.554  61.455 -57.929  1.00  0.00    -0.265 OA
BRANCH  22  24
HETATM   24  O   UNL     1     -42.045  60.719 -59.518  1.00  0.00    -0.322 OA
BRANCH  24  25
HETATM   25  C   UNL     1     -41.390  61.500 -60.533  1.00  0.00     0.174 C 
HETATM   26  C   UNL     1     -41.994  61.192 -61.890  1.00  0.00     0.034 C 
ENDBRANCH  24  25
ENDBRANCH  22  24
ENDBRANCH  17  22
ENDBRANCH  14  15
ENDBRANCH  11  14
ENDBRANCH   1  10
BRANCH   9  27
HETATM   27  C   UNL     1     -42.464  56.360 -53.105  1.00  0.00     0.259 C 
HETATM   28  N   UNL     1     -41.803  57.471 -52.623  1.00  0.00    -0.323 N 
HETATM   29  H   UNL     1     -40.847  57.345 -52.340  1.00  0.00     0.169 HD
HETATM   30  O   UNL     1     -43.662  56.326 -53.393  1.00  0.00    -0.267 OA
BRANCH  28  31
HETATM   31  C   UNL     1     -42.299  58.778 -52.438  1.00  0.00     0.035 A 
HETATM   32  C   UNL     1     -43.013  59.201 -51.316  1.00  0.00     0.031 A 
HETATM   33  C   UNL     1     -43.464  60.525 -51.221  1.00  0.00     0.026 A 
HETATM   34  C   UNL     1     -43.212  61.425 -52.253  1.00  0.00     0.034 A 
HETATM   35 CL   UNL     1     -43.774  63.046 -52.135  1.00  0.00    -0.084 Cl
HETATM   36  C   UNL     1     -42.508  61.017 -53.380  1.00  0.00     0.026 A 
HETATM   37  C   UNL     1     -42.049  59.699 -53.468  1.00  0.00     0.031 A 
ENDBRANCH  28  31
ENDBRANCH   9  27
TORSDOF 8
ENDMDL
