MODEL 1
REMARK VINA RESULT:      -7.9      0.000      0.000
REMARK  9 active torsions:
REMARK  status: ('A' for Active; 'I' for Inactive)
REMARK    1  A    between atoms: C_2  and  C_3 
REMARK    2  A    between atoms: C_6  and  N_7 
REMARK    3  A    between atoms: N_7  and  S_8 
REMARK    4  A    between atoms: S_8  and  C_9 
REMARK    5  A    between atoms: C_15  and  C_16 
REMARK       I    between atoms: C_16  and  N_17 
REMARK    6  A    between atoms: N_17  and  C_18 
REMARK    7  A    between atoms: C_18  and  C_19 
REMARK    8  A    between atoms: C_19  and  C_20 
REMARK    9  A    between atoms: C_20  and  O_21 
ROOT
HETATM    1  C   UNL     1     -42.570  57.559 -54.355  1.00  0.00     0.081 A 
HETATM    2  C   UNL     1     -43.441  58.332 -53.583  1.00  0.00     0.043 A 
HETATM    3  C   UNL     1     -42.929  59.051 -52.500  1.00  0.00     0.043 A 
HETATM    4  C   UNL     1     -41.555  59.023 -52.196  1.00  0.00     0.046 A 
HETATM    5  N   UNL     1     -41.078  59.721 -51.082  1.00  0.00    -0.364 N 
HETATM    6  C   UNL     1     -41.920  60.486 -50.315  1.00  0.00     0.109 A 
HETATM    7  C   UNL     1     -43.246  60.609 -50.500  1.00  0.00     0.098 A 
HETATM    8  C   UNL     1     -43.839  59.861 -51.644  1.00  0.00     0.201 A 
HETATM    9  O   UNL     1     -45.044  59.896 -51.886  1.00  0.00    -0.286 OA
HETATM   10  C   UNL     1     -40.700  58.247 -52.984  1.00  0.00     0.032 A 
HETATM   11  C   UNL     1     -41.202  57.521 -54.069  1.00  0.00     0.027 A 
HETATM   12  H   UNL     1     -40.078  59.804 -50.934  1.00  0.00     0.165 HD
ENDROOT
BRANCH   1  13
HETATM   13  S   UNL     1     -43.218  56.658 -55.747  1.00  0.00     0.263 S 
HETATM   14  O   UNL     1     -42.148  56.488 -56.706  1.00  0.00    -0.200 OA
HETATM   15  O   UNL     1     -44.465  57.292 -56.119  1.00  0.00    -0.200 OA
BRANCH  13  16
HETATM   16  N   UNL     1     -43.623  55.168 -55.068  1.00  0.00    -0.281 N 
HETATM   17  H   UNL     1     -44.610  55.104 -54.824  1.00  0.00     0.179 HD
BRANCH  16  18
HETATM   18  C   UNL     1     -42.687  54.511 -54.224  1.00  0.00     0.042 A 
HETATM   19  C   UNL     1     -41.584  53.868 -54.780  1.00  0.00     0.030 A 
HETATM   20  C   UNL     1     -40.671  53.209 -53.951  1.00  0.00     0.010 A 
HETATM   21  C   UNL     1     -40.844  53.197 -52.558  1.00  0.00    -0.055 A 
HETATM   22  C   UNL     1     -41.971  53.835 -52.018  1.00  0.00     0.010 A 
HETATM   23  C   UNL     1     -42.889  54.484 -52.847  1.00  0.00     0.030 A 
BRANCH  21  24
HETATM   24  C   UNL     1     -39.862  52.504 -51.629  1.00  0.00     0.010 C 
HETATM   25  C   UNL     1     -39.479  51.104 -52.117  1.00  0.00     0.015 C 
HETATM   26  C   UNL     1     -40.407  52.453 -50.201  1.00  0.00     0.015 C 
ENDBRANCH  21  24
ENDBRANCH  16  18
ENDBRANCH  13  16
ENDBRANCH   1  13
BRANCH   7  27
HETATM   27  C   UNL     1     -44.019  61.466 -49.555  1.00  0.00     0.257 C 
HETATM   28  N   UNL     1     -44.985  60.817 -48.830  1.00  0.00    -0.357 N 
HETATM   29  H   UNL     1     -45.084  59.807 -48.953  1.00  0.00     0.162 HD
HETATM   30  O   UNL     1     -43.790  62.668 -49.443  1.00  0.00    -0.267 OA
BRANCH  28  31
HETATM   31  C   UNL     1     -45.786  61.478 -47.822  1.00  0.00     0.125 C 
BRANCH  31  32
HETATM   32  C   UNL     1     -45.157  61.457 -46.433  1.00  0.00     0.046 C 
BRANCH  32  33
HETATM   33  C   UNL     1     -45.613  60.267 -45.597  1.00  0.00     0.168 C 
BRANCH  33  34
HETATM   34  O   UNL     1     -46.493  59.473 -46.395  1.00  0.00    -0.396 OA
HETATM   35  C   UNL     1     -47.396  58.722 -45.596  1.00  0.00     0.201 C 
ENDBRANCH  33  34
ENDBRANCH  32  33
ENDBRANCH  31  32
ENDBRANCH  28  31
ENDBRANCH   7  27
TORSDOF 9
ENDMDL
MODEL 2
REMARK VINA RESULT:      -7.9      2.061      2.621
REMARK  9 active torsions:
REMARK  status: ('A' for Active; 'I' for Inactive)
REMARK    1  A    between atoms: C_2  and  C_3 
REMARK    2  A    between atoms: C_6  and  N_7 
REMARK    3  A    between atoms: N_7  and  S_8 
REMARK    4  A    between atoms: S_8  and  C_9 
REMARK    5  A    between atoms: C_15  and  C_16 
REMARK       I    between atoms: C_16  and  N_17 
REMARK    6  A    between atoms: N_17  and  C_18 
REMARK    7  A    between atoms: C_18  and  C_19 
REMARK    8  A    between atoms: C_19  and  C_20 
REMARK    9  A    between atoms: C_20  and  O_21 
ROOT
HETATM    1  C   UNL     1     -43.100  57.761 -52.519  1.00  0.00     0.081 A 
HETATM    2  C   UNL     1     -44.129  58.286 -51.733  1.00  0.00     0.043 A 
HETATM    3  C   UNL     1     -44.223  59.671 -51.576  1.00  0.00     0.043 A 
HETATM    4  C   UNL     1     -43.314  60.536 -52.213  1.00  0.00     0.046 A 
HETATM    5  N   UNL     1     -43.407  61.916 -52.005  1.00  0.00    -0.364 N 
HETATM    6  C   UNL     1     -44.413  62.446 -51.239  1.00  0.00     0.109 A 
HETATM    7  C   UNL     1     -45.351  61.738 -50.585  1.00  0.00     0.098 A 
HETATM    8  C   UNL     1     -45.293  60.255 -50.722  1.00  0.00     0.201 A 
HETATM    9  O   UNL     1     -46.095  59.520 -50.150  1.00  0.00    -0.286 OA
HETATM   10  C   UNL     1     -42.293  59.990 -52.998  1.00  0.00     0.032 A 
HETATM   11  C   UNL     1     -42.188  58.605 -53.161  1.00  0.00     0.027 A 
HETATM   12  H   UNL     1     -42.836  62.545 -52.558  1.00  0.00     0.165 HD
ENDROOT
BRANCH   1  13
HETATM   13  S   UNL     1     -42.991  55.998 -52.735  1.00  0.00     0.263 S 
HETATM   14  O   UNL     1     -43.547  55.671 -54.030  1.00  0.00    -0.200 OA
HETATM   15  O   UNL     1     -43.502  55.390 -51.524  1.00  0.00    -0.200 OA
BRANCH  13  16
HETATM   16  N   UNL     1     -41.326  55.727 -52.739  1.00  0.00    -0.281 N 
HETATM   17  H   UNL     1     -40.807  56.479 -53.190  1.00  0.00     0.179 HD
BRANCH  16  18
HETATM   18  C   UNL     1     -40.838  54.401 -52.891  1.00  0.00     0.042 A 
HETATM   19  C   UNL     1     -40.409  53.688 -51.774  1.00  0.00     0.030 A 
HETATM   20  C   UNL     1     -39.915  52.388 -51.925  1.00  0.00     0.010 A 
HETATM   21  C   UNL     1     -39.857  51.784 -53.191  1.00  0.00    -0.055 A 
HETATM   22  C   UNL     1     -40.277  52.525 -54.306  1.00  0.00     0.010 A 
HETATM   23  C   UNL     1     -40.760  53.827 -54.157  1.00  0.00     0.030 A 
BRANCH  21  24
HETATM   24  C   UNL     1     -39.340  50.369 -53.386  1.00  0.00     0.010 C 
HETATM   25  C   UNL     1     -39.816  49.746 -54.702  1.00  0.00     0.015 C 
HETATM   26  C   UNL     1     -39.716  49.483 -52.198  1.00  0.00     0.015 C 
ENDBRANCH  21  24
ENDBRANCH  16  18
ENDBRANCH  13  16
ENDBRANCH   1  13
BRANCH   7  27
HETATM   27  C   UNL     1     -46.362  62.476 -49.773  1.00  0.00     0.257 C 
HETATM   28  N   UNL     1     -46.340  62.212 -48.427  1.00  0.00    -0.357 N 
HETATM   29  H   UNL     1     -45.626  61.573 -48.073  1.00  0.00     0.162 HD
HETATM   30  O   UNL     1     -47.148  63.265 -50.289  1.00  0.00    -0.267 OA
BRANCH  28  31
HETATM   31  C   UNL     1     -47.205  62.884 -47.482  1.00  0.00     0.125 C 
BRANCH  31  32
HETATM   32  C   UNL     1     -47.006  62.428 -46.041  1.00  0.00     0.046 C 
BRANCH  32  33
HETATM   33  C   UNL     1     -46.250  61.108 -45.940  1.00  0.00     0.168 C 
BRANCH  33  34
HETATM   34  O   UNL     1     -47.069  60.082 -46.503  1.00  0.00    -0.396 OA
HETATM   35  C   UNL     1     -47.002  58.880 -45.747  1.00  0.00     0.201 C 
ENDBRANCH  33  34
ENDBRANCH  32  33
ENDBRANCH  31  32
ENDBRANCH  28  31
ENDBRANCH   7  27
TORSDOF 9
ENDMDL
MODEL 3
REMARK VINA RESULT:      -7.8      5.608      8.255
REMARK  9 active torsions:
REMARK  status: ('A' for Active; 'I' for Inactive)
REMARK    1  A    between atoms: C_2  and  C_3 
REMARK    2  A    between atoms: C_6  and  N_7 
REMARK    3  A    between atoms: N_7  and  S_8 
REMARK    4  A    between atoms: S_8  and  C_9 
REMARK    5  A    between atoms: C_15  and  C_16 
REMARK       I    between atoms: C_16  and  N_17 
REMARK    6  A    between atoms: N_17  and  C_18 
REMARK    7  A    between atoms: C_18  and  C_19 
REMARK    8  A    between atoms: C_19  and  C_20 
REMARK    9  A    between atoms: C_20  and  O_21 
ROOT
HETATM    1  C   UNL     1     -42.714  56.290 -56.668  1.00  0.00     0.081 A 
HETATM    2  C   UNL     1     -42.385  57.642 -56.545  1.00  0.00     0.043 A 
HETATM    3  C   UNL     1     -42.301  58.427 -57.698  1.00  0.00     0.043 A 
HETATM    4  C   UNL     1     -42.564  57.880 -58.967  1.00  0.00     0.046 A 
HETATM    5  N   UNL     1     -42.432  58.679 -60.107  1.00  0.00    -0.364 N 
HETATM    6  C   UNL     1     -42.112  60.009 -60.003  1.00  0.00     0.109 A 
HETATM    7  C   UNL     1     -41.847  60.659 -58.856  1.00  0.00     0.098 A 
HETATM    8  C   UNL     1     -41.925  59.864 -57.597  1.00  0.00     0.201 A 
HETATM    9  O   UNL     1     -41.684  60.363 -56.500  1.00  0.00    -0.286 OA
HETATM   10  C   UNL     1     -42.895  56.525 -59.068  1.00  0.00     0.032 A 
HETATM   11  C   UNL     1     -42.981  55.729 -57.922  1.00  0.00     0.027 A 
HETATM   12  H   UNL     1     -42.740  58.324 -61.006  1.00  0.00     0.165 HD
ENDROOT
BRANCH   1  13
HETATM   13  S   UNL     1     -42.841  55.293 -55.198  1.00  0.00     0.263 S 
HETATM   14  O   UNL     1     -43.251  53.964 -55.594  1.00  0.00    -0.200 OA
HETATM   15  O   UNL     1     -43.604  56.058 -54.234  1.00  0.00    -0.200 OA
BRANCH  13  16
HETATM   16  N   UNL     1     -41.252  55.262 -54.634  1.00  0.00    -0.281 N 
HETATM   17  H   UNL     1     -40.597  55.696 -55.283  1.00  0.00     0.179 HD
BRANCH  16  18
HETATM   18  C   UNL     1     -40.802  54.140 -53.887  1.00  0.00     0.042 A 
HETATM   19  C   UNL     1     -40.252  53.043 -54.546  1.00  0.00     0.030 A 
HETATM   20  C   UNL     1     -39.822  51.933 -53.812  1.00  0.00     0.010 A 
HETATM   21  C   UNL     1     -39.927  51.913 -52.412  1.00  0.00    -0.055 A 
HETATM   22  C   UNL     1     -40.501  53.020 -51.768  1.00  0.00     0.010 A 
HETATM   23  C   UNL     1     -40.940  54.124 -52.501  1.00  0.00     0.030 A 
BRANCH  21  24
HETATM   24  C   UNL     1     -39.455  50.730 -51.585  1.00  0.00     0.010 C 
HETATM   25  C   UNL     1     -39.560  49.403 -52.343  1.00  0.00     0.015 C 
HETATM   26  C   UNL     1     -40.210  50.658 -50.256  1.00  0.00     0.015 C 
ENDBRANCH  21  24
ENDBRANCH  16  18
ENDBRANCH  13  16
ENDBRANCH   1  13
BRANCH   7  27
HETATM   27  C   UNL     1     -41.490  62.105 -58.924  1.00  0.00     0.257 C 
HETATM   28  N   UNL     1     -40.172  62.397 -58.683  1.00  0.00    -0.357 N 
HETATM   29  H   UNL     1     -39.529  61.621 -58.515  1.00  0.00     0.162 HD
HETATM   30  O   UNL     1     -42.331  62.962 -59.184  1.00  0.00    -0.267 OA
BRANCH  28  31
HETATM   31  C   UNL     1     -39.637  63.739 -58.771  1.00  0.00     0.125 C 
BRANCH  31  32
HETATM   32  C   UNL     1     -38.598  63.911 -59.873  1.00  0.00     0.046 C 
BRANCH  32  33
HETATM   33  C   UNL     1     -39.224  64.077 -61.252  1.00  0.00     0.168 C 
BRANCH  33  34
HETATM   34  O   UNL     1     -39.514  62.777 -61.770  1.00  0.00    -0.396 OA
HETATM   35  C   UNL     1     -40.749  62.753 -62.471  1.00  0.00     0.201 C 
ENDBRANCH  33  34
ENDBRANCH  32  33
ENDBRANCH  31  32
ENDBRANCH  28  31
ENDBRANCH   7  27
TORSDOF 9
ENDMDL
MODEL 4
REMARK VINA RESULT:      -7.8      3.807      7.554
REMARK  9 active torsions:
REMARK  status: ('A' for Active; 'I' for Inactive)
REMARK    1  A    between atoms: C_2  and  C_3 
REMARK    2  A    between atoms: C_6  and  N_7 
REMARK    3  A    between atoms: N_7  and  S_8 
REMARK    4  A    between atoms: S_8  and  C_9 
REMARK    5  A    between atoms: C_15  and  C_16 
REMARK       I    between atoms: C_16  and  N_17 
REMARK    6  A    between atoms: N_17  and  C_18 
REMARK    7  A    between atoms: C_18  and  C_19 
REMARK    8  A    between atoms: C_19  and  C_20 
REMARK    9  A    between atoms: C_20  and  O_21 
ROOT
HETATM    1  C   UNL     1     -43.698  56.930 -52.511  1.00  0.00     0.081 A 
HETATM    2  C   UNL     1     -43.559  56.856 -53.899  1.00  0.00     0.043 A 
HETATM    3  C   UNL     1     -44.200  57.807 -54.696  1.00  0.00     0.043 A 
HETATM    4  C   UNL     1     -44.958  58.843 -54.120  1.00  0.00     0.046 A 
HETATM    5  N   UNL     1     -45.622  59.757 -54.945  1.00  0.00    -0.364 N 
HETATM    6  C   UNL     1     -45.493  59.699 -56.309  1.00  0.00     0.109 A 
HETATM    7  C   UNL     1     -44.793  58.772 -56.987  1.00  0.00     0.098 A 
HETATM    8  C   UNL     1     -44.090  57.735 -56.179  1.00  0.00     0.201 A 
HETATM    9  O   UNL     1     -43.438  56.836 -56.706  1.00  0.00    -0.286 OA
HETATM   10  C   UNL     1     -45.083  58.901 -52.729  1.00  0.00     0.032 A 
HETATM   11  C   UNL     1     -44.447  57.953 -51.921  1.00  0.00     0.027 A 
HETATM   12  H   UNL     1     -46.064  60.572 -54.535  1.00  0.00     0.165 HD
ENDROOT
BRANCH   1  13
HETATM   13  S   UNL     1     -42.866  55.730 -51.493  1.00  0.00     0.263 S 
HETATM   14  O   UNL     1     -43.591  54.482 -51.591  1.00  0.00    -0.200 OA
HETATM   15  O   UNL     1     -42.623  56.358 -50.211  1.00  0.00    -0.200 OA
BRANCH  13  16
HETATM   16  N   UNL     1     -41.364  55.583 -52.245  1.00  0.00    -0.281 N 
HETATM   17  H   UNL     1     -41.192  56.322 -52.925  1.00  0.00     0.179 HD
BRANCH  16  18
HETATM   18  C   UNL     1     -40.853  54.288 -52.530  1.00  0.00     0.042 A 
HETATM   19  C   UNL     1     -40.346  53.501 -51.499  1.00  0.00     0.030 A 
HETATM   20  C   UNL     1     -39.829  52.232 -51.780  1.00  0.00     0.010 A 
HETATM   21  C   UNL     1     -39.825  51.733 -53.092  1.00  0.00    -0.055 A 
HETATM   22  C   UNL     1     -40.324  52.548 -54.120  1.00  0.00     0.010 A 
HETATM   23  C   UNL     1     -40.830  53.820 -53.841  1.00  0.00     0.030 A 
BRANCH  21  24
HETATM   24  C   UNL     1     -39.286  50.354 -53.429  1.00  0.00     0.010 C 
HETATM   25  C   UNL     1     -39.893  49.783 -54.714  1.00  0.00     0.015 C 
HETATM   26  C   UNL     1     -39.484  49.390 -52.258  1.00  0.00     0.015 C 
ENDBRANCH  21  24
ENDBRANCH  16  18
ENDBRANCH  13  16
ENDBRANCH   1  13
BRANCH   7  27
HETATM   27  C   UNL     1     -44.777  58.841 -58.477  1.00  0.00     0.257 C 
HETATM   28  N   UNL     1     -43.748  59.568 -59.019  1.00  0.00    -0.357 N 
HETATM   29  H   UNL     1     -43.056  59.973 -58.385  1.00  0.00     0.162 HD
HETATM   30  O   UNL     1     -45.630  58.276 -59.155  1.00  0.00    -0.267 OA
BRANCH  28  31
HETATM   31  C   UNL     1     -43.540  59.689 -60.446  1.00  0.00     0.125 C 
BRANCH  31  32
HETATM   32  C   UNL     1     -42.184  59.168 -60.911  1.00  0.00     0.046 C 
BRANCH  32  33
HETATM   33  C   UNL     1     -41.823  57.826 -60.288  1.00  0.00     0.168 C 
BRANCH  33  34
HETATM   34  O   UNL     1     -42.856  56.892 -60.611  1.00  0.00    -0.396 OA
HETATM   35  C   UNL     1     -42.859  55.783 -59.723  1.00  0.00     0.201 C 
ENDBRANCH  33  34
ENDBRANCH  32  33
ENDBRANCH  31  32
ENDBRANCH  28  31
ENDBRANCH   7  27
TORSDOF 9
ENDMDL
MODEL 5
REMARK VINA RESULT:      -7.8      3.609      7.681
REMARK  9 active torsions:
REMARK  status: ('A' for Active; 'I' for Inactive)
REMARK    1  A    between atoms: C_2  and  C_3 
REMARK    2  A    between atoms: C_6  and  N_7 
REMARK    3  A    between atoms: N_7  and  S_8 
REMARK    4  A    between atoms: S_8  and  C_9 
REMARK    5  A    between atoms: C_15  and  C_16 
REMARK       I    between atoms: C_16  and  N_17 
REMARK    6  A    between atoms: N_17  and  C_18 
REMARK    7  A    between atoms: C_18  and  C_19 
REMARK    8  A    between atoms: C_19  and  C_20 
REMARK    9  A    between atoms: C_20  and  O_21 
ROOT
HETATM    1  C   UNL     1     -43.029  58.246 -52.885  1.00  0.00     0.081 A 
HETATM    2  C   UNL     1     -43.171  57.771 -54.191  1.00  0.00     0.043 A 
HETATM    3  C   UNL     1     -44.134  58.351 -55.021  1.00  0.00     0.043 A 
HETATM    4  C   UNL     1     -44.938  59.413 -54.567  1.00  0.00     0.046 A 
HETATM    5  N   UNL     1     -45.920  59.947 -55.407  1.00  0.00    -0.364 N 
HETATM    6  C   UNL     1     -46.071  59.493 -56.692  1.00  0.00     0.109 A 
HETATM    7  C   UNL     1     -45.366  58.496 -57.255  1.00  0.00     0.098 A 
HETATM    8  C   UNL     1     -44.325  57.846 -56.408  1.00  0.00     0.201 A 
HETATM    9  O   UNL     1     -43.640  56.916 -56.826  1.00  0.00    -0.286 OA
HETATM   10  C   UNL     1     -44.776  59.876 -53.257  1.00  0.00     0.032 A 
HETATM   11  C   UNL     1     -43.817  59.302 -52.417  1.00  0.00     0.027 A 
HETATM   12  H   UNL     1     -46.413  60.789 -55.129  1.00  0.00     0.165 HD
ENDROOT
BRANCH   1  13
HETATM   13  S   UNL     1     -41.789  57.521 -51.832  1.00  0.00     0.263 S 
HETATM   14  O   UNL     1     -41.709  58.314 -50.625  1.00  0.00    -0.200 OA
HETATM   15  O   UNL     1     -40.621  57.285 -52.654  1.00  0.00    -0.200 OA
BRANCH  13  16
HETATM   16  N   UNL     1     -42.441  56.005 -51.483  1.00  0.00    -0.281 N 
HETATM   17  H   UNL     1     -42.955  55.992 -50.603  1.00  0.00     0.179 HD
BRANCH  16  18
HETATM   18  C   UNL     1     -41.717  54.837 -51.846  1.00  0.00     0.042 A 
HETATM   19  C   UNL     1     -40.808  54.278 -50.950  1.00  0.00     0.030 A 
HETATM   20  C   UNL     1     -40.085  53.137 -51.313  1.00  0.00     0.010 A 
HETATM   21  C   UNL     1     -40.272  52.537 -52.568  1.00  0.00    -0.055 A 
HETATM   22  C   UNL     1     -41.179  53.125 -53.463  1.00  0.00     0.010 A 
HETATM   23  C   UNL     1     -41.893  54.271 -53.106  1.00  0.00     0.030 A 
BRANCH  21  24
HETATM   24  C   UNL     1     -39.515  51.289 -52.986  1.00  0.00     0.010 C 
HETATM   25  C   UNL     1     -40.089  50.649 -54.254  1.00  0.00     0.015 C 
HETATM   26  C   UNL     1     -39.459  50.275 -51.842  1.00  0.00     0.015 C 
ENDBRANCH  21  24
ENDBRANCH  16  18
ENDBRANCH  13  16
ENDBRANCH   1  13
BRANCH   7  27
HETATM   27  C   UNL     1     -45.676  58.112 -58.662  1.00  0.00     0.257 C 
HETATM   28  N   UNL     1     -45.927  56.779 -58.865  1.00  0.00    -0.357 N 
HETATM   29  H   UNL     1     -45.924  56.158 -58.053  1.00  0.00     0.162 HD
HETATM   30  O   UNL     1     -45.705  58.945 -59.564  1.00  0.00    -0.267 OA
BRANCH  28  31
HETATM   31  C   UNL     1     -46.308  56.239 -60.152  1.00  0.00     0.125 C 
BRANCH  31  32
HETATM   32  C   UNL     1     -45.440  55.070 -60.604  1.00  0.00     0.046 C 
BRANCH  32  33
HETATM   33  C   UNL     1     -43.990  55.203 -60.153  1.00  0.00     0.168 C 
BRANCH  33  34
HETATM   34  O   UNL     1     -43.449  56.389 -60.736  1.00  0.00    -0.396 OA
HETATM   35  C   UNL     1     -42.349  56.890 -59.988  1.00  0.00     0.201 C 
ENDBRANCH  33  34
ENDBRANCH  32  33
ENDBRANCH  31  32
ENDBRANCH  28  31
ENDBRANCH   7  27
TORSDOF 9
ENDMDL
MODEL 6
REMARK VINA RESULT:      -7.8      4.224      7.917
REMARK  9 active torsions:
REMARK  status: ('A' for Active; 'I' for Inactive)
REMARK    1  A    between atoms: C_2  and  C_3 
REMARK    2  A    between atoms: C_6  and  N_7 
REMARK    3  A    between atoms: N_7  and  S_8 
REMARK    4  A    between atoms: S_8  and  C_9 
REMARK    5  A    between atoms: C_15  and  C_16 
REMARK       I    between atoms: C_16  and  N_17 
REMARK    6  A    between atoms: N_17  and  C_18 
REMARK    7  A    between atoms: C_18  and  C_19 
REMARK    8  A    between atoms: C_19  and  C_20 
REMARK    9  A    between atoms: C_20  and  O_21 
ROOT
HETATM    1  C   UNL     1     -42.488  56.839 -53.116  1.00  0.00     0.081 A 
HETATM    2  C   UNL     1     -42.763  56.184 -54.320  1.00  0.00     0.043 A 
HETATM    3  C   UNL     1     -42.660  56.896 -55.517  1.00  0.00     0.043 A 
HETATM    4  C   UNL     1     -42.265  58.246 -55.526  1.00  0.00     0.046 A 
HETATM    5  N   UNL     1     -42.210  58.945 -56.737  1.00  0.00    -0.364 N 
HETATM    6  C   UNL     1     -42.475  58.315 -57.926  1.00  0.00     0.109 A 
HETATM    7  C   UNL     1     -42.851  57.031 -58.062  1.00  0.00     0.098 A 
HETATM    8  C   UNL     1     -42.974  56.229 -56.811  1.00  0.00     0.201 A 
HETATM    9  O   UNL     1     -43.327  55.052 -56.829  1.00  0.00    -0.286 OA
HETATM   10  C   UNL     1     -41.991  58.882 -54.311  1.00  0.00     0.032 A 
HETATM   11  C   UNL     1     -42.092  58.180 -53.106  1.00  0.00     0.027 A 
HETATM   12  H   UNL     1     -41.808  59.875 -56.760  1.00  0.00     0.165 HD
ENDROOT
BRANCH   1  13
HETATM   13  S   UNL     1     -42.600  55.928 -51.591  1.00  0.00     0.263 S 
HETATM   14  O   UNL     1     -43.452  54.781 -51.817  1.00  0.00    -0.200 OA
HETATM   15  O   UNL     1     -42.894  56.887 -50.546  1.00  0.00    -0.200 OA
BRANCH  13  16
HETATM   16  N   UNL     1     -41.010  55.424 -51.343  1.00  0.00    -0.281 N 
HETATM   17  H   UNL     1     -40.343  56.193 -51.389  1.00  0.00     0.179 HD
BRANCH  16  18
HETATM   18  C   UNL     1     -40.597  54.157 -51.838  1.00  0.00     0.042 A 
HETATM   19  C   UNL     1     -40.548  53.931 -53.211  1.00  0.00     0.030 A 
HETATM   20  C   UNL     1     -40.157  52.680 -53.698  1.00  0.00     0.010 A 
HETATM   21  C   UNL     1     -39.797  51.647 -52.817  1.00  0.00    -0.055 A 
HETATM   22  C   UNL     1     -39.870  51.888 -51.437  1.00  0.00     0.010 A 
HETATM   23  C   UNL     1     -40.272  53.134 -50.950  1.00  0.00     0.030 A 
BRANCH  21  24
HETATM   24  C   UNL     1     -39.352  50.282 -53.314  1.00  0.00     0.010 C 
HETATM   25  C   UNL     1     -39.988  49.909 -54.656  1.00  0.00     0.015 C 
HETATM   26  C   UNL     1     -39.625  49.204 -52.264  1.00  0.00     0.015 C 
ENDBRANCH  21  24
ENDBRANCH  16  18
ENDBRANCH  13  16
ENDBRANCH   1  13
BRANCH   7  27
HETATM   27  C   UNL     1     -43.123  56.511 -59.433  1.00  0.00     0.257 C 
HETATM   28  N   UNL     1     -44.388  56.018 -59.633  1.00  0.00    -0.357 N 
HETATM   29  H   UNL     1     -45.055  56.074 -58.862  1.00  0.00     0.162 HD
HETATM   30  O   UNL     1     -42.265  56.534 -60.311  1.00  0.00    -0.267 OA
BRANCH  28  31
HETATM   31  C   UNL     1     -44.846  55.533 -60.917  1.00  0.00     0.125 C 
BRANCH  31  32
HETATM   32  C   UNL     1     -46.349  55.679 -61.124  1.00  0.00     0.046 C 
BRANCH  32  33
HETATM   33  C   UNL     1     -46.984  56.666 -60.152  1.00  0.00     0.168 C 
BRANCH  33  34
HETATM   34  O   UNL     1     -47.211  57.894 -60.849  1.00  0.00    -0.396 OA
HETATM   35  C   UNL     1     -46.408  58.947 -60.334  1.00  0.00     0.201 C 
ENDBRANCH  33  34
ENDBRANCH  32  33
ENDBRANCH  31  32
ENDBRANCH  28  31
ENDBRANCH   7  27
TORSDOF 9
ENDMDL
MODEL 7
REMARK VINA RESULT:      -7.6      1.861      2.441
REMARK  9 active torsions:
REMARK  status: ('A' for Active; 'I' for Inactive)
REMARK    1  A    between atoms: C_2  and  C_3 
REMARK    2  A    between atoms: C_6  and  N_7 
REMARK    3  A    between atoms: N_7  and  S_8 
REMARK    4  A    between atoms: S_8  and  C_9 
REMARK    5  A    between atoms: C_15  and  C_16 
REMARK       I    between atoms: C_16  and  N_17 
REMARK    6  A    between atoms: N_17  and  C_18 
REMARK    7  A    between atoms: C_18  and  C_19 
REMARK    8  A    between atoms: C_19  and  C_20 
REMARK    9  A    between atoms: C_20  and  O_21 
ROOT
HETATM    1  C   UNL     1     -44.032  58.624 -53.852  1.00  0.00     0.081 A 
HETATM    2  C   UNL     1     -44.800  58.704 -52.687  1.00  0.00     0.043 A 
HETATM    3  C   UNL     1     -44.450  59.638 -51.709  1.00  0.00     0.043 A 
HETATM    4  C   UNL     1     -43.358  60.505 -51.892  1.00  0.00     0.046 A 
HETATM    5  N   UNL     1     -43.007  61.402 -50.877  1.00  0.00    -0.364 N 
HETATM    6  C   UNL     1     -43.752  61.494 -49.730  1.00  0.00     0.109 A 
HETATM    7  C   UNL     1     -44.823  60.736 -49.432  1.00  0.00     0.098 A 
HETATM    8  C   UNL     1     -45.235  59.725 -50.447  1.00  0.00     0.201 A 
HETATM    9  O   UNL     1     -46.190  58.974 -50.261  1.00  0.00    -0.286 OA
HETATM   10  C   UNL     1     -42.604  60.411 -53.066  1.00  0.00     0.032 A 
HETATM   11  C   UNL     1     -42.943  59.479 -54.052  1.00  0.00     0.027 A 
HETATM   12  H   UNL     1     -42.303  62.109 -51.056  1.00  0.00     0.165 HD
ENDROOT
BRANCH   1  13
HETATM   13  S   UNL     1     -44.487  57.448 -55.109  1.00  0.00     0.263 S 
HETATM   14  O   UNL     1     -43.373  57.317 -56.022  1.00  0.00    -0.200 OA
HETATM   15  O   UNL     1     -45.804  57.821 -55.580  1.00  0.00    -0.200 OA
BRANCH  13  16
HETATM   16  N   UNL     1     -44.680  56.022 -54.229  1.00  0.00    -0.281 N 
HETATM   17  H   UNL     1     -45.327  56.127 -53.449  1.00  0.00     0.179 HD
BRANCH  16  18
HETATM   18  C   UNL     1     -43.567  55.155 -54.057  1.00  0.00     0.042 A 
HETATM   19  C   UNL     1     -43.166  54.325 -55.101  1.00  0.00     0.030 A 
HETATM   20  C   UNL     1     -42.080  53.461 -54.927  1.00  0.00     0.010 A 
HETATM   21  C   UNL     1     -41.377  53.428 -53.712  1.00  0.00    -0.055 A 
HETATM   22  C   UNL     1     -41.808  54.258 -52.666  1.00  0.00     0.010 A 
HETATM   23  C   UNL     1     -42.899  55.113 -52.836  1.00  0.00     0.030 A 
BRANCH  21  24
HETATM   24  C   UNL     1     -40.184  52.513 -53.496  1.00  0.00     0.010 C 
HETATM   25  C   UNL     1     -40.326  51.177 -54.232  1.00  0.00     0.015 C 
HETATM   26  C   UNL     1     -39.932  52.288 -52.004  1.00  0.00     0.015 C 
ENDBRANCH  21  24
ENDBRANCH  16  18
ENDBRANCH  13  16
ENDBRANCH   1  13
BRANCH   7  27
HETATM   27  C   UNL     1     -45.506  60.952 -48.124  1.00  0.00     0.257 C 
HETATM   28  N   UNL     1     -44.763  60.637 -47.015  1.00  0.00    -0.357 N 
HETATM   29  H   UNL     1     -43.802  60.320 -47.152  1.00  0.00     0.162 HD
HETATM   30  O   UNL     1     -46.653  61.388 -48.063  1.00  0.00    -0.267 OA
BRANCH  28  31
HETATM   31  C   UNL     1     -45.243  60.844 -45.665  1.00  0.00     0.125 C 
BRANCH  31  32
HETATM   32  C   UNL     1     -44.857  62.198 -45.081  1.00  0.00     0.046 C 
BRANCH  32  33
HETATM   33  C   UNL     1     -44.076  62.077 -43.778  1.00  0.00     0.168 C 
BRANCH  33  34
HETATM   34  O   UNL     1     -44.242  63.293 -43.045  1.00  0.00    -0.396 OA
HETATM   35  C   UNL     1     -45.250  64.117 -43.614  1.00  0.00     0.201 C 
ENDBRANCH  33  34
ENDBRANCH  32  33
ENDBRANCH  31  32
ENDBRANCH  28  31
ENDBRANCH   7  27
TORSDOF 9
ENDMDL
MODEL 8
REMARK VINA RESULT:      -7.6      3.747      7.330
REMARK  9 active torsions:
REMARK  status: ('A' for Active; 'I' for Inactive)
REMARK    1  A    between atoms: C_2  and  C_3 
REMARK    2  A    between atoms: C_6  and  N_7 
REMARK    3  A    between atoms: N_7  and  S_8 
REMARK    4  A    between atoms: S_8  and  C_9 
REMARK    5  A    between atoms: C_15  and  C_16 
REMARK       I    between atoms: C_16  and  N_17 
REMARK    6  A    between atoms: N_17  and  C_18 
REMARK    7  A    between atoms: C_18  and  C_19 
REMARK    8  A    between atoms: C_19  and  C_20 
REMARK    9  A    between atoms: C_20  and  O_21 
ROOT
HETATM    1  C   UNL     1     -43.626  57.159 -52.293  1.00  0.00     0.081 A 
HETATM    2  C   UNL     1     -43.662  57.171 -53.690  1.00  0.00     0.043 A 
HETATM    3  C   UNL     1     -44.385  58.175 -54.340  1.00  0.00     0.043 A 
HETATM    4  C   UNL     1     -45.051  59.176 -53.610  1.00  0.00     0.046 A 
HETATM    5  N   UNL     1     -45.799  60.145 -54.287  1.00  0.00    -0.364 N 
HETATM    6  C   UNL     1     -45.843  60.171 -55.657  1.00  0.00     0.109 A 
HETATM    7  C   UNL     1     -45.246  59.285 -56.473  1.00  0.00     0.098 A 
HETATM    8  C   UNL     1     -44.462  58.195 -55.826  1.00  0.00     0.201 A 
HETATM    9  O   UNL     1     -43.893  57.327 -56.485  1.00  0.00    -0.286 OA
HETATM   10  C   UNL     1     -44.999  59.148 -52.213  1.00  0.00     0.032 A 
HETATM   11  C   UNL     1     -44.281  58.147 -51.551  1.00  0.00     0.027 A 
HETATM   12  H   UNL     1     -46.175  60.936 -53.775  1.00  0.00     0.165 HD
ENDROOT
BRANCH   1  13
HETATM   13  S   UNL     1     -42.690  55.892 -51.463  1.00  0.00     0.263 S 
HETATM   14  O   UNL     1     -43.489  54.686 -51.445  1.00  0.00    -0.200 OA
HETATM   15  O   UNL     1     -42.183  56.474 -50.238  1.00  0.00    -0.200 OA
BRANCH  13  16
HETATM   16  N   UNL     1     -41.361  55.687 -52.480  1.00  0.00    -0.281 N 
HETATM   17  H   UNL     1     -41.353  56.350 -53.254  1.00  0.00     0.179 HD
BRANCH  16  18
HETATM   18  C   UNL     1     -40.869  54.376 -52.725  1.00  0.00     0.042 A 
HETATM   19  C   UNL     1     -40.980  53.820 -53.997  1.00  0.00     0.030 A 
HETATM   20  C   UNL     1     -40.510  52.524 -54.235  1.00  0.00     0.010 A 
HETATM   21  C   UNL     1     -39.911  51.778 -53.207  1.00  0.00    -0.055 A 
HETATM   22  C   UNL     1     -39.825  52.349 -51.928  1.00  0.00     0.010 A 
HETATM   23  C   UNL     1     -40.305  53.638 -51.688  1.00  0.00     0.030 A 
BRANCH  21  24
HETATM   24  C   UNL     1     -39.376  50.375 -53.436  1.00  0.00     0.010 C 
HETATM   25  C   UNL     1     -39.873  49.763 -54.749  1.00  0.00     0.015 C 
HETATM   26  C   UNL     1     -39.706  49.465 -52.252  1.00  0.00     0.015 C 
ENDBRANCH  21  24
ENDBRANCH  16  18
ENDBRANCH  13  16
ENDBRANCH   1  13
BRANCH   7  27
HETATM   27  C   UNL     1     -45.415  59.448 -57.946  1.00  0.00     0.257 C 
HETATM   28  N   UNL     1     -45.674  58.292 -58.639  1.00  0.00    -0.357 N 
HETATM   29  H   UNL     1     -45.770  57.424 -58.109  1.00  0.00     0.162 HD
HETATM   30  O   UNL     1     -45.330  60.548 -58.485  1.00  0.00    -0.267 OA
BRANCH  28  31
HETATM   31  C   UNL     1     -45.929  58.272 -60.063  1.00  0.00     0.125 C 
BRANCH  31  32
HETATM   32  C   UNL     1     -46.708  57.046 -60.526  1.00  0.00     0.046 C 
BRANCH  32  33
HETATM   33  C   UNL     1     -45.926  55.750 -60.350  1.00  0.00     0.168 C 
BRANCH  33  34
HETATM   34  O   UNL     1     -44.547  56.024 -60.604  1.00  0.00    -0.396 OA
HETATM   35  C   UNL     1     -43.700  55.397 -59.651  1.00  0.00     0.201 C 
ENDBRANCH  33  34
ENDBRANCH  32  33
ENDBRANCH  31  32
ENDBRANCH  28  31
ENDBRANCH   7  27
TORSDOF 9
ENDMDL
MODEL 9
REMARK VINA RESULT:      -7.2      5.319      7.562
REMARK  9 active torsions:
REMARK  status: ('A' for Active; 'I' for Inactive)
REMARK    1  A    between atoms: C_2  and  C_3 
REMARK    2  A    between atoms: C_6  and  N_7 
REMARK    3  A    between atoms: N_7  and  S_8 
REMARK    4  A    between atoms: S_8  and  C_9 
REMARK    5  A    between atoms: C_15  and  C_16 
REMARK       I    between atoms: C_16  and  N_17 
REMARK    6  A    between atoms: N_17  and  C_18 
REMARK    7  A    between atoms: C_18  and  C_19 
REMARK    8  A    between atoms: C_19  and  C_20 
REMARK    9  A    between atoms: C_20  and  O_21 
ROOT
HETATM    1  C   UNL     1     -42.753  56.237 -55.649  1.00  0.00     0.081 A 
HETATM    2  C   UNL     1     -42.415  57.525 -56.073  1.00  0.00     0.043 A 
HETATM    3  C   UNL     1     -42.387  57.802 -57.442  1.00  0.00     0.043 A 
HETATM    4  C   UNL     1     -42.716  56.814 -58.388  1.00  0.00     0.046 A 
HETATM    5  N   UNL     1     -42.640  57.109 -59.753  1.00  0.00    -0.364 N 
HETATM    6  C   UNL     1     -42.311  58.368 -60.184  1.00  0.00     0.109 A 
HETATM    7  C   UNL     1     -41.987  59.404 -59.391  1.00  0.00     0.098 A 
HETATM    8  C   UNL     1     -42.003  59.158 -57.921  1.00  0.00     0.201 A 
HETATM    9  O   UNL     1     -41.706  60.036 -57.114  1.00  0.00    -0.286 OA
HETATM   10  C   UNL     1     -43.055  55.532 -57.943  1.00  0.00     0.032 A 
HETATM   11  C   UNL     1     -43.085  55.243 -56.575  1.00  0.00     0.027 A 
HETATM   12  H   UNL     1     -42.994  56.442 -60.430  1.00  0.00     0.165 HD
ENDROOT
BRANCH   1  13
HETATM   13  S   UNL     1     -42.808  55.887 -53.904  1.00  0.00     0.263 S 
HETATM   14  O   UNL     1     -43.520  54.642 -53.720  1.00  0.00    -0.200 OA
HETATM   15  O   UNL     1     -43.236  57.102 -53.242  1.00  0.00    -0.200 OA
BRANCH  13  16
HETATM   16  N   UNL     1     -41.179  55.681 -53.517  1.00  0.00    -0.281 N 
HETATM   17  H   UNL     1     -40.566  56.280 -54.067  1.00  0.00     0.179 HD
BRANCH  16  18
HETATM   18  C   UNL     1     -40.706  54.386 -53.170  1.00  0.00     0.042 A 
HETATM   19  C   UNL     1     -40.409  53.465 -54.171  1.00  0.00     0.030 A 
HETATM   20  C   UNL     1     -39.958  52.186 -53.830  1.00  0.00     0.010 A 
HETATM   21  C   UNL     1     -39.786  51.820 -52.486  1.00  0.00    -0.055 A 
HETATM   22  C   UNL     1     -40.108  52.756 -51.491  1.00  0.00     0.010 A 
HETATM   23  C   UNL     1     -40.569  54.029 -51.831  1.00  0.00     0.030 A 
BRANCH  21  24
HETATM   24  C   UNL     1     -39.283  50.445 -52.082  1.00  0.00     0.010 C 
HETATM   25  C   UNL     1     -39.596  49.373 -53.130  1.00  0.00     0.015 C 
HETATM   26  C   UNL     1     -39.831  50.044 -50.712  1.00  0.00     0.015 C 
ENDBRANCH  21  24
ENDBRANCH  16  18
ENDBRANCH  13  16
ENDBRANCH   1  13
BRANCH   7  27
HETATM   27  C   UNL     1     -41.631  60.705 -60.028  1.00  0.00     0.257 C 
HETATM   28  N   UNL     1     -41.212  61.686 -59.166  1.00  0.00    -0.357 N 
HETATM   29  H   UNL     1     -41.137  61.456 -58.174  1.00  0.00     0.162 HD
HETATM   30  O   UNL     1     -41.708  60.867 -61.244  1.00  0.00    -0.267 OA
BRANCH  28  31
HETATM   31  C   UNL     1     -40.766  62.987 -59.616  1.00  0.00     0.125 C 
BRANCH  31  32
HETATM   32  C   UNL     1     -41.780  64.099 -59.369  1.00  0.00     0.046 C 
BRANCH  32  33
HETATM   33  C   UNL     1     -42.320  64.097 -57.944  1.00  0.00     0.168 C 
BRANCH  33  34
HETATM   34  O   UNL     1     -43.316  63.077 -57.846  1.00  0.00    -0.396 OA
HETATM   35  C   UNL     1     -44.451  63.369 -58.649  1.00  0.00     0.201 C 
ENDBRANCH  33  34
ENDBRANCH  32  33
ENDBRANCH  31  32
ENDBRANCH  28  31
ENDBRANCH   7  27
TORSDOF 9
ENDMDL
MODEL 10
REMARK VINA RESULT:      -7.1      4.431      7.614
REMARK  9 active torsions:
REMARK  status: ('A' for Active; 'I' for Inactive)
REMARK    1  A    between atoms: C_2  and  C_3 
REMARK    2  A    between atoms: C_6  and  N_7 
REMARK    3  A    between atoms: N_7  and  S_8 
REMARK    4  A    between atoms: S_8  and  C_9 
REMARK    5  A    between atoms: C_15  and  C_16 
REMARK       I    between atoms: C_16  and  N_17 
REMARK    6  A    between atoms: N_17  and  C_18 
REMARK    7  A    between atoms: C_18  and  C_19 
REMARK    8  A    between atoms: C_19  and  C_20 
REMARK    9  A    between atoms: C_20  and  O_21 
ROOT
HETATM    1  C   UNL     1     -42.908  56.080 -52.930  1.00  0.00     0.081 A 
HETATM    2  C   UNL     1     -42.415  57.228 -53.554  1.00  0.00     0.043 A 
HETATM    3  C   UNL     1     -42.618  57.393 -54.927  1.00  0.00     0.043 A 
HETATM    4  C   UNL     1     -43.326  56.434 -55.675  1.00  0.00     0.046 A 
HETATM    5  N   UNL     1     -43.478  56.606 -57.055  1.00  0.00    -0.364 N 
HETATM    6  C   UNL     1     -43.002  57.729 -57.682  1.00  0.00     0.109 A 
HETATM    7  C   UNL     1     -42.319  58.723 -57.088  1.00  0.00     0.098 A 
HETATM    8  C   UNL     1     -42.078  58.594 -55.623  1.00  0.00     0.201 A 
HETATM    9  O   UNL     1     -41.451  59.442 -54.992  1.00  0.00    -0.286 OA
HETATM   10  C   UNL     1     -43.815  55.294 -55.030  1.00  0.00     0.032 A 
HETATM   11  C   UNL     1     -43.617  55.118 -53.657  1.00  0.00     0.027 A 
HETATM   12  H   UNL     1     -44.091  55.986 -57.572  1.00  0.00     0.165 HD
ENDROOT
BRANCH   1  13
HETATM   13  S   UNL     1     -42.668  55.878 -51.177  1.00  0.00     0.263 S 
HETATM   14  O   UNL     1     -43.511  54.791 -50.733  1.00  0.00    -0.200 OA
HETATM   15  O   UNL     1     -42.766  57.195 -50.583  1.00  0.00    -0.200 OA
BRANCH  13  16
HETATM   16  N   UNL     1     -41.046  55.428 -51.075  1.00  0.00    -0.281 N 
HETATM   17  H   UNL     1     -40.412  56.219 -51.178  1.00  0.00     0.179 HD
BRANCH  16  18
HETATM   18  C   UNL     1     -40.637  54.176 -51.610  1.00  0.00     0.042 A 
HETATM   19  C   UNL     1     -40.550  54.006 -52.989  1.00  0.00     0.030 A 
HETATM   20  C   UNL     1     -40.162  52.770 -53.516  1.00  0.00     0.010 A 
HETATM   21  C   UNL     1     -39.846  51.696 -52.669  1.00  0.00    -0.055 A 
HETATM   22  C   UNL     1     -39.958  51.881 -51.283  1.00  0.00     0.010 A 
HETATM   23  C   UNL     1     -40.356  53.112 -50.757  1.00  0.00     0.030 A 
BRANCH  21  24
HETATM   24  C   UNL     1     -39.406  50.345 -53.208  1.00  0.00     0.010 C 
HETATM   25  C   UNL     1     -40.106  49.980 -54.521  1.00  0.00     0.015 C 
HETATM   26  C   UNL     1     -39.606  49.249 -52.161  1.00  0.00     0.015 C 
ENDBRANCH  21  24
ENDBRANCH  16  18
ENDBRANCH  13  16
ENDBRANCH   1  13
BRANCH   7  27
HETATM   27  C   UNL     1     -41.851  59.865 -57.926  1.00  0.00     0.257 C 
HETATM   28  N   UNL     1     -42.114  59.755 -59.267  1.00  0.00    -0.357 N 
HETATM   29  H   UNL     1     -42.634  58.937 -59.591  1.00  0.00     0.162 HD
HETATM   30  O   UNL     1     -41.276  60.831 -57.432  1.00  0.00    -0.267 OA
BRANCH  28  31
HETATM   31  C   UNL     1     -41.789  60.796 -60.219  1.00  0.00     0.125 C 
BRANCH  31  32
HETATM   32  C   UNL     1     -42.298  60.515 -61.628  1.00  0.00     0.046 C 
BRANCH  32  33
HETATM   33  C   UNL     1     -43.734  60.980 -61.839  1.00  0.00     0.168 C 
BRANCH  33  34
HETATM   34  O   UNL     1     -44.456  60.761 -60.625  1.00  0.00    -0.396 OA
HETATM   35  C   UNL     1     -45.358  59.669 -60.738  1.00  0.00     0.201 C 
ENDBRANCH  33  34
ENDBRANCH  32  33
ENDBRANCH  31  32
ENDBRANCH  28  31
ENDBRANCH   7  27
TORSDOF 9
ENDMDL
