MODEL 1
REMARK VINA RESULT:      -9.7      0.000      0.000
REMARK  4 active torsions:
REMARK  status: ('A' for Active; 'I' for Inactive)
REMARK    1  A    between atoms: C_9  and  C_10 
REMARK    2  A    between atoms: C_20  and  C_21 
REMARK       I    between atoms: C_21  and  N_22 
REMARK    3  A    between atoms: N_22  and  C_23 
REMARK    4  A    between atoms: C_26  and  O_27 
ROOT
HETATM    1  C   UNL     1     -45.425  59.702 -53.081  1.00  0.00     0.070 C 
HETATM    2  C   UNL     1     -44.108  59.139 -52.604  1.00  0.00     0.037 C 
HETATM    3  N   UNL     1     -43.514  59.825 -51.547  1.00  0.00    -0.192 N 
HETATM    4  C   UNL     1     -42.236  59.623 -51.165  1.00  0.00     0.725 A 
HETATM    5  N   UNL     1     -41.524  58.588 -51.712  1.00  0.00    -0.084 N 
HETATM    6  N   UNL     1     -40.245  58.597 -51.284  1.00  0.00    -0.149 NA
HETATM    7  C   UNL     1     -40.279  59.621 -50.423  1.00  0.00     0.275 A 
HETATM    8  N   UNL     1     -41.479  60.277 -50.322  1.00  0.00    -0.054 NA
HETATM    9  C   UNL     1     -42.055  57.688 -52.743  1.00  0.00     0.203 C 
HETATM   10  C   UNL     1     -43.455  58.101 -53.183  1.00  0.00     0.062 C 
HETATM   11  H   UNL     1     -43.981  60.662 -51.207  1.00  0.00     0.184 HD
ENDROOT
BRANCH  10  12
HETATM   12  C   UNL     1     -43.923  57.426 -54.423  1.00  0.00     0.256 C 
HETATM   13  N   UNL     1     -43.311  57.871 -55.573  1.00  0.00    -0.323 N 
HETATM   14  H   UNL     1     -42.673  58.651 -55.485  1.00  0.00     0.169 HD
HETATM   15  O   UNL     1     -44.804  56.579 -54.325  1.00  0.00    -0.267 OA
BRANCH  13  16
HETATM   16  C   UNL     1     -43.453  57.329 -56.869  1.00  0.00     0.035 A 
HETATM   17  C   UNL     1     -42.897  56.114 -57.271  1.00  0.00     0.032 A 
HETATM   18  C   UNL     1     -43.061  55.658 -58.584  1.00  0.00     0.039 A 
HETATM   19  C   UNL     1     -43.791  56.398 -59.510  1.00  0.00     0.068 A 
HETATM   20  C   UNL     1     -44.334  57.621 -59.125  1.00  0.00     0.039 A 
HETATM   21  C   UNL     1     -44.169  58.081 -57.810  1.00  0.00     0.032 A 
BRANCH  19  22
HETATM   22  O   UNL     1     -43.877  55.847 -60.758  1.00  0.00    -0.356 OA
HETATM   23  C   UNL     1     -45.056  55.097 -61.023  1.00  0.00     0.210 C 
ENDBRANCH  19  22
ENDBRANCH  13  16
ENDBRANCH  10  12
BRANCH   9  24
HETATM   24  C   UNL     1     -41.935  56.212 -52.337  1.00  0.00    -0.017 A 
HETATM   25  C   UNL     1     -41.305  55.188 -53.117  1.00  0.00    -0.017 A 
HETATM   26  C   UNL     1     -41.337  53.852 -52.632  1.00  0.00    -0.025 A 
HETATM   27  C   UNL     1     -40.650  55.390 -54.358  1.00  0.00     0.013 A 
HETATM   28  C   UNL     1     -40.775  52.803 -53.380  1.00  0.00     0.012 A 
HETATM   29  C   UNL     1     -41.935  53.559 -51.399  1.00  0.00     0.012 A 
HETATM   30  C   UNL     1     -40.164  53.042 -54.607  1.00  0.00     0.001 A 
HETATM   31  C   UNL     1     -40.095  54.336 -55.092  1.00  0.00     0.001 A 
HETATM   32  C   UNL     1     -42.506  54.561 -50.627  1.00  0.00     0.002 A 
HETATM   33  C   UNL     1     -42.508  55.870 -51.090  1.00  0.00     0.010 A 
ENDBRANCH   9  24
TORSDOF 4
ENDMDL
MODEL 2
REMARK VINA RESULT:      -8.7      2.680      6.487
REMARK  4 active torsions:
REMARK  status: ('A' for Active; 'I' for Inactive)
REMARK    1  A    between atoms: C_9  and  C_10 
REMARK    2  A    between atoms: C_20  and  C_21 
REMARK       I    between atoms: C_21  and  N_22 
REMARK    3  A    between atoms: N_22  and  C_23 
REMARK    4  A    between atoms: C_26  and  O_27 
ROOT
HETATM    1  C   UNL     1     -43.526  55.407 -58.719  1.00  0.00     0.070 C 
HETATM    2  C   UNL     1     -43.114  56.682 -58.024  1.00  0.00     0.037 C 
HETATM    3  N   UNL     1     -43.075  57.816 -58.833  1.00  0.00    -0.192 N 
HETATM    4  C   UNL     1     -42.494  58.972 -58.451  1.00  0.00     0.725 A 
HETATM    5  N   UNL     1     -42.067  59.117 -57.157  1.00  0.00    -0.084 N 
HETATM    6  N   UNL     1     -41.432  60.294 -56.983  1.00  0.00    -0.149 NA
HETATM    7  C   UNL     1     -41.580  60.837 -58.197  1.00  0.00     0.275 A 
HETATM    8  N   UNL     1     -42.224  60.060 -59.125  1.00  0.00    -0.054 NA
HETATM    9  C   UNL     1     -42.161  58.059 -56.144  1.00  0.00     0.203 C 
HETATM   10  C   UNL     1     -42.710  56.764 -56.732  1.00  0.00     0.062 C 
HETATM   11  H   UNL     1     -43.283  57.697 -59.821  1.00  0.00     0.184 HD
ENDROOT
BRANCH  10  12
HETATM   12  C   UNL     1     -42.548  55.580 -55.847  1.00  0.00     0.256 C 
HETATM   13  N   UNL     1     -41.253  55.358 -55.435  1.00  0.00    -0.323 N 
HETATM   14  H   UNL     1     -40.535  55.954 -55.825  1.00  0.00     0.169 HD
HETATM   15  O   UNL     1     -43.540  54.909 -55.588  1.00  0.00    -0.267 OA
BRANCH  13  16
HETATM   16  C   UNL     1     -40.819  54.399 -54.494  1.00  0.00     0.035 A 
HETATM   17  C   UNL     1     -40.260  53.167 -54.837  1.00  0.00     0.032 A 
HETATM   18  C   UNL     1     -39.879  52.258 -53.843  1.00  0.00     0.039 A 
HETATM   19  C   UNL     1     -40.037  52.569 -52.495  1.00  0.00     0.068 A 
HETATM   20  C   UNL     1     -40.610  53.788 -52.142  1.00  0.00     0.039 A 
HETATM   21  C   UNL     1     -40.994  54.699 -53.137  1.00  0.00     0.032 A 
BRANCH  19  22
HETATM   22  O   UNL     1     -39.629  51.599 -51.623  1.00  0.00    -0.356 OA
HETATM   23  C   UNL     1     -39.485  50.294 -52.172  1.00  0.00     0.210 C 
ENDBRANCH  19  22
ENDBRANCH  13  16
ENDBRANCH  10  12
BRANCH   9  24
HETATM   24  C   UNL     1     -42.893  58.534 -54.881  1.00  0.00    -0.017 A 
HETATM   25  C   UNL     1     -42.283  58.746 -53.602  1.00  0.00    -0.017 A 
HETATM   26  C   UNL     1     -43.113  59.122 -52.510  1.00  0.00    -0.025 A 
HETATM   27  C   UNL     1     -40.902  58.601 -53.318  1.00  0.00     0.013 A 
HETATM   28  C   UNL     1     -42.573  59.298 -51.225  1.00  0.00     0.012 A 
HETATM   29  C   UNL     1     -44.487  59.321 -52.699  1.00  0.00     0.012 A 
HETATM   30  C   UNL     1     -41.214  59.119 -50.985  1.00  0.00     0.001 A 
HETATM   31  C   UNL     1     -40.378  58.778 -52.033  1.00  0.00     0.001 A 
HETATM   32  C   UNL     1     -45.067  59.157 -53.949  1.00  0.00     0.002 A 
HETATM   33  C   UNL     1     -44.281  58.767 -55.026  1.00  0.00     0.010 A 
ENDBRANCH   9  24
TORSDOF 4
ENDMDL
MODEL 3
REMARK VINA RESULT:      -8.4      2.150      4.807
REMARK  4 active torsions:
REMARK  status: ('A' for Active; 'I' for Inactive)
REMARK    1  A    between atoms: C_9  and  C_10 
REMARK    2  A    between atoms: C_20  and  C_21 
REMARK       I    between atoms: C_21  and  N_22 
REMARK    3  A    between atoms: N_22  and  C_23 
REMARK    4  A    between atoms: C_26  and  O_27 
ROOT
HETATM    1  C   UNL     1     -40.694  52.873 -54.391  1.00  0.00     0.070 C 
HETATM    2  C   UNL     1     -40.959  53.772 -53.207  1.00  0.00     0.037 C 
HETATM    3  N   UNL     1     -40.209  53.493 -52.067  1.00  0.00    -0.192 N 
HETATM    4  C   UNL     1     -40.489  54.018 -50.856  1.00  0.00     0.725 A 
HETATM    5  N   UNL     1     -41.439  55.000 -50.749  1.00  0.00    -0.084 N 
HETATM    6  N   UNL     1     -41.648  55.336 -49.460  1.00  0.00    -0.149 NA
HETATM    7  C   UNL     1     -40.736  54.569 -48.852  1.00  0.00     0.275 A 
HETATM    8  N   UNL     1     -40.005  53.746 -49.670  1.00  0.00    -0.054 NA
HETATM    9  C   UNL     1     -42.224  55.501 -51.883  1.00  0.00     0.203 C 
HETATM   10  C   UNL     1     -41.911  54.738 -53.165  1.00  0.00     0.062 C 
HETATM   11  H   UNL     1     -39.581  52.694 -52.100  1.00  0.00     0.184 HD
ENDROOT
BRANCH  10  12
HETATM   12  C   UNL     1     -42.877  54.986 -54.269  1.00  0.00     0.256 C 
HETATM   13  N   UNL     1     -42.417  55.849 -55.238  1.00  0.00    -0.323 N 
HETATM   14  H   UNL     1     -41.521  56.289 -55.077  1.00  0.00     0.169 HD
HETATM   15  O   UNL     1     -43.973  54.442 -54.212  1.00  0.00    -0.267 OA
BRANCH  13  16
HETATM   16  C   UNL     1     -43.053  56.165 -56.458  1.00  0.00     0.035 A 
HETATM   17  C   UNL     1     -42.993  55.362 -57.598  1.00  0.00     0.032 A 
HETATM   18  C   UNL     1     -43.629  55.759 -58.780  1.00  0.00     0.039 A 
HETATM   19  C   UNL     1     -44.344  56.952 -58.839  1.00  0.00     0.068 A 
HETATM   20  C   UNL     1     -44.395  57.769 -57.713  1.00  0.00     0.039 A 
HETATM   21  C   UNL     1     -43.756  57.374 -56.528  1.00  0.00     0.032 A 
BRANCH  19  22
HETATM   22  O   UNL     1     -44.918  57.228 -60.049  1.00  0.00    -0.356 OA
HETATM   23  C   UNL     1     -46.201  56.653 -60.270  1.00  0.00     0.210 C 
ENDBRANCH  19  22
ENDBRANCH  13  16
ENDBRANCH  10  12
BRANCH   9  24
HETATM   24  C   UNL     1     -42.127  57.027 -52.022  1.00  0.00    -0.017 A 
HETATM   25  C   UNL     1     -43.183  57.952 -51.736  1.00  0.00    -0.017 A 
HETATM   26  C   UNL     1     -42.956  59.335 -51.981  1.00  0.00    -0.025 A 
HETATM   27  C   UNL     1     -44.461  57.606 -51.230  1.00  0.00     0.013 A 
HETATM   28  C   UNL     1     -43.973  60.279 -51.760  1.00  0.00     0.012 A 
HETATM   29  C   UNL     1     -41.713  59.777 -52.450  1.00  0.00     0.012 A 
HETATM   30  C   UNL     1     -45.224  59.892 -51.288  1.00  0.00     0.001 A 
HETATM   31  C   UNL     1     -45.465  58.557 -51.016  1.00  0.00     0.001 A 
HETATM   32  C   UNL     1     -40.678  58.882 -52.686  1.00  0.00     0.002 A 
HETATM   33  C   UNL     1     -40.883  57.524 -52.476  1.00  0.00     0.010 A 
ENDBRANCH   9  24
TORSDOF 4
ENDMDL
MODEL 4
REMARK VINA RESULT:      -8.4      1.331      2.437
REMARK  4 active torsions:
REMARK  status: ('A' for Active; 'I' for Inactive)
REMARK    1  A    between atoms: C_9  and  C_10 
REMARK    2  A    between atoms: C_20  and  C_21 
REMARK       I    between atoms: C_21  and  N_22 
REMARK    3  A    between atoms: N_22  and  C_23 
REMARK    4  A    between atoms: C_26  and  O_27 
ROOT
HETATM    1  C   UNL     1     -45.267  58.615 -51.594  1.00  0.00     0.070 C 
HETATM    2  C   UNL     1     -43.801  58.342 -51.830  1.00  0.00     0.037 C 
HETATM    3  N   UNL     1     -42.937  58.850 -50.864  1.00  0.00    -0.192 N 
HETATM    4  C   UNL     1     -41.601  58.922 -51.038  1.00  0.00     0.725 A 
HETATM    5  N   UNL     1     -41.029  58.324 -52.130  1.00  0.00    -0.084 N 
HETATM    6  N   UNL     1     -39.705  58.578 -52.187  1.00  0.00    -0.149 NA
HETATM    7  C   UNL     1     -39.537  59.272 -51.056  1.00  0.00     0.275 A 
HETATM    8  N   UNL     1     -40.673  59.506 -50.323  1.00  0.00    -0.054 NA
HETATM    9  C   UNL     1     -41.794  57.630 -53.173  1.00  0.00     0.203 C 
HETATM   10  C   UNL     1     -43.295  57.733 -52.932  1.00  0.00     0.062 C 
HETATM   11  H   UNL     1     -43.343  59.392 -50.106  1.00  0.00     0.184 HD
ENDROOT
BRANCH  10  12
HETATM   12  C   UNL     1     -44.125  57.320 -54.095  1.00  0.00     0.256 C 
HETATM   13  N   UNL     1     -44.174  58.250 -55.110  1.00  0.00    -0.323 N 
HETATM   14  H   UNL     1     -43.720  59.139 -54.945  1.00  0.00     0.169 HD
HETATM   15  O   UNL     1     -44.698  56.239 -54.044  1.00  0.00    -0.267 OA
BRANCH  13  16
HETATM   16  C   UNL     1     -44.766  58.082 -56.381  1.00  0.00     0.035 A 
HETATM   17  C   UNL     1     -46.100  58.380 -56.664  1.00  0.00     0.032 A 
HETATM   18  C   UNL     1     -46.620  58.160 -57.945  1.00  0.00     0.039 A 
HETATM   19  C   UNL     1     -45.816  57.653 -58.963  1.00  0.00     0.068 A 
HETATM   20  C   UNL     1     -44.489  57.334 -58.686  1.00  0.00     0.039 A 
HETATM   21  C   UNL     1     -43.967  57.553 -57.403  1.00  0.00     0.032 A 
BRANCH  19  22
HETATM   22  O   UNL     1     -46.441  57.481 -60.167  1.00  0.00    -0.356 OA
HETATM   23  C   UNL     1     -46.983  56.187 -60.403  1.00  0.00     0.210 C 
ENDBRANCH  19  22
ENDBRANCH  13  16
ENDBRANCH  10  12
BRANCH   9  24
HETATM   24  C   UNL     1     -41.291  56.197 -53.398  1.00  0.00    -0.017 A 
HETATM   25  C   UNL     1     -41.179  55.191 -52.384  1.00  0.00    -0.017 A 
HETATM   26  C   UNL     1     -40.629  53.929 -52.741  1.00  0.00    -0.025 A 
HETATM   27  C   UNL     1     -41.566  55.346 -51.029  1.00  0.00     0.013 A 
HETATM   28  C   UNL     1     -40.455  52.923 -51.775  1.00  0.00     0.012 A 
HETATM   29  C   UNL     1     -40.248  53.670 -54.063  1.00  0.00     0.012 A 
HETATM   30  C   UNL     1     -40.824  53.127 -50.449  1.00  0.00     0.001 A 
HETATM   31  C   UNL     1     -41.386  54.337 -50.078  1.00  0.00     0.001 A 
HETATM   32  C   UNL     1     -40.397  54.633 -55.052  1.00  0.00     0.002 A 
HETATM   33  C   UNL     1     -40.911  55.881 -54.723  1.00  0.00     0.010 A 
ENDBRANCH   9  24
TORSDOF 4
ENDMDL
MODEL 5
REMARK VINA RESULT:      -8.1      2.355      5.840
REMARK  4 active torsions:
REMARK  status: ('A' for Active; 'I' for Inactive)
REMARK    1  A    between atoms: C_9  and  C_10 
REMARK    2  A    between atoms: C_20  and  C_21 
REMARK       I    between atoms: C_21  and  N_22 
REMARK    3  A    between atoms: N_22  and  C_23 
REMARK    4  A    between atoms: C_26  and  O_27 
ROOT
HETATM    1  C   UNL     1     -40.687  59.013 -50.585  1.00  0.00     0.070 C 
HETATM    2  C   UNL     1     -41.784  59.186 -51.608  1.00  0.00     0.037 C 
HETATM    3  N   UNL     1     -42.736  60.155 -51.303  1.00  0.00    -0.192 N 
HETATM    4  C   UNL     1     -43.907  60.268 -51.963  1.00  0.00     0.725 A 
HETATM    5  N   UNL     1     -44.121  59.522 -53.092  1.00  0.00    -0.084 N 
HETATM    6  N   UNL     1     -45.373  59.695 -53.562  1.00  0.00    -0.149 NA
HETATM    7  C   UNL     1     -45.832  60.618 -52.708  1.00  0.00     0.275 A 
HETATM    8  N   UNL     1     -44.966  60.995 -51.714  1.00  0.00    -0.054 NA
HETATM    9  C   UNL     1     -43.155  58.550 -53.622  1.00  0.00     0.203 C 
HETATM   10  C   UNL     1     -41.936  58.418 -52.716  1.00  0.00     0.062 C 
HETATM   11  H   UNL     1     -42.649  60.638 -50.413  1.00  0.00     0.184 HD
ENDROOT
BRANCH  10  12
HETATM   12  C   UNL     1     -41.075  57.247 -53.028  1.00  0.00     0.256 C 
HETATM   13  N   UNL     1     -41.561  56.048 -52.556  1.00  0.00    -0.323 N 
HETATM   14  H   UNL     1     -42.396  56.080 -51.986  1.00  0.00     0.169 HD
HETATM   15  O   UNL     1     -40.027  57.442 -53.633  1.00  0.00    -0.267 OA
BRANCH  13  16
HETATM   16  C   UNL     1     -41.034  54.763 -52.812  1.00  0.00     0.035 A 
HETATM   17  C   UNL     1     -40.968  54.187 -54.081  1.00  0.00     0.032 A 
HETATM   18  C   UNL     1     -40.454  52.895 -54.248  1.00  0.00     0.039 A 
HETATM   19  C   UNL     1     -39.988  52.167 -53.157  1.00  0.00     0.068 A 
HETATM   20  C   UNL     1     -40.067  52.725 -51.884  1.00  0.00     0.039 A 
HETATM   21  C   UNL     1     -40.583  54.019 -51.714  1.00  0.00     0.032 A 
BRANCH  19  22
HETATM   22  O   UNL     1     -39.514  50.919 -53.451  1.00  0.00    -0.356 OA
HETATM   23  C   UNL     1     -40.264  50.181 -54.409  1.00  0.00     0.210 C 
ENDBRANCH  19  22
ENDBRANCH  13  16
ENDBRANCH  10  12
BRANCH   9  24
HETATM   24  C   UNL     1     -42.817  58.818 -55.095  1.00  0.00    -0.017 A 
HETATM   25  C   UNL     1     -42.859  57.843 -56.144  1.00  0.00    -0.017 A 
HETATM   26  C   UNL     1     -42.449  58.234 -57.448  1.00  0.00    -0.025 A 
HETATM   27  C   UNL     1     -43.272  56.495 -55.994  1.00  0.00     0.013 A 
HETATM   28  C   UNL     1     -42.428  57.305 -58.503  1.00  0.00     0.012 A 
HETATM   29  C   UNL     1     -42.055  59.554 -57.702  1.00  0.00     0.012 A 
HETATM   30  C   UNL     1     -42.816  55.983 -58.305  1.00  0.00     0.001 A 
HETATM   31  C   UNL     1     -43.244  55.581 -57.052  1.00  0.00     0.001 A 
HETATM   32  C   UNL     1     -42.056  60.506 -56.692  1.00  0.00     0.002 A 
HETATM   33  C   UNL     1     -42.431  60.143 -55.405  1.00  0.00     0.010 A 
ENDBRANCH   9  24
TORSDOF 4
ENDMDL
MODEL 6
REMARK VINA RESULT:      -8.0      2.180      4.569
REMARK  4 active torsions:
REMARK  status: ('A' for Active; 'I' for Inactive)
REMARK    1  A    between atoms: C_9  and  C_10 
REMARK    2  A    between atoms: C_20  and  C_21 
REMARK       I    between atoms: C_21  and  N_22 
REMARK    3  A    between atoms: N_22  and  C_23 
REMARK    4  A    between atoms: C_26  and  O_27 
ROOT
HETATM    1  C   UNL     1     -40.305  53.910 -54.657  1.00  0.00     0.070 C 
HETATM    2  C   UNL     1     -40.890  54.358 -53.339  1.00  0.00     0.037 C 
HETATM    3  N   UNL     1     -40.142  54.027 -52.212  1.00  0.00    -0.192 N 
HETATM    4  C   UNL     1     -40.625  54.119 -50.955  1.00  0.00     0.725 A 
HETATM    5  N   UNL     1     -41.838  54.719 -50.741  1.00  0.00    -0.084 N 
HETATM    6  N   UNL     1     -42.200  54.638 -49.444  1.00  0.00    -0.149 NA
HETATM    7  C   UNL     1     -41.121  54.042 -48.924  1.00  0.00     0.275 A 
HETATM    8  N   UNL     1     -40.134  53.707 -49.814  1.00  0.00    -0.054 NA
HETATM    9  C   UNL     1     -42.690  55.242 -51.816  1.00  0.00     0.203 C 
HETATM   10  C   UNL     1     -42.097  54.959 -53.192  1.00  0.00     0.062 C 
HETATM   11  H   UNL     1     -39.294  53.484 -52.351  1.00  0.00     0.184 HD
ENDROOT
BRANCH  10  12
HETATM   12  C   UNL     1     -43.042  55.187 -54.317  1.00  0.00     0.256 C 
HETATM   13  N   UNL     1     -42.657  56.187 -55.183  1.00  0.00    -0.323 N 
HETATM   14  H   UNL     1     -41.831  56.716 -54.939  1.00  0.00     0.169 HD
HETATM   15  O   UNL     1     -44.062  54.510 -54.364  1.00  0.00    -0.267 OA
BRANCH  13  16
HETATM   16  C   UNL     1     -43.279  56.533 -56.402  1.00  0.00     0.035 A 
HETATM   17  C   UNL     1     -44.164  57.602 -56.549  1.00  0.00     0.032 A 
HETATM   18  C   UNL     1     -44.761  57.865 -57.787  1.00  0.00     0.039 A 
HETATM   19  C   UNL     1     -44.474  57.076 -58.898  1.00  0.00     0.068 A 
HETATM   20  C   UNL     1     -43.607  55.996 -58.759  1.00  0.00     0.039 A 
HETATM   21  C   UNL     1     -43.009  55.730 -57.517  1.00  0.00     0.032 A 
BRANCH  19  22
HETATM   22  O   UNL     1     -45.121  57.433 -60.048  1.00  0.00    -0.356 OA
HETATM   23  C   UNL     1     -46.462  56.974 -60.172  1.00  0.00     0.210 C 
ENDBRANCH  19  22
ENDBRANCH  13  16
ENDBRANCH  10  12
BRANCH   9  24
HETATM   24  C   UNL     1     -43.069  56.712 -51.587  1.00  0.00    -0.017 A 
HETATM   25  C   UNL     1     -42.147  57.766 -51.280  1.00  0.00    -0.017 A 
HETATM   26  C   UNL     1     -42.666  59.066 -51.027  1.00  0.00    -0.025 A 
HETATM   27  C   UNL     1     -40.740  57.624 -51.193  1.00  0.00     0.013 A 
HETATM   28  C   UNL     1     -41.810  60.124 -50.677  1.00  0.00     0.012 A 
HETATM   29  C   UNL     1     -44.041  59.311 -51.121  1.00  0.00     0.012 A 
HETATM   30  C   UNL     1     -40.435  59.934 -50.576  1.00  0.00     0.001 A 
HETATM   31  C   UNL     1     -39.900  58.686 -50.842  1.00  0.00     0.001 A 
HETATM   32  C   UNL     1     -44.926  58.298 -51.461  1.00  0.00     0.002 A 
HETATM   33  C   UNL     1     -44.447  57.014 -51.689  1.00  0.00     0.010 A 
ENDBRANCH   9  24
TORSDOF 4
ENDMDL
MODEL 7
REMARK VINA RESULT:      -8.0      1.337      2.390
REMARK  4 active torsions:
REMARK  status: ('A' for Active; 'I' for Inactive)
REMARK    1  A    between atoms: C_9  and  C_10 
REMARK    2  A    between atoms: C_20  and  C_21 
REMARK       I    between atoms: C_21  and  N_22 
REMARK    3  A    between atoms: N_22  and  C_23 
REMARK    4  A    between atoms: C_26  and  O_27 
ROOT
HETATM    1  C   UNL     1     -44.165  60.845 -54.315  1.00  0.00     0.070 C 
HETATM    2  C   UNL     1     -43.152  60.025 -53.553  1.00  0.00     0.037 C 
HETATM    3  N   UNL     1     -42.964  60.395 -52.223  1.00  0.00    -0.192 N 
HETATM    4  C   UNL     1     -41.935  59.949 -51.475  1.00  0.00     0.725 A 
HETATM    5  N   UNL     1     -41.121  58.961 -51.965  1.00  0.00    -0.084 N 
HETATM    6  N   UNL     1     -40.098  58.710 -51.123  1.00  0.00    -0.149 NA
HETATM    7  C   UNL     1     -40.401  59.532 -50.112  1.00  0.00     0.275 A 
HETATM    8  N   UNL     1     -41.517  60.309 -50.287  1.00  0.00    -0.054 NA
HETATM    9  C   UNL     1     -41.271  58.370 -53.300  1.00  0.00     0.203 C 
HETATM   10  C   UNL     1     -42.381  59.048 -54.094  1.00  0.00     0.062 C 
HETATM   11  H   UNL     1     -43.483  61.199 -51.880  1.00  0.00     0.184 HD
ENDROOT
BRANCH  10  12
HETATM   12  C   UNL     1     -42.384  58.710 -55.542  1.00  0.00     0.256 C 
HETATM   13  N   UNL     1     -43.159  57.618 -55.865  1.00  0.00    -0.323 N 
HETATM   14  H   UNL     1     -43.581  57.109 -55.100  1.00  0.00     0.169 HD
HETATM   15  O   UNL     1     -41.699  59.389 -56.298  1.00  0.00    -0.267 OA
BRANCH  13  16
HETATM   16  C   UNL     1     -43.457  57.148 -57.162  1.00  0.00     0.035 A 
HETATM   17  C   UNL     1     -42.712  56.173 -57.828  1.00  0.00     0.032 A 
HETATM   18  C   UNL     1     -43.058  55.779 -59.126  1.00  0.00     0.039 A 
HETATM   19  C   UNL     1     -44.156  56.340 -59.773  1.00  0.00     0.068 A 
HETATM   20  C   UNL     1     -44.895  57.327 -59.125  1.00  0.00     0.039 A 
HETATM   21  C   UNL     1     -44.549  57.724 -57.824  1.00  0.00     0.032 A 
BRANCH  19  22
HETATM   22  O   UNL     1     -44.388  55.874 -61.037  1.00  0.00    -0.356 OA
HETATM   23  C   UNL     1     -45.720  55.453 -61.306  1.00  0.00     0.210 C 
ENDBRANCH  19  22
ENDBRANCH  13  16
ENDBRANCH  10  12
BRANCH   9  24
HETATM   24  C   UNL     1     -41.386  56.840 -53.243  1.00  0.00    -0.017 A 
HETATM   25  C   UNL     1     -42.269  56.108 -52.384  1.00  0.00    -0.017 A 
HETATM   26  C   UNL     1     -42.207  54.687 -52.402  1.00  0.00    -0.025 A 
HETATM   27  C   UNL     1     -43.211  56.684 -51.495  1.00  0.00     0.013 A 
HETATM   28  C   UNL     1     -43.019  53.923 -51.547  1.00  0.00     0.012 A 
HETATM   29  C   UNL     1     -41.330  54.027 -53.271  1.00  0.00     0.012 A 
HETATM   30  C   UNL     1     -43.911  54.530 -50.669  1.00  0.00     0.001 A 
HETATM   31  C   UNL     1     -44.012  55.911 -50.649  1.00  0.00     0.001 A 
HETATM   32  C   UNL     1     -40.506  54.739 -54.132  1.00  0.00     0.002 A 
HETATM   33  C   UNL     1     -40.532  56.127 -54.117  1.00  0.00     0.010 A 
ENDBRANCH   9  24
TORSDOF 4
ENDMDL
MODEL 8
REMARK VINA RESULT:      -7.8      2.420      5.830
REMARK  4 active torsions:
REMARK  status: ('A' for Active; 'I' for Inactive)
REMARK    1  A    between atoms: C_9  and  C_10 
REMARK    2  A    between atoms: C_20  and  C_21 
REMARK       I    between atoms: C_21  and  N_22 
REMARK    3  A    between atoms: N_22  and  C_23 
REMARK    4  A    between atoms: C_26  and  O_27 
ROOT
HETATM    1  C   UNL     1     -41.094  59.553 -50.937  1.00  0.00     0.070 C 
HETATM    2  C   UNL     1     -42.085  59.703 -52.067  1.00  0.00     0.037 C 
HETATM    3  N   UNL     1     -43.050  60.690 -51.886  1.00  0.00    -0.192 N 
HETATM    4  C   UNL     1     -44.150  60.793 -52.660  1.00  0.00     0.725 A 
HETATM    5  N   UNL     1     -44.263  60.013 -53.780  1.00  0.00    -0.084 N 
HETATM    6  N   UNL     1     -45.462  60.184 -54.374  1.00  0.00    -0.149 NA
HETATM    7  C   UNL     1     -45.989  61.137 -53.598  1.00  0.00     0.275 A 
HETATM    8  N   UNL     1     -45.220  61.538 -52.536  1.00  0.00    -0.054 NA
HETATM    9  C   UNL     1     -43.263  59.016 -54.183  1.00  0.00     0.203 C 
HETATM   10  C   UNL     1     -42.139  58.902 -53.161  1.00  0.00     0.062 C 
HETATM   11  H   UNL     1     -43.043  61.201 -51.007  1.00  0.00     0.184 HD
ENDROOT
BRANCH  10  12
HETATM   12  C   UNL     1     -41.266  57.713 -53.351  1.00  0.00     0.256 C 
HETATM   13  N   UNL     1     -41.921  56.508 -53.232  1.00  0.00    -0.323 N 
HETATM   14  H   UNL     1     -42.893  56.536 -52.955  1.00  0.00     0.169 HD
HETATM   15  O   UNL     1     -40.073  57.897 -53.562  1.00  0.00    -0.267 OA
BRANCH  13  16
HETATM   16  C   UNL     1     -41.387  55.227 -53.491  1.00  0.00     0.035 A 
HETATM   17  C   UNL     1     -41.375  54.185 -52.562  1.00  0.00     0.032 A 
HETATM   18  C   UNL     1     -40.801  52.951 -52.887  1.00  0.00     0.039 A 
HETATM   19  C   UNL     1     -40.243  52.733 -54.144  1.00  0.00     0.068 A 
HETATM   20  C   UNL     1     -40.233  53.771 -55.072  1.00  0.00     0.039 A 
HETATM   21  C   UNL     1     -40.806  55.009 -54.747  1.00  0.00     0.032 A 
BRANCH  19  22
HETATM   22  O   UNL     1     -39.713  51.487 -54.338  1.00  0.00    -0.356 OA
HETATM   23  C   UNL     1     -39.496  50.718 -53.161  1.00  0.00     0.210 C 
ENDBRANCH  19  22
ENDBRANCH  13  16
ENDBRANCH  10  12
BRANCH   9  24
HETATM   24  C   UNL     1     -42.781  59.234 -55.624  1.00  0.00    -0.017 A 
HETATM   25  C   UNL     1     -42.790  58.242 -56.658  1.00  0.00    -0.017 A 
HETATM   26  C   UNL     1     -42.244  58.581 -57.927  1.00  0.00    -0.025 A 
HETATM   27  C   UNL     1     -43.295  56.924 -56.525  1.00  0.00     0.013 A 
HETATM   28  C   UNL     1     -42.187  57.632 -58.961  1.00  0.00     0.012 A 
HETATM   29  C   UNL     1     -41.750  59.870 -58.164  1.00  0.00     0.012 A 
HETATM   30  C   UNL     1     -42.670  56.340 -58.779  1.00  0.00     0.001 A 
HETATM   31  C   UNL     1     -43.231  55.989 -57.563  1.00  0.00     0.001 A 
HETATM   32  C   UNL     1     -41.781  60.841 -57.173  1.00  0.00     0.002 A 
HETATM   33  C   UNL     1     -42.289  60.527 -55.918  1.00  0.00     0.010 A 
ENDBRANCH   9  24
TORSDOF 4
ENDMDL
MODEL 9
REMARK VINA RESULT:      -7.6      2.547      6.689
REMARK  4 active torsions:
REMARK  status: ('A' for Active; 'I' for Inactive)
REMARK    1  A    between atoms: C_9  and  C_10 
REMARK    2  A    between atoms: C_20  and  C_21 
REMARK       I    between atoms: C_21  and  N_22 
REMARK    3  A    between atoms: N_22  and  C_23 
REMARK    4  A    between atoms: C_26  and  O_27 
ROOT
HETATM    1  C   UNL     1     -41.296  59.510 -53.411  1.00  0.00     0.070 C 
HETATM    2  C   UNL     1     -42.182  59.722 -54.615  1.00  0.00     0.037 C 
HETATM    3  N   UNL     1     -42.402  61.052 -54.966  1.00  0.00    -0.192 N 
HETATM    4  C   UNL     1     -43.354  61.434 -55.842  1.00  0.00     0.725 A 
HETATM    5  N   UNL     1     -44.035  60.483 -56.556  1.00  0.00    -0.084 N 
HETATM    6  N   UNL     1     -45.006  61.040 -57.307  1.00  0.00    -0.149 NA
HETATM    7  C   UNL     1     -44.803  62.338 -57.052  1.00  0.00     0.275 A 
HETATM    8  N   UNL     1     -43.802  62.622 -56.159  1.00  0.00    -0.054 NA
HETATM    9  C   UNL     1     -43.823  59.039 -56.398  1.00  0.00     0.203 C 
HETATM   10  C   UNL     1     -42.823  58.735 -55.289  1.00  0.00     0.062 C 
HETATM   11  H   UNL     1     -41.991  61.770 -54.374  1.00  0.00     0.184 HD
ENDROOT
BRANCH  10  12
HETATM   12  C   UNL     1     -42.792  57.306 -54.876  1.00  0.00     0.256 C 
HETATM   13  N   UNL     1     -41.528  56.763 -54.818  1.00  0.00    -0.323 N 
HETATM   14  H   UNL     1     -40.761  57.343 -55.131  1.00  0.00     0.169 HD
HETATM   15  O   UNL     1     -43.858  56.744 -54.656  1.00  0.00    -0.267 OA
BRANCH  13  16
HETATM   16  C   UNL     1     -41.181  55.483 -54.334  1.00  0.00     0.035 A 
HETATM   17  C   UNL     1     -41.333  55.085 -53.005  1.00  0.00     0.032 A 
HETATM   18  C   UNL     1     -40.939  53.805 -52.598  1.00  0.00     0.039 A 
HETATM   19  C   UNL     1     -40.401  52.901 -53.510  1.00  0.00     0.068 A 
HETATM   20  C   UNL     1     -40.227  53.294 -54.835  1.00  0.00     0.039 A 
HETATM   21  C   UNL     1     -40.620  54.577 -55.244  1.00  0.00     0.032 A 
BRANCH  19  22
HETATM   22  O   UNL     1     -40.054  51.685 -52.989  1.00  0.00    -0.356 OA
HETATM   23  C   UNL     1     -39.944  50.620 -53.926  1.00  0.00     0.210 C 
ENDBRANCH  19  22
ENDBRANCH  13  16
ENDBRANCH  10  12
BRANCH   9  24
HETATM   24  C   UNL     1     -43.506  58.353 -57.735  1.00  0.00    -0.017 A 
HETATM   25  C   UNL     1     -44.467  57.717 -58.586  1.00  0.00    -0.017 A 
HETATM   26  C   UNL     1     -44.003  57.065 -59.762  1.00  0.00    -0.025 A 
HETATM   27  C   UNL     1     -45.864  57.669 -58.353  1.00  0.00     0.013 A 
HETATM   28  C   UNL     1     -44.897  56.387 -60.607  1.00  0.00     0.012 A 
HETATM   29  C   UNL     1     -42.642  57.086 -60.094  1.00  0.00     0.012 A 
HETATM   30  C   UNL     1     -46.259  56.342 -60.326  1.00  0.00     0.001 A 
HETATM   31  C   UNL     1     -46.743  56.989 -59.203  1.00  0.00     0.001 A 
HETATM   32  C   UNL     1     -41.720  57.740 -59.288  1.00  0.00     0.002 A 
HETATM   33  C   UNL     1     -42.146  58.364 -58.123  1.00  0.00     0.010 A 
ENDBRANCH   9  24
TORSDOF 4
ENDMDL
MODEL 10
REMARK VINA RESULT:      -7.2      2.391      5.163
REMARK  4 active torsions:
REMARK  status: ('A' for Active; 'I' for Inactive)
REMARK    1  A    between atoms: C_9  and  C_10 
REMARK    2  A    between atoms: C_20  and  C_21 
REMARK       I    between atoms: C_21  and  N_22 
REMARK    3  A    between atoms: N_22  and  C_23 
REMARK    4  A    between atoms: C_26  and  O_27 
ROOT
HETATM    1  C   UNL     1     -40.201  54.468 -55.039  1.00  0.00     0.070 C 
HETATM    2  C   UNL     1     -40.681  54.858 -53.662  1.00  0.00     0.037 C 
HETATM    3  N   UNL     1     -40.338  53.977 -52.640  1.00  0.00    -0.192 N 
HETATM    4  C   UNL     1     -40.887  54.028 -51.409  1.00  0.00     0.725 A 
HETATM    5  N   UNL     1     -41.693  55.084 -51.073  1.00  0.00    -0.084 N 
HETATM    6  N   UNL     1     -42.224  54.921 -49.844  1.00  0.00    -0.149 NA
HETATM    7  C   UNL     1     -41.634  53.780 -49.470  1.00  0.00     0.275 A 
HETATM    8  N   UNL     1     -40.809  53.200 -50.398  1.00  0.00    -0.054 NA
HETATM    9  C   UNL     1     -42.044  56.169 -51.999  1.00  0.00     0.203 C 
HETATM   10  C   UNL     1     -41.472  55.926 -53.391  1.00  0.00     0.062 C 
HETATM   11  H   UNL     1     -39.834  53.131 -52.896  1.00  0.00     0.184 HD
ENDROOT
BRANCH  10  12
HETATM   12  C   UNL     1     -42.035  56.817 -54.440  1.00  0.00     0.256 C 
HETATM   13  N   UNL     1     -43.202  56.353 -55.007  1.00  0.00    -0.323 N 
HETATM   14  H   UNL     1     -43.520  55.435 -54.724  1.00  0.00     0.169 HD
HETATM   15  O   UNL     1     -41.423  57.840 -54.723  1.00  0.00    -0.267 OA
BRANCH  13  16
HETATM   16  C   UNL     1     -44.027  57.041 -55.923  1.00  0.00     0.035 A 
HETATM   17  C   UNL     1     -45.132  57.809 -55.552  1.00  0.00     0.032 A 
HETATM   18  C   UNL     1     -45.917  58.439 -56.524  1.00  0.00     0.039 A 
HETATM   19  C   UNL     1     -45.606  58.323 -57.877  1.00  0.00     0.068 A 
HETATM   20  C   UNL     1     -44.518  57.543 -58.259  1.00  0.00     0.039 A 
HETATM   21  C   UNL     1     -43.730  56.910 -57.285  1.00  0.00     0.032 A 
BRANCH  19  22
HETATM   22  O   UNL     1     -46.450  58.982 -58.726  1.00  0.00    -0.356 OA
HETATM   23  C   UNL     1     -47.604  59.561 -58.127  1.00  0.00     0.210 C 
ENDBRANCH  19  22
ENDBRANCH  13  16
ENDBRANCH  10  12
BRANCH   9  24
HETATM   24  C   UNL     1     -41.716  57.551 -51.418  1.00  0.00    -0.017 A 
HETATM   25  C   UNL     1     -42.665  58.602 -51.197  1.00  0.00    -0.017 A 
HETATM   26  C   UNL     1     -42.190  59.852 -50.714  1.00  0.00    -0.025 A 
HETATM   27  C   UNL     1     -44.060  58.508 -51.431  1.00  0.00     0.013 A 
HETATM   28  C   UNL     1     -43.072  60.930 -50.524  1.00  0.00     0.012 A 
HETATM   29  C   UNL     1     -40.832  60.030 -50.423  1.00  0.00     0.012 A 
HETATM   30  C   UNL     1     -44.431  60.803 -50.792  1.00  0.00     0.001 A 
HETATM   31  C   UNL     1     -44.926  59.590 -51.238  1.00  0.00     0.001 A 
HETATM   32  C   UNL     1     -39.922  58.996 -50.598  1.00  0.00     0.002 A 
HETATM   33  C   UNL     1     -40.358  57.773 -51.090  1.00  0.00     0.010 A 
ENDBRANCH   9  24
TORSDOF 4
ENDMDL
