MODEL 1
REMARK VINA RESULT:      -7.9      0.000      0.000
REMARK  8 active torsions:
REMARK  status: ('A' for Active; 'I' for Inactive)
REMARK    1  A    between atoms: C_6  and  C_7 
REMARK    2  A    between atoms: C_12  and  C_13 
REMARK    3  A    between atoms: C_13  and  N_14 
REMARK    4  A    between atoms: N_14  and  C_16 
REMARK    5  A    between atoms: N_14  and  C_23 
REMARK    6  A    between atoms: C_16  and  C_17 
REMARK    7  A    between atoms: C_23  and  C_24 
REMARK    8  A    between atoms: C_24  and  O_25 
ROOT
HETATM    1  C   UNL     1     -41.511  54.574 -54.738  1.00  0.00     0.069 A 
HETATM    2  N   UNL     1     -42.295  54.325 -55.839  1.00  0.00    -0.277 N 
HETATM    3  H   UNL     1     -42.537  53.425 -56.245  1.00  0.00     0.189 HD
HETATM    4  N   UNL     1     -42.792  55.435 -56.404  1.00  0.00    -0.186 NA
HETATM    5  C   UNL     1     -42.362  56.418 -55.618  1.00  0.00     0.149 A 
HETATM    6  C   UNL     1     -41.522  55.955 -54.580  1.00  0.00     0.016 A 
ENDROOT
BRANCH   6   7
HETATM    7  C   UNL     1     -40.841  56.787 -53.559  1.00  0.00     0.277 C 
BRANCH   7   8
HETATM    8  N   UNL     1     -41.555  58.072 -53.236  1.00  0.00    -0.061 N 
HETATM    9  H   UNL     1     -42.152  58.277 -54.061  1.00  0.00     0.280 HD
BRANCH   8  10
HETATM   10  C   UNL     1     -42.526  57.998 -52.085  1.00  0.00     0.273 C 
BRANCH  10  11
HETATM   11  C   UNL     1     -42.404  56.785 -51.199  1.00  0.00    -0.033 A 
HETATM   12  C   UNL     1     -41.345  56.641 -50.289  1.00  0.00     0.009 A 
HETATM   13  C   UNL     1     -41.239  55.498 -49.494  1.00  0.00     0.001 A 
HETATM   14  C   UNL     1     -42.195  54.490 -49.589  1.00  0.00     0.000 A 
HETATM   15  C   UNL     1     -43.263  54.627 -50.471  1.00  0.00     0.001 A 
HETATM   16  C   UNL     1     -43.371  55.769 -51.267  1.00  0.00     0.009 A 
ENDBRANCH  10  11
ENDBRANCH   8  10
BRANCH   8  17
HETATM   17  C   UNL     1     -40.633  59.278 -53.207  1.00  0.00     0.261 C 
BRANCH  17  18
HETATM   18  C   UNL     1     -39.538  59.011 -52.167  1.00  0.00     0.192 C 
BRANCH  18  19
HETATM   19  O   UNL     1     -38.290  59.302 -52.804  1.00  0.00    -0.399 OA
HETATM   20  H   UNL     1     -37.826  58.452 -52.950  1.00  0.00     0.209 HD
ENDBRANCH  18  19
ENDBRANCH  17  18
ENDBRANCH   8  17
ENDBRANCH   7   8
ENDBRANCH   6   7
BRANCH   1  21
HETATM   21  C   UNL     1     -40.900  53.505 -53.965  1.00  0.00    -0.007 A 
HETATM   22  C   UNL     1     -40.618  52.270 -54.561  1.00  0.00     0.021 A 
HETATM   23  C   UNL     1     -40.036  51.224 -53.825  1.00  0.00    -0.055 A 
HETATM   24  C   UNL     1     -39.744  51.419 -52.460  1.00  0.00    -0.056 A 
HETATM   25  C   UNL     1     -39.781  49.903 -54.502  1.00  0.00     0.049 C 
HETATM   26  C   UNL     1     -39.119  50.334 -51.623  1.00  0.00     0.049 C 
HETATM   27  C   UNL     1     -40.024  52.660 -51.870  1.00  0.00     0.008 A 
HETATM   28  C   UNL     1     -40.601  53.691 -52.614  1.00  0.00     0.014 A 
ENDBRANCH   1  21
TORSDOF 8
ENDMDL
MODEL 2
REMARK VINA RESULT:      -7.7      2.967      5.854
REMARK  8 active torsions:
REMARK  status: ('A' for Active; 'I' for Inactive)
REMARK    1  A    between atoms: C_6  and  C_7 
REMARK    2  A    between atoms: C_12  and  C_13 
REMARK    3  A    between atoms: C_13  and  N_14 
REMARK    4  A    between atoms: N_14  and  C_16 
REMARK    5  A    between atoms: N_14  and  C_23 
REMARK    6  A    between atoms: C_16  and  C_17 
REMARK    7  A    between atoms: C_23  and  C_24 
REMARK    8  A    between atoms: C_24  and  O_25 
ROOT
HETATM    1  C   UNL     1     -44.374  57.941 -55.454  1.00  0.00     0.069 A 
HETATM    2  N   UNL     1     -45.703  58.289 -55.464  1.00  0.00    -0.277 N 
HETATM    3  H   UNL     1     -46.303  58.492 -54.669  1.00  0.00     0.189 HD
HETATM    4  N   UNL     1     -46.223  58.374 -56.697  1.00  0.00    -0.186 NA
HETATM    5  C   UNL     1     -45.194  58.127 -57.501  1.00  0.00     0.149 A 
HETATM    6  C   UNL     1     -44.014  57.808 -56.789  1.00  0.00     0.016 A 
ENDROOT
BRANCH   6   7
HETATM    7  C   UNL     1     -42.703  57.439 -57.376  1.00  0.00     0.277 C 
BRANCH   7   8
HETATM    8  N   UNL     1     -42.594  55.993 -57.780  1.00  0.00    -0.061 N 
HETATM    9  H   UNL     1     -41.579  55.773 -57.767  1.00  0.00     0.280 HD
BRANCH   8  10
HETATM   10  C   UNL     1     -43.201  55.007 -56.813  1.00  0.00     0.273 C 
BRANCH  10  11
HETATM   11  C   UNL     1     -42.408  54.743 -55.559  1.00  0.00    -0.033 A 
HETATM   12  C   UNL     1     -42.997  54.169 -54.423  1.00  0.00     0.009 A 
HETATM   13  C   UNL     1     -42.248  53.954 -53.264  1.00  0.00     0.001 A 
HETATM   14  C   UNL     1     -40.899  54.297 -53.230  1.00  0.00     0.000 A 
HETATM   15  C   UNL     1     -40.294  54.847 -54.356  1.00  0.00     0.001 A 
HETATM   16  C   UNL     1     -41.041  55.064 -55.515  1.00  0.00     0.009 A 
ENDBRANCH  10  11
ENDBRANCH   8  10
BRANCH   8  17
HETATM   17  C   UNL     1     -42.951  55.750 -59.235  1.00  0.00     0.261 C 
BRANCH  17  18
HETATM   18  C   UNL     1     -42.402  56.921 -60.059  1.00  0.00     0.192 C 
BRANCH  18  19
HETATM   19  O   UNL     1     -41.067  56.569 -60.432  1.00  0.00    -0.399 OA
HETATM   20  H   UNL     1     -40.706  57.299 -60.975  1.00  0.00     0.209 HD
ENDBRANCH  18  19
ENDBRANCH  17  18
ENDBRANCH   8  17
ENDBRANCH   7   8
ENDBRANCH   6   7
BRANCH   1  21
HETATM   21  C   UNL     1     -43.614  57.821 -54.219  1.00  0.00    -0.007 A 
HETATM   22  C   UNL     1     -42.286  58.259 -54.157  1.00  0.00     0.021 A 
HETATM   23  C   UNL     1     -41.537  58.142 -52.973  1.00  0.00    -0.055 A 
HETATM   24  C   UNL     1     -42.131  57.561 -51.835  1.00  0.00    -0.056 A 
HETATM   25  C   UNL     1     -40.102  58.598 -52.965  1.00  0.00     0.049 C 
HETATM   26  C   UNL     1     -41.376  57.411 -50.540  1.00  0.00     0.049 C 
HETATM   27  C   UNL     1     -43.464  57.130 -51.902  1.00  0.00     0.008 A 
HETATM   28  C   UNL     1     -44.197  57.253 -53.084  1.00  0.00     0.014 A 
ENDBRANCH   1  21
TORSDOF 8
ENDMDL
MODEL 3
REMARK VINA RESULT:      -7.5      2.313      3.443
REMARK  8 active torsions:
REMARK  status: ('A' for Active; 'I' for Inactive)
REMARK    1  A    between atoms: C_6  and  C_7 
REMARK    2  A    between atoms: C_12  and  C_13 
REMARK    3  A    between atoms: C_13  and  N_14 
REMARK    4  A    between atoms: N_14  and  C_16 
REMARK    5  A    between atoms: N_14  and  C_23 
REMARK    6  A    between atoms: C_16  and  C_17 
REMARK    7  A    between atoms: C_23  and  C_24 
REMARK    8  A    between atoms: C_24  and  O_25 
ROOT
HETATM    1  C   UNL     1     -42.192  55.722 -54.865  1.00  0.00     0.069 A 
HETATM    2  N   UNL     1     -41.706  56.047 -56.109  1.00  0.00    -0.277 N 
HETATM    3  H   UNL     1     -40.886  55.673 -56.578  1.00  0.00     0.189 HD
HETATM    4  N   UNL     1     -42.449  56.961 -56.750  1.00  0.00    -0.186 NA
HETATM    5  C   UNL     1     -43.464  57.192 -55.924  1.00  0.00     0.149 A 
HETATM    6  C   UNL     1     -43.346  56.480 -54.707  1.00  0.00     0.016 A 
ENDROOT
BRANCH   6   7
HETATM    7  C   UNL     1     -44.278  56.543 -53.555  1.00  0.00     0.277 C 
BRANCH   7   8
HETATM    8  N   UNL     1     -43.728  57.270 -52.358  1.00  0.00    -0.061 N 
HETATM    9  H   UNL     1     -42.926  56.698 -52.025  1.00  0.00     0.280 HD
BRANCH   8  10
HETATM   10  C   UNL     1     -43.126  58.622 -52.646  1.00  0.00     0.273 C 
BRANCH  10  11
HETATM   11  C   UNL     1     -41.754  58.867 -52.072  1.00  0.00    -0.033 A 
HETATM   12  C   UNL     1     -41.574  59.243 -50.732  1.00  0.00     0.009 A 
HETATM   13  C   UNL     1     -40.295  59.487 -50.227  1.00  0.00     0.001 A 
HETATM   14  C   UNL     1     -39.180  59.348 -51.050  1.00  0.00     0.000 A 
HETATM   15  C   UNL     1     -39.341  58.955 -52.375  1.00  0.00     0.001 A 
HETATM   16  C   UNL     1     -40.618  58.711 -52.883  1.00  0.00     0.009 A 
ENDBRANCH  10  11
ENDBRANCH   8  10
BRANCH   8  17
HETATM   17  C   UNL     1     -44.658  57.236 -51.158  1.00  0.00     0.261 C 
BRANCH  17  18
HETATM   18  C   UNL     1     -45.387  58.583 -51.088  1.00  0.00     0.192 C 
BRANCH  18  19
HETATM   19  O   UNL     1     -45.767  58.771 -49.721  1.00  0.00    -0.399 OA
HETATM   20  H   UNL     1     -46.734  58.921 -49.698  1.00  0.00     0.209 HD
ENDBRANCH  18  19
ENDBRANCH  17  18
ENDBRANCH   8  17
ENDBRANCH   7   8
ENDBRANCH   6   7
BRANCH   1  21
HETATM   21  C   UNL     1     -41.549  54.730 -54.017  1.00  0.00    -0.007 A 
HETATM   22  C   UNL     1     -41.236  53.462 -54.520  1.00  0.00     0.021 A 
HETATM   23  C   UNL     1     -40.623  52.490 -53.710  1.00  0.00    -0.055 A 
HETATM   24  C   UNL     1     -40.331  52.796 -52.366  1.00  0.00    -0.056 A 
HETATM   25  C   UNL     1     -40.336  51.129 -54.287  1.00  0.00     0.049 C 
HETATM   26  C   UNL     1     -39.673  51.794 -51.454  1.00  0.00     0.049 C 
HETATM   27  C   UNL     1     -40.641  54.070 -51.870  1.00  0.00     0.008 A 
HETATM   28  C   UNL     1     -41.249  55.027 -52.686  1.00  0.00     0.014 A 
ENDBRANCH   1  21
TORSDOF 8
ENDMDL
MODEL 4
REMARK VINA RESULT:      -7.3      2.088      4.905
REMARK  8 active torsions:
REMARK  status: ('A' for Active; 'I' for Inactive)
REMARK    1  A    between atoms: C_6  and  C_7 
REMARK    2  A    between atoms: C_12  and  C_13 
REMARK    3  A    between atoms: C_13  and  N_14 
REMARK    4  A    between atoms: N_14  and  C_16 
REMARK    5  A    between atoms: N_14  and  C_23 
REMARK    6  A    between atoms: C_16  and  C_17 
REMARK    7  A    between atoms: C_23  and  C_24 
REMARK    8  A    between atoms: C_24  and  O_25 
ROOT
HETATM    1  C   UNL     1     -41.256  54.803 -51.717  1.00  0.00     0.069 A 
HETATM    2  N   UNL     1     -40.758  55.240 -50.513  1.00  0.00    -0.277 N 
HETATM    3  H   UNL     1     -40.048  54.802 -49.933  1.00  0.00     0.189 HD
HETATM    4  N   UNL     1     -41.291  56.401 -50.104  1.00  0.00    -0.186 NA
HETATM    5  C   UNL     1     -42.113  56.745 -51.091  1.00  0.00     0.149 A 
HETATM    6  C   UNL     1     -42.171  55.771 -52.114  1.00  0.00     0.016 A 
ENDROOT
BRANCH   6   7
HETATM    7  C   UNL     1     -43.016  55.819 -53.331  1.00  0.00     0.277 C 
BRANCH   7   8
HETATM    8  N   UNL     1     -42.357  56.478 -54.513  1.00  0.00    -0.061 N 
HETATM    9  H   UNL     1     -41.953  55.705 -55.077  1.00  0.00     0.280 HD
BRANCH   8  10
HETATM   10  C   UNL     1     -43.293  57.181 -55.464  1.00  0.00     0.273 C 
BRANCH  10  11
HETATM   11  C   UNL     1     -42.948  57.073 -56.927  1.00  0.00    -0.033 A 
HETATM   12  C   UNL     1     -42.353  58.135 -57.623  1.00  0.00     0.009 A 
HETATM   13  C   UNL     1     -42.062  58.020 -58.984  1.00  0.00     0.001 A 
HETATM   14  C   UNL     1     -42.352  56.840 -59.664  1.00  0.00     0.000 A 
HETATM   15  C   UNL     1     -42.923  55.769 -58.982  1.00  0.00     0.001 A 
HETATM   16  C   UNL     1     -43.215  55.882 -57.622  1.00  0.00     0.009 A 
ENDBRANCH  10  11
ENDBRANCH   8  10
BRANCH   8  17
HETATM   17  C   UNL     1     -41.120  57.276 -54.140  1.00  0.00     0.261 C 
BRANCH  17  18
HETATM   18  C   UNL     1     -41.525  58.751 -54.029  1.00  0.00     0.192 C 
BRANCH  18  19
HETATM   19  O   UNL     1     -40.421  59.433 -53.427  1.00  0.00    -0.399 OA
HETATM   20  H   UNL     1     -40.489  60.380 -53.667  1.00  0.00     0.209 HD
ENDBRANCH  18  19
ENDBRANCH  17  18
ENDBRANCH   8  17
ENDBRANCH   7   8
ENDBRANCH   6   7
BRANCH   1  21
HETATM   21  C   UNL     1     -40.789  53.579 -52.350  1.00  0.00    -0.007 A 
HETATM   22  C   UNL     1     -40.357  52.498 -51.572  1.00  0.00     0.021 A 
HETATM   23  C   UNL     1     -39.895  51.313 -52.169  1.00  0.00    -0.055 A 
HETATM   24  C   UNL     1     -39.851  51.219 -53.574  1.00  0.00    -0.056 A 
HETATM   25  C   UNL     1     -39.411  50.189 -51.291  1.00  0.00     0.049 C 
HETATM   26  C   UNL     1     -39.366  49.973 -54.268  1.00  0.00     0.049 C 
HETATM   27  C   UNL     1     -40.290  52.303 -54.348  1.00  0.00     0.008 A 
HETATM   28  C   UNL     1     -40.749  53.474 -53.742  1.00  0.00     0.014 A 
ENDBRANCH   1  21
TORSDOF 8
ENDMDL
MODEL 5
REMARK VINA RESULT:      -7.3      2.770      4.399
REMARK  8 active torsions:
REMARK  status: ('A' for Active; 'I' for Inactive)
REMARK    1  A    between atoms: C_6  and  C_7 
REMARK    2  A    between atoms: C_12  and  C_13 
REMARK    3  A    between atoms: C_13  and  N_14 
REMARK    4  A    between atoms: N_14  and  C_16 
REMARK    5  A    between atoms: N_14  and  C_23 
REMARK    6  A    between atoms: C_16  and  C_17 
REMARK    7  A    between atoms: C_23  and  C_24 
REMARK    8  A    between atoms: C_24  and  O_25 
ROOT
HETATM    1  C   UNL     1     -40.964  54.574 -51.359  1.00  0.00     0.069 A 
HETATM    2  N   UNL     1     -40.935  54.650 -49.987  1.00  0.00    -0.277 N 
HETATM    3  H   UNL     1     -40.660  53.929 -49.325  1.00  0.00     0.189 HD
HETATM    4  N   UNL     1     -41.306  55.847 -49.510  1.00  0.00    -0.186 NA
HETATM    5  C   UNL     1     -41.530  56.575 -50.600  1.00  0.00     0.149 A 
HETATM    6  C   UNL     1     -41.374  55.830 -51.791  1.00  0.00     0.016 A 
ENDROOT
BRANCH   6   7
HETATM    7  C   UNL     1     -41.589  56.322 -53.173  1.00  0.00     0.277 C 
BRANCH   7   8
HETATM    8  N   UNL     1     -43.038  56.466 -53.557  1.00  0.00    -0.061 N 
HETATM    9  H   UNL     1     -43.578  56.297 -52.685  1.00  0.00     0.280 HD
BRANCH   8  10
HETATM   10  C   UNL     1     -43.454  57.850 -53.990  1.00  0.00     0.273 C 
BRANCH  10  11
HETATM   11  C   UNL     1     -44.421  58.561 -53.078  1.00  0.00    -0.033 A 
HETATM   12  C   UNL     1     -45.122  59.703 -53.496  1.00  0.00     0.009 A 
HETATM   13  C   UNL     1     -45.996  60.358 -52.627  1.00  0.00     0.001 A 
HETATM   14  C   UNL     1     -46.190  59.877 -51.335  1.00  0.00     0.000 A 
HETATM   15  C   UNL     1     -45.519  58.733 -50.913  1.00  0.00     0.001 A 
HETATM   16  C   UNL     1     -44.644  58.075 -51.779  1.00  0.00     0.009 A 
ENDBRANCH  10  11
ENDBRANCH   8  10
BRANCH   8  17
HETATM   17  C   UNL     1     -43.533  55.348 -54.456  1.00  0.00     0.261 C 
BRANCH  17  18
HETATM   18  C   UNL     1     -42.678  55.351 -55.729  1.00  0.00     0.192 C 
BRANCH  18  19
HETATM   19  O   UNL     1     -43.588  55.362 -56.833  1.00  0.00    -0.399 OA
HETATM   20  H   UNL     1     -44.026  56.238 -56.849  1.00  0.00     0.209 HD
ENDBRANCH  18  19
ENDBRANCH  17  18
ENDBRANCH   8  17
ENDBRANCH   7   8
ENDBRANCH   6   7
BRANCH   1  21
HETATM   21  C   UNL     1     -40.571  53.372 -52.076  1.00  0.00    -0.007 A 
HETATM   22  C   UNL     1     -40.154  52.233 -51.377  1.00  0.00     0.021 A 
HETATM   23  C   UNL     1     -39.762  51.067 -52.056  1.00  0.00    -0.055 A 
HETATM   24  C   UNL     1     -39.777  51.050 -53.465  1.00  0.00    -0.056 A 
HETATM   25  C   UNL     1     -39.290  49.877 -51.262  1.00  0.00     0.049 C 
HETATM   26  C   UNL     1     -39.369  49.827 -54.245  1.00  0.00     0.049 C 
HETATM   27  C   UNL     1     -40.202  52.192 -54.160  1.00  0.00     0.008 A 
HETATM   28  C   UNL     1     -40.590  53.344 -53.472  1.00  0.00     0.014 A 
ENDBRANCH   1  21
TORSDOF 8
ENDMDL
MODEL 6
REMARK VINA RESULT:      -7.3      2.226      3.319
REMARK  8 active torsions:
REMARK  status: ('A' for Active; 'I' for Inactive)
REMARK    1  A    between atoms: C_6  and  C_7 
REMARK    2  A    between atoms: C_12  and  C_13 
REMARK    3  A    between atoms: C_13  and  N_14 
REMARK    4  A    between atoms: N_14  and  C_16 
REMARK    5  A    between atoms: N_14  and  C_23 
REMARK    6  A    between atoms: C_16  and  C_17 
REMARK    7  A    between atoms: C_23  and  C_24 
REMARK    8  A    between atoms: C_24  and  O_25 
ROOT
HETATM    1  C   UNL     1     -41.368  54.574 -54.109  1.00  0.00     0.069 A 
HETATM    2  N   UNL     1     -40.917  55.040 -55.321  1.00  0.00    -0.277 N 
HETATM    3  H   UNL     1     -40.166  54.666 -55.895  1.00  0.00     0.189 HD
HETATM    4  N   UNL     1     -41.592  56.109 -55.767  1.00  0.00    -0.186 NA
HETATM    5  C   UNL     1     -42.532  56.305 -54.847  1.00  0.00     0.149 A 
HETATM    6  C   UNL     1     -42.425  55.405 -53.761  1.00  0.00     0.016 A 
ENDROOT
BRANCH   6   7
HETATM    7  C   UNL     1     -43.283  55.376 -52.552  1.00  0.00     0.277 C 
BRANCH   7   8
HETATM    8  N   UNL     1     -43.196  56.618 -51.706  1.00  0.00    -0.061 N 
HETATM    9  H   UNL     1     -42.956  57.388 -52.361  1.00  0.00     0.280 HD
BRANCH   8  10
HETATM   10  C   UNL     1     -44.493  57.058 -51.074  1.00  0.00     0.273 C 
BRANCH  10  11
HETATM   11  C   UNL     1     -45.029  58.390 -51.533  1.00  0.00    -0.033 A 
HETATM   12  C   UNL     1     -45.661  59.274 -50.645  1.00  0.00     0.009 A 
HETATM   13  C   UNL     1     -46.170  60.493 -51.097  1.00  0.00     0.001 A 
HETATM   14  C   UNL     1     -46.044  60.850 -52.437  1.00  0.00     0.000 A 
HETATM   15  C   UNL     1     -45.401  59.994 -53.325  1.00  0.00     0.001 A 
HETATM   16  C   UNL     1     -44.891  58.775 -52.876  1.00  0.00     0.009 A 
ENDBRANCH  10  11
ENDBRANCH   8  10
BRANCH   8  17
HETATM   17  C   UNL     1     -42.004  56.620 -50.766  1.00  0.00     0.261 C 
BRANCH  17  18
HETATM   18  C   UNL     1     -41.178  57.879 -51.053  1.00  0.00     0.192 C 
BRANCH  18  19
HETATM   19  O   UNL     1     -41.419  58.782 -49.969  1.00  0.00    -0.399 OA
HETATM   20  H   UNL     1     -41.005  59.639 -50.197  1.00  0.00     0.209 HD
ENDBRANCH  18  19
ENDBRANCH  17  18
ENDBRANCH   8  17
ENDBRANCH   7   8
ENDBRANCH   6   7
BRANCH   1  21
HETATM   21  C   UNL     1     -40.788  53.405 -53.465  1.00  0.00    -0.007 A 
HETATM   22  C   UNL     1     -40.495  52.256 -54.209  1.00  0.00     0.021 A 
HETATM   23  C   UNL     1     -39.944  51.116 -53.600  1.00  0.00    -0.055 A 
HETATM   24  C   UNL     1     -39.695  51.127 -52.213  1.00  0.00    -0.056 A 
HETATM   25  C   UNL     1     -39.676  49.893 -54.436  1.00  0.00     0.049 C 
HETATM   26  C   UNL     1     -39.103  49.935 -51.507  1.00  0.00     0.049 C 
HETATM   27  C   UNL     1     -39.984  52.284 -51.473  1.00  0.00     0.008 A 
HETATM   28  C   UNL     1     -40.531  53.410 -52.093  1.00  0.00     0.014 A 
ENDBRANCH   1  21
TORSDOF 8
ENDMDL
MODEL 7
REMARK VINA RESULT:      -7.2      2.644      3.880
REMARK  8 active torsions:
REMARK  status: ('A' for Active; 'I' for Inactive)
REMARK    1  A    between atoms: C_6  and  C_7 
REMARK    2  A    between atoms: C_12  and  C_13 
REMARK    3  A    between atoms: C_13  and  N_14 
REMARK    4  A    between atoms: N_14  and  C_16 
REMARK    5  A    between atoms: N_14  and  C_23 
REMARK    6  A    between atoms: C_16  and  C_17 
REMARK    7  A    between atoms: C_23  and  C_24 
REMARK    8  A    between atoms: C_24  and  O_25 
ROOT
HETATM    1  C   UNL     1     -42.876  55.527 -56.762  1.00  0.00     0.069 A 
HETATM    2  N   UNL     1     -43.611  54.694 -57.572  1.00  0.00    -0.277 N 
HETATM    3  H   UNL     1     -43.845  53.717 -57.416  1.00  0.00     0.189 HD
HETATM    4  N   UNL     1     -44.068  55.292 -58.681  1.00  0.00    -0.186 NA
HETATM    5  C   UNL     1     -43.662  56.553 -58.559  1.00  0.00     0.149 A 
HETATM    6  C   UNL     1     -42.877  56.761 -57.402  1.00  0.00     0.016 A 
ENDROOT
BRANCH   6   7
HETATM    7  C   UNL     1     -42.234  58.032 -56.989  1.00  0.00     0.277 C 
BRANCH   7   8
HETATM    8  N   UNL     1     -42.937  58.740 -55.863  1.00  0.00    -0.061 N 
HETATM    9  H   UNL     1     -43.473  58.006 -55.360  1.00  0.00     0.280 HD
BRANCH   8  10
HETATM   10  C   UNL     1     -42.033  59.328 -54.809  1.00  0.00     0.273 C 
BRANCH  10  11
HETATM   11  C   UNL     1     -42.028  58.622 -53.478  1.00  0.00    -0.033 A 
HETATM   12  C   UNL     1     -40.832  58.253 -52.844  1.00  0.00     0.009 A 
HETATM   13  C   UNL     1     -40.852  57.579 -51.621  1.00  0.00     0.001 A 
HETATM   14  C   UNL     1     -42.066  57.275 -51.010  1.00  0.00     0.000 A 
HETATM   15  C   UNL     1     -43.261  57.654 -51.615  1.00  0.00     0.001 A 
HETATM   16  C   UNL     1     -43.244  58.328 -52.837  1.00  0.00     0.009 A 
ENDBRANCH  10  11
ENDBRANCH   8  10
BRANCH   8  17
HETATM   17  C   UNL     1     -44.041  59.668 -56.336  1.00  0.00     0.261 C 
BRANCH  17  18
HETATM   18  C   UNL     1     -45.380  59.092 -55.860  1.00  0.00     0.192 C 
BRANCH  18  19
HETATM   19  O   UNL     1     -45.796  59.890 -54.748  1.00  0.00    -0.399 OA
HETATM   20  H   UNL     1     -46.763  59.777 -54.645  1.00  0.00     0.209 HD
ENDBRANCH  18  19
ENDBRANCH  17  18
ENDBRANCH   8  17
ENDBRANCH   7   8
ENDBRANCH   6   7
BRANCH   1  21
HETATM   21  C   UNL     1     -42.315  55.080 -55.497  1.00  0.00    -0.007 A 
HETATM   22  C   UNL     1     -43.152  54.776 -54.417  1.00  0.00     0.021 A 
HETATM   23  C   UNL     1     -42.623  54.353 -53.186  1.00  0.00    -0.055 A 
HETATM   24  C   UNL     1     -41.227  54.245 -53.033  1.00  0.00    -0.056 A 
HETATM   25  C   UNL     1     -43.562  54.068 -52.043  1.00  0.00     0.049 C 
HETATM   26  C   UNL     1     -40.605  53.794 -51.737  1.00  0.00     0.049 C 
HETATM   27  C   UNL     1     -40.394  54.546 -54.121  1.00  0.00     0.008 A 
HETATM   28  C   UNL     1     -40.932  54.964 -55.340  1.00  0.00     0.014 A 
ENDBRANCH   1  21
TORSDOF 8
ENDMDL
MODEL 8
REMARK VINA RESULT:      -7.2      2.583      5.822
REMARK  8 active torsions:
REMARK  status: ('A' for Active; 'I' for Inactive)
REMARK    1  A    between atoms: C_6  and  C_7 
REMARK    2  A    between atoms: C_12  and  C_13 
REMARK    3  A    between atoms: C_13  and  N_14 
REMARK    4  A    between atoms: N_14  and  C_16 
REMARK    5  A    between atoms: N_14  and  C_23 
REMARK    6  A    between atoms: C_16  and  C_17 
REMARK    7  A    between atoms: C_23  and  C_24 
REMARK    8  A    between atoms: C_24  and  O_25 
ROOT
HETATM    1  C   UNL     1     -41.880  58.025 -55.166  1.00  0.00     0.069 A 
HETATM    2  N   UNL     1     -41.812  59.398 -55.163  1.00  0.00    -0.277 N 
HETATM    3  H   UNL     1     -42.072  60.039 -55.908  1.00  0.00     0.189 HD
HETATM    4  N   UNL     1     -41.359  59.908 -54.009  1.00  0.00    -0.186 NA
HETATM    5  C   UNL     1     -41.179  58.843 -53.233  1.00  0.00     0.149 A 
HETATM    6  C   UNL     1     -41.448  57.629 -53.907  1.00  0.00     0.016 A 
ENDROOT
BRANCH   6   7
HETATM    7  C   UNL     1     -41.306  56.262 -53.350  1.00  0.00     0.277 C 
BRANCH   7   8
HETATM    8  N   UNL     1     -42.545  55.742 -52.672  1.00  0.00    -0.061 N 
HETATM    9  H   UNL     1     -43.338  56.262 -53.098  1.00  0.00     0.280 HD
BRANCH   8  10
HETATM   10  C   UNL     1     -42.865  54.293 -52.940  1.00  0.00     0.273 C 
BRANCH  10  11
HETATM   11  C   UNL     1     -41.681  53.367 -53.046  1.00  0.00    -0.033 A 
HETATM   12  C   UNL     1     -41.310  52.783 -54.267  1.00  0.00     0.009 A 
HETATM   13  C   UNL     1     -40.222  51.911 -54.338  1.00  0.00     0.001 A 
HETATM   14  C   UNL     1     -39.485  51.618 -53.193  1.00  0.00     0.000 A 
HETATM   15  C   UNL     1     -39.827  52.205 -51.979  1.00  0.00     0.001 A 
HETATM   16  C   UNL     1     -40.914  53.078 -51.906  1.00  0.00     0.009 A 
ENDBRANCH  10  11
ENDBRANCH   8  10
BRANCH   8  17
HETATM   17  C   UNL     1     -42.646  56.151 -51.214  1.00  0.00     0.261 C 
BRANCH  17  18
HETATM   18  C   UNL     1     -43.788  55.350 -50.576  1.00  0.00     0.192 C 
BRANCH  18  19
HETATM   19  O   UNL     1     -44.939  56.199 -50.587  1.00  0.00    -0.399 OA
HETATM   20  H   UNL     1     -44.711  57.003 -51.097  1.00  0.00     0.209 HD
ENDBRANCH  18  19
ENDBRANCH  17  18
ENDBRANCH   8  17
ENDBRANCH   7   8
ENDBRANCH   6   7
BRANCH   1  21
HETATM   21  C   UNL     1     -42.372  57.277 -56.313  1.00  0.00    -0.007 A 
HETATM   22  C   UNL     1     -42.486  57.891 -57.566  1.00  0.00     0.021 A 
HETATM   23  C   UNL     1     -42.968  57.183 -58.680  1.00  0.00    -0.055 A 
HETATM   24  C   UNL     1     -43.356  55.837 -58.529  1.00  0.00    -0.056 A 
HETATM   25  C   UNL     1     -43.102  57.896 -60.000  1.00  0.00     0.049 C 
HETATM   26  C   UNL     1     -43.878  55.031 -59.689  1.00  0.00     0.049 C 
HETATM   27  C   UNL     1     -43.234  55.226 -57.272  1.00  0.00     0.008 A 
HETATM   28  C   UNL     1     -42.752  55.940 -56.174  1.00  0.00     0.014 A 
ENDBRANCH   1  21
TORSDOF 8
ENDMDL
MODEL 9
REMARK VINA RESULT:      -7.1      2.874      5.357
REMARK  8 active torsions:
REMARK  status: ('A' for Active; 'I' for Inactive)
REMARK    1  A    between atoms: C_6  and  C_7 
REMARK    2  A    between atoms: C_12  and  C_13 
REMARK    3  A    between atoms: C_13  and  N_14 
REMARK    4  A    between atoms: N_14  and  C_16 
REMARK    5  A    between atoms: N_14  and  C_23 
REMARK    6  A    between atoms: C_16  and  C_17 
REMARK    7  A    between atoms: C_23  and  C_24 
REMARK    8  A    between atoms: C_24  and  O_25 
ROOT
HETATM    1  C   UNL     1     -43.728  58.150 -54.290  1.00  0.00     0.069 A 
HETATM    2  N   UNL     1     -44.980  58.675 -54.077  1.00  0.00    -0.277 N 
HETATM    3  H   UNL     1     -45.540  58.635 -53.229  1.00  0.00     0.189 HD
HETATM    4  N   UNL     1     -45.476  59.324 -55.140  1.00  0.00    -0.186 NA
HETATM    5  C   UNL     1     -44.500  59.261 -56.041  1.00  0.00     0.149 A 
HETATM    6  C   UNL     1     -43.393  58.506 -55.591  1.00  0.00     0.016 A 
ENDROOT
BRANCH   6   7
HETATM    7  C   UNL     1     -42.161  58.204 -56.358  1.00  0.00     0.277 C 
BRANCH   7   8
HETATM    8  N   UNL     1     -42.260  56.976 -57.223  1.00  0.00    -0.061 N 
HETATM    9  H   UNL     1     -41.286  56.640 -57.347  1.00  0.00     0.280 HD
BRANCH   8  10
HETATM   10  C   UNL     1     -42.981  55.807 -56.601  1.00  0.00     0.273 C 
BRANCH  10  11
HETATM   11  C   UNL     1     -42.168  54.960 -55.656  1.00  0.00    -0.033 A 
HETATM   12  C   UNL     1     -40.852  55.303 -55.308  1.00  0.00     0.009 A 
HETATM   13  C   UNL     1     -40.109  54.492 -54.448  1.00  0.00     0.001 A 
HETATM   14  C   UNL     1     -40.674  53.335 -53.916  1.00  0.00     0.000 A 
HETATM   15  C   UNL     1     -41.984  52.993 -54.235  1.00  0.00     0.001 A 
HETATM   16  C   UNL     1     -42.729  53.802 -55.094  1.00  0.00     0.009 A 
ENDBRANCH  10  11
ENDBRANCH   8  10
BRANCH   8  17
HETATM   17  C   UNL     1     -42.672  57.283 -58.652  1.00  0.00     0.261 C 
BRANCH  17  18
HETATM   18  C   UNL     1     -42.967  55.953 -59.355  1.00  0.00     0.192 C 
BRANCH  18  19
HETATM   19  O   UNL     1     -43.252  56.267 -60.722  1.00  0.00    -0.399 OA
HETATM   20  H   UNL     1     -43.392  57.234 -60.782  1.00  0.00     0.209 HD
ENDBRANCH  18  19
ENDBRANCH  17  18
ENDBRANCH   8  17
ENDBRANCH   7   8
ENDBRANCH   6   7
BRANCH   1  21
HETATM   21  C   UNL     1     -43.002  57.433 -53.253  1.00  0.00    -0.007 A 
HETATM   22  C   UNL     1     -43.546  56.281 -52.673  1.00  0.00     0.021 A 
HETATM   23  C   UNL     1     -42.861  55.583 -51.664  1.00  0.00    -0.055 A 
HETATM   24  C   UNL     1     -41.612  56.061 -51.220  1.00  0.00    -0.056 A 
HETATM   25  C   UNL     1     -43.501  54.367 -51.048  1.00  0.00     0.049 C 
HETATM   26  C   UNL     1     -40.833  55.352 -50.143  1.00  0.00     0.049 C 
HETATM   27  C   UNL     1     -41.069  57.212 -51.809  1.00  0.00     0.008 A 
HETATM   28  C   UNL     1     -41.760  57.895 -52.812  1.00  0.00     0.014 A 
ENDBRANCH   1  21
TORSDOF 8
ENDMDL
MODEL 10
REMARK VINA RESULT:      -7.1     14.868     17.179
REMARK  8 active torsions:
REMARK  status: ('A' for Active; 'I' for Inactive)
REMARK    1  A    between atoms: C_6  and  C_7 
REMARK    2  A    between atoms: C_12  and  C_13 
REMARK    3  A    between atoms: C_13  and  N_14 
REMARK    4  A    between atoms: N_14  and  C_16 
REMARK    5  A    between atoms: N_14  and  C_23 
REMARK    6  A    between atoms: C_16  and  C_17 
REMARK    7  A    between atoms: C_23  and  C_24 
REMARK    8  A    between atoms: C_24  and  O_25 
ROOT
HETATM    1  C   UNL     1     -32.361  39.683 -56.100  1.00  0.00     0.069 A 
HETATM    2  N   UNL     1     -31.309  40.064 -56.900  1.00  0.00    -0.277 N 
HETATM    3  H   UNL     1     -31.308  40.756 -57.644  1.00  0.00     0.189 HD
HETATM    4  N   UNL     1     -30.163  39.430 -56.613  1.00  0.00    -0.186 NA
HETATM    5  C   UNL     1     -30.470  38.662 -55.572  1.00  0.00     0.149 A 
HETATM    6  C   UNL     1     -31.838  38.740 -55.224  1.00  0.00     0.016 A 
ENDROOT
BRANCH   6   7
HETATM    7  C   UNL     1     -32.519  37.984 -54.145  1.00  0.00     0.277 C 
BRANCH   7   8
HETATM    8  N   UNL     1     -32.942  38.830 -52.973  1.00  0.00    -0.061 N 
HETATM    9  H   UNL     1     -32.960  39.807 -53.324  1.00  0.00     0.280 HD
BRANCH   8  10
HETATM   10  C   UNL     1     -34.345  38.586 -52.478  1.00  0.00     0.273 C 
BRANCH  10  11
HETATM   11  C   UNL     1     -35.319  39.720 -52.676  1.00  0.00    -0.033 A 
HETATM   12  C   UNL     1     -34.908  41.060 -52.623  1.00  0.00     0.009 A 
HETATM   13  C   UNL     1     -35.831  42.095 -52.787  1.00  0.00     0.001 A 
HETATM   14  C   UNL     1     -37.173  41.804 -53.017  1.00  0.00     0.000 A 
HETATM   15  C   UNL     1     -37.593  40.480 -53.094  1.00  0.00     0.001 A 
HETATM   16  C   UNL     1     -36.672  39.444 -52.930  1.00  0.00     0.009 A 
ENDBRANCH  10  11
ENDBRANCH   8  10
BRANCH   8  17
HETATM   17  C   UNL     1     -31.892  38.906 -51.880  1.00  0.00     0.261 C 
BRANCH  17  18
HETATM   18  C   UNL     1     -31.780  40.369 -51.434  1.00  0.00     0.192 C 
BRANCH  18  19
HETATM   19  O   UNL     1     -31.647  41.151 -52.625  1.00  0.00    -0.399 OA
HETATM   20  H   UNL     1     -30.750  41.543 -52.626  1.00  0.00     0.209 HD
ENDBRANCH  18  19
ENDBRANCH  17  18
ENDBRANCH   8  17
ENDBRANCH   7   8
ENDBRANCH   6   7
BRANCH   1  21
HETATM   21  C   UNL     1     -33.685  40.272 -56.230  1.00  0.00    -0.007 A 
HETATM   22  C   UNL     1     -34.807  39.459 -56.427  1.00  0.00     0.021 A 
HETATM   23  C   UNL     1     -36.091  40.014 -56.563  1.00  0.00    -0.055 A 
HETATM   24  C   UNL     1     -36.247  41.414 -56.515  1.00  0.00    -0.056 A 
HETATM   25  C   UNL     1     -37.264  39.101 -56.805  1.00  0.00     0.049 C 
HETATM   26  C   UNL     1     -37.600  42.063 -56.654  1.00  0.00     0.049 C 
HETATM   27  C   UNL     1     -35.120  42.223 -56.312  1.00  0.00     0.008 A 
HETATM   28  C   UNL     1     -33.850  41.658 -56.177  1.00  0.00     0.014 A 
ENDBRANCH   1  21
TORSDOF 8
ENDMDL
