MODEL 1
REMARK VINA RESULT:      -7.6      0.000      0.000
REMARK  7 active torsions:
REMARK  status: ('A' for Active; 'I' for Inactive)
REMARK    1  A    between atoms: C_2  and  C_3 
REMARK       I    between atoms: C_3  and  N_4 
REMARK    2  A    between atoms: N_4  and  C_5 
REMARK    3  A    between atoms: C_7  and  C_8 
REMARK       I    between atoms: C_8  and  N_9 
REMARK    4  A    between atoms: N_9  and  C_10 
REMARK    5  A    between atoms: C_10  and  C_11 
REMARK    6  A    between atoms: C_13  and  O_14 
REMARK    7  A    between atoms: O_14  and  C_15 
ROOT
HETATM    1  C   UNL     1     -41.550  54.732 -54.959  1.00  0.00     0.252 C 
HETATM    2  N   UNL     1     -40.366  54.089 -54.673  1.00  0.00    -0.353 N 
HETATM    3  O   UNL     1     -42.483  54.184 -55.538  1.00  0.00    -0.268 OA
HETATM    4  H   UNL     1     -39.597  54.580 -54.240  1.00  0.00     0.163 HD
ENDROOT
BRANCH   1   5
HETATM    5  C   UNL     1     -41.674  56.164 -54.555  1.00  0.00     0.034 A 
HETATM    6  C   UNL     1     -41.159  56.661 -53.347  1.00  0.00     0.046 A 
HETATM    7  C   UNL     1     -41.307  58.012 -53.016  1.00  0.00     0.035 A 
HETATM    8  C   UNL     1     -42.000  58.858 -53.891  1.00  0.00     0.029 A 
HETATM    9  C   UNL     1     -42.531  58.368 -55.084  1.00  0.00     0.003 A 
HETATM   10  C   UNL     1     -42.367  57.026 -55.414  1.00  0.00     0.017 A 
BRANCH   7  11
HETATM   11  N   UNL     1     -40.806  58.592 -51.831  1.00  0.00    -0.327 N 
HETATM   12  C   UNL     1     -39.558  59.165 -51.634  1.00  0.00     0.221 C 
HETATM   13  O   UNL     1     -38.679  59.298 -52.476  1.00  0.00    -0.273 OA
HETATM   14  H   UNL     1     -41.446  58.625 -51.048  1.00  0.00     0.169 HD
BRANCH  12  15
HETATM   15  C   UNL     1     -39.398  59.655 -50.202  1.00  0.00     0.098 C 
HETATM   16  C   UNL     1     -37.958  59.990 -49.855  1.00  0.00     0.014 C 
ENDBRANCH  12  15
ENDBRANCH   7  11
ENDBRANCH   1   5
BRANCH   2  17
HETATM   17  C   UNL     1     -40.162  52.691 -54.986  1.00  0.00     0.161 C 
BRANCH  17  18
HETATM   18  C   UNL     1     -39.984  51.863 -53.740  1.00  0.00    -0.035 A 
HETATM   19  C   UNL     1     -40.194  52.415 -52.472  1.00  0.00     0.066 A 
HETATM   20  C   UNL     1     -40.027  51.608 -51.359  1.00  0.00     0.164 A 
HETATM   21  N   UNL     1     -39.698  50.302 -51.414  1.00  0.00    -0.237 NA
HETATM   22  C   UNL     1     -39.527  49.780 -52.647  1.00  0.00     0.120 A 
HETATM   23  C   UNL     1     -39.655  50.507 -53.821  1.00  0.00     0.028 A 
BRANCH  20  24
HETATM   24  O   UNL     1     -40.209  52.210 -50.127  1.00  0.00    -0.329 OA
BRANCH  24  25
HETATM   25  C   UNL     1     -40.297  53.650 -50.131  1.00  0.00     0.130 C 
HETATM   26  C   UNL     1     -41.720  54.268 -50.179  1.00  0.00     0.032 C 
HETATM   27  C   UNL     1     -41.230  55.323 -49.172  1.00  0.00     0.005 C 
HETATM   28  C   UNL     1     -40.160  54.309 -48.733  1.00  0.00     0.032 C 
ENDBRANCH  24  25
ENDBRANCH  20  24
ENDBRANCH  17  18
ENDBRANCH   2  17
TORSDOF 7
ENDMDL
MODEL 2
REMARK VINA RESULT:      -7.4      3.081      5.629
REMARK  7 active torsions:
REMARK  status: ('A' for Active; 'I' for Inactive)
REMARK    1  A    between atoms: C_2  and  C_3 
REMARK       I    between atoms: C_3  and  N_4 
REMARK    2  A    between atoms: N_4  and  C_5 
REMARK    3  A    between atoms: C_7  and  C_8 
REMARK       I    between atoms: C_8  and  N_9 
REMARK    4  A    between atoms: N_9  and  C_10 
REMARK    5  A    between atoms: C_10  and  C_11 
REMARK    6  A    between atoms: C_13  and  O_14 
REMARK    7  A    between atoms: O_14  and  C_15 
ROOT
HETATM    1  C   UNL     1     -43.770  56.614 -52.115  1.00  0.00     0.252 C 
HETATM    2  N   UNL     1     -43.917  55.258 -51.925  1.00  0.00    -0.353 N 
HETATM    3  O   UNL     1     -43.436  57.380 -51.216  1.00  0.00    -0.268 OA
HETATM    4  H   UNL     1     -44.242  54.659 -52.671  1.00  0.00     0.163 HD
ENDROOT
BRANCH   1   5
HETATM    5  C   UNL     1     -44.052  57.156 -53.477  1.00  0.00     0.034 A 
HETATM    6  C   UNL     1     -43.699  56.478 -54.654  1.00  0.00     0.046 A 
HETATM    7  C   UNL     1     -43.985  57.034 -55.906  1.00  0.00     0.035 A 
HETATM    8  C   UNL     1     -44.601  58.290 -55.971  1.00  0.00     0.029 A 
HETATM    9  C   UNL     1     -44.939  58.979 -54.806  1.00  0.00     0.003 A 
HETATM   10  C   UNL     1     -44.666  58.413 -53.564  1.00  0.00     0.017 A 
BRANCH   7  11
HETATM   11  N   UNL     1     -43.677  56.410 -57.133  1.00  0.00    -0.327 N 
HETATM   12  C   UNL     1     -42.821  56.870 -58.123  1.00  0.00     0.221 C 
HETATM   13  O   UNL     1     -42.151  57.895 -58.084  1.00  0.00    -0.273 OA
HETATM   14  H   UNL     1     -44.102  55.505 -57.290  1.00  0.00     0.169 HD
BRANCH  12  15
HETATM   15  C   UNL     1     -42.781  55.913 -59.305  1.00  0.00     0.098 C 
HETATM   16  C   UNL     1     -44.111  55.220 -59.544  1.00  0.00     0.014 C 
ENDBRANCH  12  15
ENDBRANCH   7  11
ENDBRANCH   1   5
BRANCH   2  17
HETATM   17  C   UNL     1     -43.628  54.629 -50.654  1.00  0.00     0.161 C 
BRANCH  17  18
HETATM   18  C   UNL     1     -42.158  54.339 -50.500  1.00  0.00    -0.035 A 
HETATM   19  C   UNL     1     -41.463  53.604 -51.466  1.00  0.00     0.066 A 
HETATM   20  C   UNL     1     -40.111  53.373 -51.282  1.00  0.00     0.164 A 
HETATM   21  N   UNL     1     -39.399  53.838 -50.235  1.00  0.00    -0.237 NA
HETATM   22  C   UNL     1     -40.080  54.569 -49.328  1.00  0.00     0.120 A 
HETATM   23  C   UNL     1     -41.437  54.842 -49.413  1.00  0.00     0.028 A 
BRANCH  20  24
HETATM   24  O   UNL     1     -39.477  52.609 -52.245  1.00  0.00    -0.329 OA
BRANCH  24  25
HETATM   25  C   UNL     1     -40.272  51.570 -52.855  1.00  0.00     0.130 C 
HETATM   26  C   UNL     1     -40.359  51.569 -54.405  1.00  0.00     0.032 C 
HETATM   27  C   UNL     1     -40.250  50.035 -54.349  1.00  0.00     0.005 C 
HETATM   28  C   UNL     1     -39.553  50.201 -52.988  1.00  0.00     0.032 C 
ENDBRANCH  24  25
ENDBRANCH  20  24
ENDBRANCH  17  18
ENDBRANCH   2  17
TORSDOF 7
ENDMDL
MODEL 3
REMARK VINA RESULT:      -7.2      2.991      8.131
REMARK  7 active torsions:
REMARK  status: ('A' for Active; 'I' for Inactive)
REMARK    1  A    between atoms: C_2  and  C_3 
REMARK       I    between atoms: C_3  and  N_4 
REMARK    2  A    between atoms: N_4  and  C_5 
REMARK    3  A    between atoms: C_7  and  C_8 
REMARK       I    between atoms: C_8  and  N_9 
REMARK    4  A    between atoms: N_9  and  C_10 
REMARK    5  A    between atoms: C_10  and  C_11 
REMARK    6  A    between atoms: C_13  and  O_14 
REMARK    7  A    between atoms: O_14  and  C_15 
ROOT
HETATM    1  C   UNL     1     -42.025  56.689 -52.184  1.00  0.00     0.252 C 
HETATM    2  N   UNL     1     -42.746  56.474 -53.338  1.00  0.00    -0.353 N 
HETATM    3  O   UNL     1     -41.964  57.783 -51.631  1.00  0.00    -0.268 OA
HETATM    4  H   UNL     1     -42.738  55.575 -53.798  1.00  0.00     0.163 HD
ENDROOT
BRANCH   1   5
HETATM    5  C   UNL     1     -41.278  55.531 -51.610  1.00  0.00     0.034 A 
HETATM    6  C   UNL     1     -41.088  54.327 -52.306  1.00  0.00     0.046 A 
HETATM    7  C   UNL     1     -40.383  53.272 -51.718  1.00  0.00     0.035 A 
HETATM    8  C   UNL     1     -39.892  53.420 -50.414  1.00  0.00     0.029 A 
HETATM    9  C   UNL     1     -40.092  54.606 -49.709  1.00  0.00     0.003 A 
HETATM   10  C   UNL     1     -40.783  55.658 -50.306  1.00  0.00     0.017 A 
BRANCH   7  11
HETATM   11  N   UNL     1     -40.136  52.037 -52.356  1.00  0.00    -0.327 N 
HETATM   12  C   UNL     1     -39.945  51.810 -53.710  1.00  0.00     0.221 C 
HETATM   13  O   UNL     1     -39.923  52.660 -54.592  1.00  0.00    -0.273 OA
HETATM   14  H   UNL     1     -40.053  51.232 -51.747  1.00  0.00     0.169 HD
BRANCH  12  15
HETATM   15  C   UNL     1     -39.731  50.331 -53.996  1.00  0.00     0.098 C 
HETATM   16  C   UNL     1     -39.604  49.502 -52.730  1.00  0.00     0.014 C 
ENDBRANCH  12  15
ENDBRANCH   7  11
ENDBRANCH   1   5
BRANCH   2  17
HETATM   17  C   UNL     1     -43.538  57.520 -53.950  1.00  0.00     0.161 C 
BRANCH  17  18
HETATM   18  C   UNL     1     -43.060  57.836 -55.342  1.00  0.00    -0.035 A 
HETATM   19  C   UNL     1     -43.149  56.888 -56.367  1.00  0.00     0.066 A 
HETATM   20  C   UNL     1     -42.704  57.231 -57.633  1.00  0.00     0.164 A 
HETATM   21  N   UNL     1     -42.209  58.443 -57.958  1.00  0.00    -0.237 NA
HETATM   22  C   UNL     1     -42.156  59.354 -56.962  1.00  0.00     0.120 A 
HETATM   23  C   UNL     1     -42.562  59.102 -55.660  1.00  0.00     0.028 A 
BRANCH  20  24
HETATM   24  O   UNL     1     -42.778  56.248 -58.602  1.00  0.00    -0.329 OA
BRANCH  24  25
HETATM   25  C   UNL     1     -44.094  55.976 -59.130  1.00  0.00     0.130 C 
HETATM   26  C   UNL     1     -44.361  56.388 -60.602  1.00  0.00     0.032 C 
HETATM   27  C   UNL     1     -45.142  55.073 -60.765  1.00  0.00     0.005 C 
HETATM   28  C   UNL     1     -44.310  54.513 -59.599  1.00  0.00     0.032 C 
ENDBRANCH  24  25
ENDBRANCH  20  24
ENDBRANCH  17  18
ENDBRANCH   2  17
TORSDOF 7
ENDMDL
MODEL 4
REMARK VINA RESULT:      -7.2      3.061      6.362
REMARK  7 active torsions:
REMARK  status: ('A' for Active; 'I' for Inactive)
REMARK    1  A    between atoms: C_2  and  C_3 
REMARK       I    between atoms: C_3  and  N_4 
REMARK    2  A    between atoms: N_4  and  C_5 
REMARK    3  A    between atoms: C_7  and  C_8 
REMARK       I    between atoms: C_8  and  N_9 
REMARK    4  A    between atoms: N_9  and  C_10 
REMARK    5  A    between atoms: C_10  and  C_11 
REMARK    6  A    between atoms: C_13  and  O_14 
REMARK    7  A    between atoms: O_14  and  C_15 
ROOT
HETATM    1  C   UNL     1     -41.879  58.784 -54.405  1.00  0.00     0.252 C 
HETATM    2  N   UNL     1     -42.557  57.986 -53.508  1.00  0.00    -0.353 N 
HETATM    3  O   UNL     1     -40.964  59.531 -54.073  1.00  0.00    -0.268 OA
HETATM    4  H   UNL     1     -43.338  57.419 -53.802  1.00  0.00     0.163 HD
ENDROOT
BRANCH   1   5
HETATM    5  C   UNL     1     -42.307  58.733 -55.834  1.00  0.00     0.034 A 
HETATM    6  C   UNL     1     -42.928  57.611 -56.404  1.00  0.00     0.046 A 
HETATM    7  C   UNL     1     -43.305  57.616 -57.752  1.00  0.00     0.035 A 
HETATM    8  C   UNL     1     -43.029  58.745 -58.534  1.00  0.00     0.029 A 
HETATM    9  C   UNL     1     -42.396  59.858 -57.980  1.00  0.00     0.003 A 
HETATM   10  C   UNL     1     -42.037  59.851 -56.634  1.00  0.00     0.017 A 
BRANCH   7  11
HETATM   11  N   UNL     1     -43.946  56.536 -58.394  1.00  0.00    -0.327 N 
HETATM   12  C   UNL     1     -43.463  55.774 -59.447  1.00  0.00     0.221 C 
HETATM   13  O   UNL     1     -42.368  55.888 -59.983  1.00  0.00    -0.273 OA
HETATM   14  H   UNL     1     -44.845  56.266 -58.017  1.00  0.00     0.169 HD
BRANCH  12  15
HETATM   15  C   UNL     1     -44.473  54.716 -59.869  1.00  0.00     0.098 C 
HETATM   16  C   UNL     1     -45.023  54.955 -61.264  1.00  0.00     0.014 C 
ENDBRANCH  12  15
ENDBRANCH   7  11
ENDBRANCH   1   5
BRANCH   2  17
HETATM   17  C   UNL     1     -42.192  57.932 -52.109  1.00  0.00     0.161 C 
BRANCH  17  18
HETATM   18  C   UNL     1     -42.065  56.512 -51.623  1.00  0.00    -0.035 A 
HETATM   19  C   UNL     1     -41.079  55.661 -52.132  1.00  0.00     0.066 A 
HETATM   20  C   UNL     1     -40.999  54.367 -51.645  1.00  0.00     0.164 A 
HETATM   21  N   UNL     1     -41.801  53.871 -50.680  1.00  0.00    -0.237 NA
HETATM   22  C   UNL     1     -42.728  54.715 -50.182  1.00  0.00     0.120 A 
HETATM   23  C   UNL     1     -42.899  56.022 -50.613  1.00  0.00     0.028 A 
BRANCH  20  24
HETATM   24  O   UNL     1     -40.033  53.553 -52.207  1.00  0.00    -0.329 OA
BRANCH  24  25
HETATM   25  C   UNL     1     -40.514  52.380 -52.896  1.00  0.00     0.130 C 
HETATM   26  C   UNL     1     -40.296  52.327 -54.432  1.00  0.00     0.032 C 
HETATM   27  C   UNL     1     -39.951  50.836 -54.271  1.00  0.00     0.005 C 
HETATM   28  C   UNL     1     -39.569  51.151 -52.815  1.00  0.00     0.032 C 
ENDBRANCH  24  25
ENDBRANCH  20  24
ENDBRANCH  17  18
ENDBRANCH   2  17
TORSDOF 7
ENDMDL
MODEL 5
REMARK VINA RESULT:      -7.2      2.162      6.579
REMARK  7 active torsions:
REMARK  status: ('A' for Active; 'I' for Inactive)
REMARK    1  A    between atoms: C_2  and  C_3 
REMARK       I    between atoms: C_3  and  N_4 
REMARK    2  A    between atoms: N_4  and  C_5 
REMARK    3  A    between atoms: C_7  and  C_8 
REMARK       I    between atoms: C_8  and  N_9 
REMARK    4  A    between atoms: N_9  and  C_10 
REMARK    5  A    between atoms: C_10  and  C_11 
REMARK    6  A    between atoms: C_13  and  O_14 
REMARK    7  A    between atoms: O_14  and  C_15 
ROOT
HETATM    1  C   UNL     1     -42.602  54.447 -55.146  1.00  0.00     0.252 C 
HETATM    2  N   UNL     1     -42.063  55.138 -56.209  1.00  0.00    -0.353 N 
HETATM    3  O   UNL     1     -43.793  54.495 -54.854  1.00  0.00    -0.268 OA
HETATM    4  H   UNL     1     -41.071  55.119 -56.395  1.00  0.00     0.163 HD
ENDROOT
BRANCH   1   5
HETATM    5  C   UNL     1     -41.673  53.625 -54.315  1.00  0.00     0.034 A 
HETATM    6  C   UNL     1     -41.241  54.020 -53.039  1.00  0.00     0.046 A 
HETATM    7  C   UNL     1     -40.366  53.212 -52.304  1.00  0.00     0.035 A 
HETATM    8  C   UNL     1     -39.903  52.017 -52.869  1.00  0.00     0.029 A 
HETATM    9  C   UNL     1     -40.313  51.626 -54.144  1.00  0.00     0.003 A 
HETATM   10  C   UNL     1     -41.195  52.428 -54.863  1.00  0.00     0.017 A 
BRANCH   7  11
HETATM   11  N   UNL     1     -39.898  53.530 -51.012  1.00  0.00    -0.327 N 
HETATM   12  C   UNL     1     -40.625  54.064 -49.959  1.00  0.00     0.221 C 
HETATM   13  O   UNL     1     -41.822  54.322 -49.961  1.00  0.00    -0.273 OA
HETATM   14  H   UNL     1     -38.929  53.307 -50.823  1.00  0.00     0.169 HD
BRANCH  12  15
HETATM   15  C   UNL     1     -39.745  54.283 -48.737  1.00  0.00     0.098 C 
HETATM   16  C   UNL     1     -40.333  53.677 -47.475  1.00  0.00     0.014 C 
ENDBRANCH  12  15
ENDBRANCH   7  11
ENDBRANCH   1   5
BRANCH   2  17
HETATM   17  C   UNL     1     -42.886  55.928 -57.100  1.00  0.00     0.161 C 
BRANCH  17  18
HETATM   18  C   UNL     1     -42.490  57.381 -57.079  1.00  0.00    -0.035 A 
HETATM   19  C   UNL     1     -42.279  58.053 -55.870  1.00  0.00     0.066 A 
HETATM   20  C   UNL     1     -41.907  59.386 -55.905  1.00  0.00     0.164 A 
HETATM   21  N   UNL     1     -41.704  60.086 -57.041  1.00  0.00    -0.237 NA
HETATM   22  C   UNL     1     -41.886  59.413 -58.197  1.00  0.00     0.120 A 
HETATM   23  C   UNL     1     -42.273  58.083 -58.268  1.00  0.00     0.028 A 
BRANCH  20  24
HETATM   24  O   UNL     1     -41.747  60.016 -54.685  1.00  0.00    -0.329 OA
BRANCH  24  25
HETATM   25  C   UNL     1     -41.673  59.153 -53.531  1.00  0.00     0.130 C 
HETATM   26  C   UNL     1     -40.256  58.807 -53.001  1.00  0.00     0.032 C 
HETATM   27  C   UNL     1     -40.818  58.958 -51.576  1.00  0.00     0.005 C 
HETATM   28  C   UNL     1     -41.903  59.870 -52.174  1.00  0.00     0.032 C 
ENDBRANCH  24  25
ENDBRANCH  20  24
ENDBRANCH  17  18
ENDBRANCH   2  17
TORSDOF 7
ENDMDL
MODEL 6
REMARK VINA RESULT:      -7.0      4.573      7.594
REMARK  7 active torsions:
REMARK  status: ('A' for Active; 'I' for Inactive)
REMARK    1  A    between atoms: C_2  and  C_3 
REMARK       I    between atoms: C_3  and  N_4 
REMARK    2  A    between atoms: N_4  and  C_5 
REMARK    3  A    between atoms: C_7  and  C_8 
REMARK       I    between atoms: C_8  and  N_9 
REMARK    4  A    between atoms: N_9  and  C_10 
REMARK    5  A    between atoms: C_10  and  C_11 
REMARK    6  A    between atoms: C_13  and  O_14 
REMARK    7  A    between atoms: O_14  and  C_15 
ROOT
HETATM    1  C   UNL     1     -43.628  57.288 -56.196  1.00  0.00     0.252 C 
HETATM    2  N   UNL     1     -44.239  56.431 -55.306  1.00  0.00    -0.353 N 
HETATM    3  O   UNL     1     -42.972  58.261 -55.839  1.00  0.00    -0.268 OA
HETATM    4  H   UNL     1     -44.814  55.667 -55.630  1.00  0.00     0.163 HD
ENDROOT
BRANCH   1   5
HETATM    5  C   UNL     1     -43.801  57.010 -57.652  1.00  0.00     0.034 A 
HETATM    6  C   UNL     1     -44.874  57.516 -58.402  1.00  0.00     0.046 A 
HETATM    7  C   UNL     1     -44.989  57.221 -59.765  1.00  0.00     0.035 A 
HETATM    8  C   UNL     1     -44.036  56.390 -60.367  1.00  0.00     0.029 A 
HETATM    9  C   UNL     1     -42.976  55.868 -59.625  1.00  0.00     0.003 A 
HETATM   10  C   UNL     1     -42.859  56.178 -58.273  1.00  0.00     0.017 A 
BRANCH   7  11
HETATM   11  N   UNL     1     -46.028  57.702 -60.590  1.00  0.00    -0.327 N 
HETATM   12  C   UNL     1     -47.245  57.093 -60.856  1.00  0.00     0.221 C 
HETATM   13  O   UNL     1     -47.645  56.034 -60.387  1.00  0.00    -0.273 OA
HETATM   14  H   UNL     1     -45.880  58.614 -61.003  1.00  0.00     0.169 HD
BRANCH  12  15
HETATM   15  C   UNL     1     -48.079  57.927 -61.817  1.00  0.00     0.098 C 
HETATM   16  C   UNL     1     -48.983  57.080 -62.695  1.00  0.00     0.014 C 
ENDBRANCH  12  15
ENDBRANCH   7  11
ENDBRANCH   1   5
BRANCH   2  17
HETATM   17  C   UNL     1     -44.097  56.589 -53.875  1.00  0.00     0.161 C 
BRANCH  17  18
HETATM   18  C   UNL     1     -43.238  55.505 -53.279  1.00  0.00    -0.035 A 
HETATM   19  C   UNL     1     -42.570  54.585 -54.093  1.00  0.00     0.066 A 
HETATM   20  C   UNL     1     -41.785  53.614 -53.496  1.00  0.00     0.164 A 
HETATM   21  N   UNL     1     -41.593  53.509 -52.165  1.00  0.00    -0.237 NA
HETATM   22  C   UNL     1     -42.224  54.422 -51.397  1.00  0.00     0.120 A 
HETATM   23  C   UNL     1     -43.044  55.422 -51.897  1.00  0.00     0.028 A 
BRANCH  20  24
HETATM   24  O   UNL     1     -41.176  52.705 -54.341  1.00  0.00    -0.329 OA
BRANCH  24  25
HETATM   25  C   UNL     1     -40.671  51.503 -53.722  1.00  0.00     0.130 C 
HETATM   26  C   UNL     1     -40.785  50.189 -54.541  1.00  0.00     0.032 C 
HETATM   27  C   UNL     1     -39.383  49.818 -54.025  1.00  0.00     0.005 C 
HETATM   28  C   UNL     1     -39.133  51.322 -53.823  1.00  0.00     0.032 C 
ENDBRANCH  24  25
ENDBRANCH  20  24
ENDBRANCH  17  18
ENDBRANCH   2  17
TORSDOF 7
ENDMDL
MODEL 7
REMARK VINA RESULT:      -7.0      3.447      8.491
REMARK  7 active torsions:
REMARK  status: ('A' for Active; 'I' for Inactive)
REMARK    1  A    between atoms: C_2  and  C_3 
REMARK       I    between atoms: C_3  and  N_4 
REMARK    2  A    between atoms: N_4  and  C_5 
REMARK    3  A    between atoms: C_7  and  C_8 
REMARK       I    between atoms: C_8  and  N_9 
REMARK    4  A    between atoms: N_9  and  C_10 
REMARK    5  A    between atoms: C_10  and  C_11 
REMARK    6  A    between atoms: C_13  and  O_14 
REMARK    7  A    between atoms: O_14  and  C_15 
ROOT
HETATM    1  C   UNL     1     -41.200  58.317 -53.977  1.00  0.00     0.252 C 
HETATM    2  N   UNL     1     -41.996  58.433 -55.095  1.00  0.00    -0.353 N 
HETATM    3  O   UNL     1     -40.491  59.230 -53.566  1.00  0.00    -0.268 OA
HETATM    4  H   UNL     1     -42.530  57.648 -55.439  1.00  0.00     0.163 HD
ENDROOT
BRANCH   1   5
HETATM    5  C   UNL     1     -41.201  57.006 -53.261  1.00  0.00     0.034 A 
HETATM    6  C   UNL     1     -41.126  55.774 -53.929  1.00  0.00     0.046 A 
HETATM    7  C   UNL     1     -41.134  54.575 -53.208  1.00  0.00     0.035 A 
HETATM    8  C   UNL     1     -41.247  54.617 -51.812  1.00  0.00     0.029 A 
HETATM    9  C   UNL     1     -41.340  55.838 -51.142  1.00  0.00     0.003 A 
HETATM   10  C   UNL     1     -41.316  57.027 -51.865  1.00  0.00     0.017 A 
BRANCH   7  11
HETATM   11  N   UNL     1     -41.048  53.298 -53.802  1.00  0.00    -0.327 N 
HETATM   12  C   UNL     1     -40.228  52.246 -53.426  1.00  0.00     0.221 C 
HETATM   13  O   UNL     1     -39.452  52.233 -52.478  1.00  0.00    -0.273 OA
HETATM   14  H   UNL     1     -41.686  53.121 -54.568  1.00  0.00     0.169 HD
BRANCH  12  15
HETATM   15  C   UNL     1     -40.419  51.044 -54.340  1.00  0.00     0.098 C 
HETATM   16  C   UNL     1     -39.593  49.844 -53.911  1.00  0.00     0.014 C 
ENDBRANCH  12  15
ENDBRANCH   7  11
ENDBRANCH   1   5
BRANCH   2  17
HETATM   17  C   UNL     1     -42.098  59.673 -55.834  1.00  0.00     0.161 C 
BRANCH  17  18
HETATM   18  C   UNL     1     -42.095  59.436 -57.321  1.00  0.00    -0.035 A 
HETATM   19  C   UNL     1     -42.391  58.175 -57.850  1.00  0.00     0.066 A 
HETATM   20  C   UNL     1     -42.384  58.012 -59.225  1.00  0.00     0.164 A 
HETATM   21  N   UNL     1     -42.137  59.005 -60.104  1.00  0.00    -0.237 NA
HETATM   22  C   UNL     1     -41.881  60.220 -59.576  1.00  0.00     0.120 A 
HETATM   23  C   UNL     1     -41.848  60.483 -58.214  1.00  0.00     0.028 A 
BRANCH  20  24
HETATM   24  O   UNL     1     -42.645  56.739 -59.698  1.00  0.00    -0.329 OA
BRANCH  24  25
HETATM   25  C   UNL     1     -43.953  56.207 -59.400  1.00  0.00     0.130 C 
HETATM   26  C   UNL     1     -45.167  56.914 -60.062  1.00  0.00     0.032 C 
HETATM   27  C   UNL     1     -45.777  55.520 -60.288  1.00  0.00     0.005 C 
HETATM   28  C   UNL     1     -44.347  54.958 -60.232  1.00  0.00     0.032 C 
ENDBRANCH  24  25
ENDBRANCH  20  24
ENDBRANCH  17  18
ENDBRANCH   2  17
TORSDOF 7
ENDMDL
MODEL 8
REMARK VINA RESULT:      -6.9      3.427      4.831
REMARK  7 active torsions:
REMARK  status: ('A' for Active; 'I' for Inactive)
REMARK    1  A    between atoms: C_2  and  C_3 
REMARK       I    between atoms: C_3  and  N_4 
REMARK    2  A    between atoms: N_4  and  C_5 
REMARK    3  A    between atoms: C_7  and  C_8 
REMARK       I    between atoms: C_8  and  N_9 
REMARK    4  A    between atoms: N_9  and  C_10 
REMARK    5  A    between atoms: C_10  and  C_11 
REMARK    6  A    between atoms: C_13  and  O_14 
REMARK    7  A    between atoms: O_14  and  C_15 
ROOT
HETATM    1  C   UNL     1     -43.848  56.338 -52.517  1.00  0.00     0.252 C 
HETATM    2  N   UNL     1     -43.947  55.762 -51.269  1.00  0.00    -0.353 N 
HETATM    3  O   UNL     1     -43.453  55.726 -53.504  1.00  0.00    -0.268 OA
HETATM    4  H   UNL     1     -44.228  56.305 -50.465  1.00  0.00     0.163 HD
ENDROOT
BRANCH   1   5
HETATM    5  C   UNL     1     -44.227  57.777 -52.646  1.00  0.00     0.034 A 
HETATM    6  C   UNL     1     -44.083  58.699 -51.598  1.00  0.00     0.046 A 
HETATM    7  C   UNL     1     -44.458  60.035 -51.772  1.00  0.00     0.035 A 
HETATM    8  C   UNL     1     -45.006  60.437 -52.997  1.00  0.00     0.029 A 
HETATM    9  C   UNL     1     -45.169  59.523 -54.038  1.00  0.00     0.003 A 
HETATM   10  C   UNL     1     -44.780  58.198 -53.862  1.00  0.00     0.017 A 
BRANCH   7  11
HETATM   11  N   UNL     1     -44.331  61.026 -50.775  1.00  0.00    -0.327 N 
HETATM   12  C   UNL     1     -45.025  61.111 -49.578  1.00  0.00     0.221 C 
HETATM   13  O   UNL     1     -45.854  60.312 -49.161  1.00  0.00    -0.273 OA
HETATM   14  H   UNL     1     -43.625  61.732 -50.939  1.00  0.00     0.169 HD
BRANCH  12  15
HETATM   15  C   UNL     1     -44.613  62.346 -48.789  1.00  0.00     0.098 C 
HETATM   16  C   UNL     1     -43.668  63.247 -49.564  1.00  0.00     0.014 C 
ENDBRANCH  12  15
ENDBRANCH   7  11
ENDBRANCH   1   5
BRANCH   2  17
HETATM   17  C   UNL     1     -43.644  54.365 -51.048  1.00  0.00     0.161 C 
BRANCH  17  18
HETATM   18  C   UNL     1     -42.189  54.157 -50.719  1.00  0.00    -0.035 A 
HETATM   19  C   UNL     1     -41.400  53.276 -51.466  1.00  0.00     0.066 A 
HETATM   20  C   UNL     1     -40.065  53.128 -51.128  1.00  0.00     0.164 A 
HETATM   21  N   UNL     1     -39.457  53.805 -50.133  1.00  0.00    -0.237 NA
HETATM   22  C   UNL     1     -40.228  54.671 -49.441  1.00  0.00     0.120 A 
HETATM   23  C   UNL     1     -41.576  54.878 -49.691  1.00  0.00     0.028 A 
BRANCH  20  24
HETATM   24  O   UNL     1     -39.337  52.218 -51.871  1.00  0.00    -0.329 OA
BRANCH  24  25
HETATM   25  C   UNL     1     -40.091  51.406 -52.797  1.00  0.00     0.130 C 
HETATM   26  C   UNL     1     -39.757  51.565 -54.305  1.00  0.00     0.032 C 
HETATM   27  C   UNL     1     -39.908  50.039 -54.436  1.00  0.00     0.005 C 
HETATM   28  C   UNL     1     -39.585  49.946 -52.935  1.00  0.00     0.032 C 
ENDBRANCH  24  25
ENDBRANCH  20  24
ENDBRANCH  17  18
ENDBRANCH   2  17
TORSDOF 7
ENDMDL
MODEL 9
REMARK VINA RESULT:      -6.9      4.300      8.171
REMARK  7 active torsions:
REMARK  status: ('A' for Active; 'I' for Inactive)
REMARK    1  A    between atoms: C_2  and  C_3 
REMARK       I    between atoms: C_3  and  N_4 
REMARK    2  A    between atoms: N_4  and  C_5 
REMARK    3  A    between atoms: C_7  and  C_8 
REMARK       I    between atoms: C_8  and  N_9 
REMARK    4  A    between atoms: N_9  and  C_10 
REMARK    5  A    between atoms: C_10  and  C_11 
REMARK    6  A    between atoms: C_13  and  O_14 
REMARK    7  A    between atoms: O_14  and  C_15 
ROOT
HETATM    1  C   UNL     1     -43.200  55.973 -51.935  1.00  0.00     0.252 C 
HETATM    2  N   UNL     1     -43.875  57.088 -52.380  1.00  0.00    -0.353 N 
HETATM    3  O   UNL     1     -43.371  55.492 -50.819  1.00  0.00    -0.268 OA
HETATM    4  H   UNL     1     -43.677  57.491 -53.284  1.00  0.00     0.163 HD
ENDROOT
BRANCH   1   5
HETATM    5  C   UNL     1     -42.208  55.351 -52.860  1.00  0.00     0.034 A 
HETATM    6  C   UNL     1     -41.881  53.986 -52.821  1.00  0.00     0.046 A 
HETATM    7  C   UNL     1     -40.941  53.456 -53.711  1.00  0.00     0.035 A 
HETATM    8  C   UNL     1     -40.306  54.309 -54.623  1.00  0.00     0.029 A 
HETATM    9  C   UNL     1     -40.611  55.670 -54.656  1.00  0.00     0.003 A 
HETATM   10  C   UNL     1     -41.559  56.188 -53.778  1.00  0.00     0.017 A 
BRANCH   7  11
HETATM   11  N   UNL     1     -40.569  52.095 -53.745  1.00  0.00    -0.327 N 
HETATM   12  C   UNL     1     -39.771  51.414 -52.839  1.00  0.00     0.221 C 
HETATM   13  O   UNL     1     -39.274  51.877 -51.820  1.00  0.00    -0.273 OA
HETATM   14  H   UNL     1     -40.963  51.547 -54.500  1.00  0.00     0.169 HD
BRANCH  12  15
HETATM   15  C   UNL     1     -39.591  49.960 -53.248  1.00  0.00     0.098 C 
HETATM   16  C   UNL     1     -39.819  49.735 -54.732  1.00  0.00     0.014 C 
ENDBRANCH  12  15
ENDBRANCH   7  11
ENDBRANCH   1   5
BRANCH   2  17
HETATM   17  C   UNL     1     -44.887  57.739 -51.576  1.00  0.00     0.161 C 
BRANCH  17  18
HETATM   18  C   UNL     1     -44.463  59.125 -51.165  1.00  0.00    -0.035 A 
HETATM   19  C   UNL     1     -45.273  59.911 -50.338  1.00  0.00     0.066 A 
HETATM   20  C   UNL     1     -44.833  61.174 -49.982  1.00  0.00     0.164 A 
HETATM   21  N   UNL     1     -43.648  61.697 -50.359  1.00  0.00    -0.237 NA
HETATM   22  C   UNL     1     -42.868  60.914 -51.134  1.00  0.00     0.120 A 
HETATM   23  C   UNL     1     -43.225  59.642 -51.557  1.00  0.00     0.028 A 
BRANCH  20  24
HETATM   24  O   UNL     1     -45.685  61.927 -49.195  1.00  0.00    -0.329 OA
BRANCH  24  25
HETATM   25  C   UNL     1     -45.974  61.395 -47.885  1.00  0.00     0.130 C 
HETATM   26  C   UNL     1     -44.771  61.197 -46.925  1.00  0.00     0.032 C 
HETATM   27  C   UNL     1     -45.670  61.715 -45.789  1.00  0.00     0.005 C 
HETATM   28  C   UNL     1     -46.496  62.441 -46.865  1.00  0.00     0.032 C 
ENDBRANCH  24  25
ENDBRANCH  20  24
ENDBRANCH  17  18
ENDBRANCH   2  17
TORSDOF 7
ENDMDL
MODEL 10
REMARK VINA RESULT:      -6.9      2.462      7.822
REMARK  7 active torsions:
REMARK  status: ('A' for Active; 'I' for Inactive)
REMARK    1  A    between atoms: C_2  and  C_3 
REMARK       I    between atoms: C_3  and  N_4 
REMARK    2  A    between atoms: N_4  and  C_5 
REMARK    3  A    between atoms: C_7  and  C_8 
REMARK       I    between atoms: C_8  and  N_9 
REMARK    4  A    between atoms: N_9  and  C_10 
REMARK    5  A    between atoms: C_10  and  C_11 
REMARK    6  A    between atoms: C_13  and  O_14 
REMARK    7  A    between atoms: O_14  and  C_15 
ROOT
HETATM    1  C   UNL     1     -42.733  56.449 -50.993  1.00  0.00     0.252 C 
HETATM    2  N   UNL     1     -42.290  57.754 -51.020  1.00  0.00    -0.353 N 
HETATM    3  O   UNL     1     -43.919  56.146 -51.077  1.00  0.00    -0.268 OA
HETATM    4  H   UNL     1     -41.313  57.976 -50.899  1.00  0.00     0.163 HD
ENDROOT
BRANCH   1   5
HETATM    5  C   UNL     1     -41.707  55.376 -50.835  1.00  0.00     0.034 A 
HETATM    6  C   UNL     1     -41.549  54.332 -51.760  1.00  0.00     0.046 A 
HETATM    7  C   UNL     1     -40.574  53.349 -51.561  1.00  0.00     0.035 A 
HETATM    8  C   UNL     1     -39.775  53.402 -50.411  1.00  0.00     0.029 A 
HETATM    9  C   UNL     1     -39.937  54.426 -49.478  1.00  0.00     0.003 A 
HETATM   10  C   UNL     1     -40.900  55.409 -49.690  1.00  0.00     0.017 A 
BRANCH   7  11
HETATM   11  N   UNL     1     -40.342  52.278 -52.449  1.00  0.00    -0.327 N 
HETATM   12  C   UNL     1     -40.165  52.344 -53.823  1.00  0.00     0.221 C 
HETATM   13  O   UNL     1     -40.145  53.361 -54.504  1.00  0.00    -0.273 OA
HETATM   14  H   UNL     1     -40.259  51.361 -52.027  1.00  0.00     0.169 HD
BRANCH  12  15
HETATM   15  C   UNL     1     -39.964  50.958 -54.419  1.00  0.00     0.098 C 
HETATM   16  C   UNL     1     -39.770  49.887 -53.361  1.00  0.00     0.014 C 
ENDBRANCH  12  15
ENDBRANCH   7  11
ENDBRANCH   1   5
BRANCH   2  17
HETATM   17  C   UNL     1     -43.200  58.864 -51.212  1.00  0.00     0.161 C 
BRANCH  17  18
HETATM   18  C   UNL     1     -42.995  59.524 -52.550  1.00  0.00    -0.035 A 
HETATM   19  C   UNL     1     -42.707  58.768 -53.691  1.00  0.00     0.066 A 
HETATM   20  C   UNL     1     -42.537  59.424 -54.899  1.00  0.00     0.164 A 
HETATM   21  N   UNL     1     -42.659  60.757 -55.060  1.00  0.00    -0.237 NA
HETATM   22  C   UNL     1     -42.964  61.467 -53.953  1.00  0.00     0.120 A 
HETATM   23  C   UNL     1     -43.138  60.907 -52.696  1.00  0.00     0.028 A 
BRANCH  20  24
HETATM   24  O   UNL     1     -42.217  58.637 -55.989  1.00  0.00    -0.329 OA
BRANCH  24  25
HETATM   25  C   UNL     1     -42.941  57.394 -56.110  1.00  0.00     0.130 C 
HETATM   26  C   UNL     1     -43.200  56.867 -57.546  1.00  0.00     0.032 C 
HETATM   27  C   UNL     1     -42.897  55.454 -57.018  1.00  0.00     0.005 C 
HETATM   28  C   UNL     1     -42.078  56.122 -55.900  1.00  0.00     0.032 C 
ENDBRANCH  24  25
ENDBRANCH  20  24
ENDBRANCH  17  18
ENDBRANCH   2  17
TORSDOF 7
ENDMDL
