MODEL 1
REMARK VINA RESULT:      -8.5      0.000      0.000
REMARK  9 active torsions:
REMARK  status: ('A' for Active; 'I' for Inactive)
REMARK    1  A    between atoms: C_4  and  C_5 
REMARK    2  A    between atoms: C_8  and  C_9 
REMARK       I    between atoms: C_9  and  N_10 
REMARK    3  A    between atoms: N_10  and  C_26 
REMARK    4  A    between atoms: N_10  and  C_11 
REMARK    5  A    between atoms: C_11  and  C_12 
REMARK    6  A    between atoms: C_11  and  C_21 
REMARK       I    between atoms: C_12  and  N_13 
REMARK    7  A    between atoms: N_13  and  C_14 
REMARK    8  A    between atoms: C_14  and  C_15 
REMARK    9  A    between atoms: C_26  and  C_27 
ROOT
HETATM    1  C   UNL     1     -43.863  56.979 -51.246  1.00  0.00     0.271 C 
HETATM    2  N   UNL     1     -43.869  58.105 -52.086  1.00  0.00    -0.324 N 
HETATM    3  O   UNL     1     -44.882  56.661 -50.630  1.00  0.00    -0.266 OA
ENDROOT
BRANCH   2   4
HETATM    4  C   UNL     1     -45.125  58.860 -52.160  1.00  0.00     0.173 C 
BRANCH   4   5
HETATM    5  C   UNL     1     -45.113  60.066 -51.272  1.00  0.00     0.000 A 
HETATM    6  S   UNL     1     -44.840  61.623 -51.940  1.00  0.00    -0.105 SA
HETATM    7  C   UNL     1     -45.063  62.386 -50.427  1.00  0.00     0.050 A 
HETATM    8  C   UNL     1     -45.357  61.482 -49.433  1.00  0.00     0.008 A 
HETATM    9  C   UNL     1     -45.387  60.143 -49.919  1.00  0.00     0.017 A 
ENDBRANCH   4   5
ENDBRANCH   2   4
BRANCH   2  10
HETATM   10  C   UNL     1     -42.710  58.569 -52.879  1.00  0.00     0.220 C 
BRANCH  10  11
HETATM   11  C   UNL     1     -42.473  57.674 -54.123  1.00  0.00     0.245 C 
HETATM   12  N   UNL     1     -43.398  57.647 -55.131  1.00  0.00    -0.357 N 
HETATM   13  H   UNL     1     -44.326  58.009 -54.947  1.00  0.00     0.162 HD
HETATM   14  O   UNL     1     -41.391  57.082 -54.258  1.00  0.00    -0.271 OA
BRANCH  12  15
HETATM   15  C   UNL     1     -43.251  56.779 -56.289  1.00  0.00     0.154 C 
BRANCH  15  16
HETATM   16  C   UNL     1     -43.359  57.559 -57.607  1.00  0.00     0.139 C 
HETATM   17  O   UNL     1     -42.048  58.034 -57.990  1.00  0.00    -0.384 OA
HETATM   18  C   UNL     1     -41.910  57.828 -59.400  1.00  0.00     0.168 C 
HETATM   19  C   UNL     1     -42.697  56.574 -59.689  1.00  0.00     0.029 C 
HETATM   20  C   UNL     1     -43.885  56.715 -58.765  1.00  0.00     0.035 C 
ENDBRANCH  15  16
ENDBRANCH  12  15
ENDBRANCH  10  11
BRANCH  10  21
HETATM   21  C   UNL     1     -41.531  58.977 -52.006  1.00  0.00     0.014 A 
HETATM   22  S   UNL     1     -41.644  59.855 -50.538  1.00  0.00    -0.104 SA
HETATM   23  C   UNL     1     -39.957  59.844 -50.296  1.00  0.00     0.050 A 
HETATM   24  C   UNL     1     -39.298  59.191 -51.310  1.00  0.00     0.008 A 
HETATM   25  C   UNL     1     -40.201  58.695 -52.291  1.00  0.00     0.017 A 
ENDBRANCH  10  21
ENDBRANCH   2  10
BRANCH   1  26
HETATM   26  C   UNL     1     -42.691  56.124 -51.163  1.00  0.00     0.101 C 
HETATM   27  N   UNL     1     -42.231  55.227 -52.103  1.00  0.00    -0.351 N 
HETATM   28  C   UNL     1     -41.166  54.494 -51.618  1.00  0.00     0.043 C 
HETATM   29  H   UNL     1     -42.677  55.067 -53.001  1.00  0.00     0.166 HD
HETATM   30  C   UNL     1     -40.797  55.114 -50.436  1.00  0.00     0.033 C 
HETATM   31  C   UNL     1     -41.731  56.139 -50.164  1.00  0.00     0.037 C 
BRANCH  28  32
HETATM   32  C   UNL     1     -40.611  53.308 -52.291  1.00  0.00    -0.009 A 
HETATM   33  C   UNL     1     -40.763  53.094 -53.669  1.00  0.00     0.013 A 
HETATM   34  C   UNL     1     -40.266  51.936 -54.277  1.00  0.00     0.001 A 
HETATM   35  C   UNL     1     -39.606  50.973 -53.518  1.00  0.00     0.000 A 
HETATM   36  C   UNL     1     -39.439  51.170 -52.152  1.00  0.00     0.001 A 
HETATM   37  C   UNL     1     -39.938  52.327 -51.546  1.00  0.00     0.013 A 
ENDBRANCH  28  32
ENDBRANCH   1  26
TORSDOF 9
ENDMDL
MODEL 2
REMARK VINA RESULT:      -7.9      2.417      5.873
REMARK  9 active torsions:
REMARK  status: ('A' for Active; 'I' for Inactive)
REMARK    1  A    between atoms: C_4  and  C_5 
REMARK    2  A    between atoms: C_8  and  C_9 
REMARK       I    between atoms: C_9  and  N_10 
REMARK    3  A    between atoms: N_10  and  C_26 
REMARK    4  A    between atoms: N_10  and  C_11 
REMARK    5  A    between atoms: C_11  and  C_12 
REMARK    6  A    between atoms: C_11  and  C_21 
REMARK       I    between atoms: C_12  and  N_13 
REMARK    7  A    between atoms: N_13  and  C_14 
REMARK    8  A    between atoms: C_14  and  C_15 
REMARK    9  A    between atoms: C_26  and  C_27 
ROOT
HETATM    1  C   UNL     1     -41.332  58.462 -53.497  1.00  0.00     0.271 C 
HETATM    2  N   UNL     1     -42.562  58.847 -54.055  1.00  0.00    -0.324 N 
HETATM    3  O   UNL     1     -40.375  59.238 -53.512  1.00  0.00    -0.266 OA
ENDROOT
BRANCH   2   4
HETATM    4  C   UNL     1     -42.619  60.185 -54.654  1.00  0.00     0.173 C 
BRANCH   4   5
HETATM    5  C   UNL     1     -42.806  60.132 -56.140  1.00  0.00     0.000 A 
HETATM    6  S   UNL     1     -44.360  60.393 -56.820  1.00  0.00    -0.105 SA
HETATM    7  C   UNL     1     -43.757  60.276 -58.414  1.00  0.00     0.050 A 
HETATM    8  C   UNL     1     -42.398  60.060 -58.437  1.00  0.00     0.008 A 
HETATM    9  C   UNL     1     -41.849  59.978 -57.125  1.00  0.00     0.017 A 
ENDBRANCH   4   5
ENDBRANCH   2   4
BRANCH   2  10
HETATM   10  C   UNL     1     -43.776  58.003 -54.081  1.00  0.00     0.220 C 
BRANCH  10  11
HETATM   11  C   UNL     1     -44.537  58.055 -52.731  1.00  0.00     0.245 C 
HETATM   12  N   UNL     1     -45.242  59.177 -52.386  1.00  0.00    -0.357 N 
HETATM   13  H   UNL     1     -45.059  60.037 -52.889  1.00  0.00     0.162 HD
HETATM   14  O   UNL     1     -44.608  57.038 -52.025  1.00  0.00    -0.271 OA
BRANCH  12  15
HETATM   15  C   UNL     1     -45.922  59.298 -51.107  1.00  0.00     0.154 C 
BRANCH  15  16
HETATM   16  C   UNL     1     -45.817  60.717 -50.533  1.00  0.00     0.139 C 
HETATM   17  O   UNL     1     -45.937  60.661 -49.093  1.00  0.00    -0.384 OA
HETATM   18  C   UNL     1     -44.960  61.551 -48.544  1.00  0.00     0.168 C 
HETATM   19  C   UNL     1     -43.797  61.491 -49.502  1.00  0.00     0.029 C 
HETATM   20  C   UNL     1     -44.485  61.395 -50.844  1.00  0.00     0.035 C 
ENDBRANCH  15  16
ENDBRANCH  12  15
ENDBRANCH  10  11
BRANCH  10  21
HETATM   21  C   UNL     1     -43.541  56.663 -54.764  1.00  0.00     0.014 A 
HETATM   22  S   UNL     1     -42.772  56.447 -56.281  1.00  0.00    -0.104 SA
HETATM   23  C   UNL     1     -42.950  54.753 -56.233  1.00  0.00     0.050 A 
HETATM   24  C   UNL     1     -43.589  54.337 -55.089  1.00  0.00     0.008 A 
HETATM   25  C   UNL     1     -43.928  55.433 -54.248  1.00  0.00     0.017 A 
ENDBRANCH  10  21
ENDBRANCH   2  10
BRANCH   1  26
HETATM   26  C   UNL     1     -41.197  57.186 -52.813  1.00  0.00     0.101 C 
HETATM   27  N   UNL     1     -40.601  56.036 -53.282  1.00  0.00    -0.351 N 
HETATM   28  C   UNL     1     -40.784  54.983 -52.408  1.00  0.00     0.043 C 
HETATM   29  H   UNL     1     -40.161  55.955 -54.194  1.00  0.00     0.166 HD
HETATM   30  C   UNL     1     -41.300  55.547 -51.252  1.00  0.00     0.033 C 
HETATM   31  C   UNL     1     -41.537  56.919 -51.497  1.00  0.00     0.037 C 
BRANCH  28  32
HETATM   32  C   UNL     1     -40.471  53.582 -52.731  1.00  0.00    -0.009 A 
HETATM   33  C   UNL     1     -39.983  52.686 -51.768  1.00  0.00     0.013 A 
HETATM   34  C   UNL     1     -39.648  51.372 -52.112  1.00  0.00     0.001 A 
HETATM   35  C   UNL     1     -39.797  50.929 -53.423  1.00  0.00     0.000 A 
HETATM   36  C   UNL     1     -40.286  51.800 -54.392  1.00  0.00     0.001 A 
HETATM   37  C   UNL     1     -40.618  53.114 -54.047  1.00  0.00     0.013 A 
ENDBRANCH  28  32
ENDBRANCH   1  26
TORSDOF 9
ENDMDL
MODEL 3
REMARK VINA RESULT:      -7.8      2.810      4.755
REMARK  9 active torsions:
REMARK  status: ('A' for Active; 'I' for Inactive)
REMARK    1  A    between atoms: C_4  and  C_5 
REMARK    2  A    between atoms: C_8  and  C_9 
REMARK       I    between atoms: C_9  and  N_10 
REMARK    3  A    between atoms: N_10  and  C_26 
REMARK    4  A    between atoms: N_10  and  C_11 
REMARK    5  A    between atoms: C_11  and  C_12 
REMARK    6  A    between atoms: C_11  and  C_21 
REMARK       I    between atoms: C_12  and  N_13 
REMARK    7  A    between atoms: N_13  and  C_14 
REMARK    8  A    between atoms: C_14  and  C_15 
REMARK    9  A    between atoms: C_26  and  C_27 
ROOT
HETATM    1  C   UNL     1     -43.454  56.326 -54.187  1.00  0.00     0.271 C 
HETATM    2  N   UNL     1     -43.757  57.242 -55.208  1.00  0.00    -0.324 N 
HETATM    3  O   UNL     1     -44.222  56.187 -53.232  1.00  0.00    -0.266 OA
ENDROOT
BRANCH   2   4
HETATM    4  C   UNL     1     -44.998  58.008 -55.053  1.00  0.00     0.173 C 
BRANCH   4   5
HETATM    5  C   UNL     1     -44.773  59.314 -54.355  1.00  0.00     0.000 A 
HETATM    6  S   UNL     1     -45.362  60.771 -55.045  1.00  0.00    -0.105 SA
HETATM    7  C   UNL     1     -44.832  61.697 -53.710  1.00  0.00     0.050 A 
HETATM    8  C   UNL     1     -44.234  60.917 -52.746  1.00  0.00     0.008 A 
HETATM    9  C   UNL     1     -44.201  59.542 -53.117  1.00  0.00     0.017 A 
ENDBRANCH   4   5
ENDBRANCH   2   4
BRANCH   2  10
HETATM   10  C   UNL     1     -42.916  57.480 -56.401  1.00  0.00     0.220 C 
BRANCH  10  11
HETATM   11  C   UNL     1     -42.330  58.916 -56.410  1.00  0.00     0.245 C 
HETATM   12  N   UNL     1     -42.686  59.793 -57.399  1.00  0.00    -0.357 N 
HETATM   13  H   UNL     1     -43.123  59.427 -58.237  1.00  0.00     0.162 HD
HETATM   14  O   UNL     1     -41.639  59.304 -55.457  1.00  0.00    -0.271 OA
BRANCH  12  15
HETATM   15  C   UNL     1     -42.118  61.129 -57.485  1.00  0.00     0.154 C 
BRANCH  15  16
HETATM   16  C   UNL     1     -41.052  61.229 -58.584  1.00  0.00     0.139 C 
HETATM   17  O   UNL     1     -41.678  61.058 -59.876  1.00  0.00    -0.384 OA
HETATM   18  C   UNL     1     -41.107  62.024 -60.764  1.00  0.00     0.168 C 
HETATM   19  C   UNL     1     -40.805  63.220 -59.896  1.00  0.00     0.029 C 
HETATM   20  C   UNL     1     -40.338  62.578 -58.610  1.00  0.00     0.035 C 
ENDBRANCH  15  16
ENDBRANCH  12  15
ENDBRANCH  10  11
BRANCH  10  21
HETATM   21  C   UNL     1     -43.528  56.906 -57.671  1.00  0.00     0.014 A 
HETATM   22  S   UNL     1     -44.868  57.568 -58.511  1.00  0.00    -0.104 SA
HETATM   23  C   UNL     1     -44.837  56.352 -59.704  1.00  0.00     0.050 A 
HETATM   24  C   UNL     1     -43.833  55.441 -59.483  1.00  0.00     0.008 A 
HETATM   25  C   UNL     1     -43.083  55.758 -58.316  1.00  0.00     0.017 A 
ENDBRANCH  10  21
ENDBRANCH   2  10
BRANCH   1  26
HETATM   26  C   UNL     1     -42.286  55.467 -54.286  1.00  0.00     0.101 C 
HETATM   27  N   UNL     1     -42.200  54.122 -53.997  1.00  0.00    -0.351 N 
HETATM   28  C   UNL     1     -40.896  53.674 -54.079  1.00  0.00     0.043 C 
HETATM   29  H   UNL     1     -42.982  53.558 -53.679  1.00  0.00     0.166 HD
HETATM   30  C   UNL     1     -40.186  54.707 -54.668  1.00  0.00     0.033 C 
HETATM   31  C   UNL     1     -41.054  55.813 -54.816  1.00  0.00     0.037 C 
BRANCH  28  32
HETATM   32  C   UNL     1     -40.450  52.353 -53.606  1.00  0.00    -0.009 A 
HETATM   33  C   UNL     1     -39.960  52.154 -52.307  1.00  0.00     0.013 A 
HETATM   34  C   UNL     1     -39.498  50.899 -51.896  1.00  0.00     0.001 A 
HETATM   35  C   UNL     1     -39.521  49.821 -52.776  1.00  0.00     0.000 A 
HETATM   36  C   UNL     1     -40.010  49.995 -54.066  1.00  0.00     0.001 A 
HETATM   37  C   UNL     1     -40.469  51.251 -54.476  1.00  0.00     0.013 A 
ENDBRANCH  28  32
ENDBRANCH   1  26
TORSDOF 9
ENDMDL
MODEL 4
REMARK VINA RESULT:      -7.8      2.726      7.178
REMARK  9 active torsions:
REMARK  status: ('A' for Active; 'I' for Inactive)
REMARK    1  A    between atoms: C_4  and  C_5 
REMARK    2  A    between atoms: C_8  and  C_9 
REMARK       I    between atoms: C_9  and  N_10 
REMARK    3  A    between atoms: N_10  and  C_26 
REMARK    4  A    between atoms: N_10  and  C_11 
REMARK    5  A    between atoms: C_11  and  C_12 
REMARK    6  A    between atoms: C_11  and  C_21 
REMARK       I    between atoms: C_12  and  N_13 
REMARK    7  A    between atoms: N_13  and  C_14 
REMARK    8  A    between atoms: C_14  and  C_15 
REMARK    9  A    between atoms: C_26  and  C_27 
ROOT
HETATM    1  C   UNL     1     -44.097  57.765 -56.348  1.00  0.00     0.271 C 
HETATM    2  N   UNL     1     -43.553  57.219 -55.173  1.00  0.00    -0.324 N 
HETATM    3  O   UNL     1     -45.315  57.923 -56.451  1.00  0.00    -0.266 OA
ENDROOT
BRANCH   2   4
HETATM    4  C   UNL     1     -44.507  56.847 -54.122  1.00  0.00     0.173 C 
BRANCH   4   5
HETATM    5  C   UNL     1     -44.769  57.974 -53.171  1.00  0.00     0.000 A 
HETATM    6  S   UNL     1     -44.768  57.689 -51.478  1.00  0.00    -0.105 SA
HETATM    7  C   UNL     1     -45.020  59.343 -51.131  1.00  0.00     0.050 A 
HETATM    8  C   UNL     1     -45.087  60.106 -52.274  1.00  0.00     0.008 A 
HETATM    9  C   UNL     1     -44.940  59.317 -53.452  1.00  0.00     0.017 A 
ENDBRANCH   4   5
ENDBRANCH   2   4
BRANCH   2  10
HETATM   10  C   UNL     1     -42.110  56.997 -54.937  1.00  0.00     0.220 C 
BRANCH  10  11
HETATM   11  C   UNL     1     -41.703  55.529 -55.228  1.00  0.00     0.245 C 
HETATM   12  N   UNL     1     -40.585  55.001 -54.641  1.00  0.00    -0.357 N 
HETATM   13  H   UNL     1     -39.908  55.633 -54.230  1.00  0.00     0.162 HD
HETATM   14  O   UNL     1     -42.457  54.801 -55.892  1.00  0.00    -0.271 OA
BRANCH  12  15
HETATM   15  C   UNL     1     -40.128  53.650 -54.928  1.00  0.00     0.154 C 
BRANCH  15  16
HETATM   16  C   UNL     1     -40.603  52.647 -53.869  1.00  0.00     0.139 C 
HETATM   17  O   UNL     1     -39.564  51.667 -53.638  1.00  0.00    -0.384 OA
HETATM   18  C   UNL     1     -39.486  51.445 -52.227  1.00  0.00     0.168 C 
HETATM   19  C   UNL     1     -39.828  52.775 -51.604  1.00  0.00     0.029 C 
HETATM   20  C   UNL     1     -40.911  53.295 -52.521  1.00  0.00     0.035 C 
ENDBRANCH  15  16
ENDBRANCH  12  15
ENDBRANCH  10  11
BRANCH  10  21
HETATM   21  C   UNL     1     -41.612  57.682 -53.673  1.00  0.00     0.014 A 
HETATM   22  S   UNL     1     -41.297  59.360 -53.514  1.00  0.00    -0.104 SA
HETATM   23  C   UNL     1     -40.819  59.209 -51.886  1.00  0.00     0.050 A 
HETATM   24  C   UNL     1     -40.885  57.907 -51.450  1.00  0.00     0.008 A 
HETATM   25  C   UNL     1     -41.339  57.032 -52.476  1.00  0.00     0.017 A 
ENDBRANCH  10  21
ENDBRANCH   2  10
BRANCH   1  26
HETATM   26  C   UNL     1     -43.229  58.234 -57.415  1.00  0.00     0.101 C 
HETATM   27  N   UNL     1     -42.607  59.460 -57.522  1.00  0.00    -0.351 N 
HETATM   28  C   UNL     1     -41.973  59.596 -58.741  1.00  0.00     0.043 C 
HETATM   29  H   UNL     1     -42.684  60.197 -56.828  1.00  0.00     0.166 HD
HETATM   30  C   UNL     1     -41.994  58.335 -59.313  1.00  0.00     0.033 C 
HETATM   31  C   UNL     1     -42.756  57.484 -58.480  1.00  0.00     0.037 C 
BRANCH  28  32
HETATM   32  C   UNL     1     -41.423  60.866 -59.243  1.00  0.00    -0.009 A 
HETATM   33  C   UNL     1     -41.496  61.225 -60.597  1.00  0.00     0.013 A 
HETATM   34  C   UNL     1     -40.925  62.416 -61.057  1.00  0.00     0.001 A 
HETATM   35  C   UNL     1     -40.273  63.270 -60.171  1.00  0.00     0.000 A 
HETATM   36  C   UNL     1     -40.196  62.936 -58.824  1.00  0.00     0.001 A 
HETATM   37  C   UNL     1     -40.766  61.744 -58.366  1.00  0.00     0.013 A 
ENDBRANCH  28  32
ENDBRANCH   1  26
TORSDOF 9
ENDMDL
MODEL 5
REMARK VINA RESULT:      -7.8      1.572      2.843
REMARK  9 active torsions:
REMARK  status: ('A' for Active; 'I' for Inactive)
REMARK    1  A    between atoms: C_4  and  C_5 
REMARK    2  A    between atoms: C_8  and  C_9 
REMARK       I    between atoms: C_9  and  N_10 
REMARK    3  A    between atoms: N_10  and  C_26 
REMARK    4  A    between atoms: N_10  and  C_11 
REMARK    5  A    between atoms: C_11  and  C_12 
REMARK    6  A    between atoms: C_11  and  C_21 
REMARK       I    between atoms: C_12  and  N_13 
REMARK    7  A    between atoms: N_13  and  C_14 
REMARK    8  A    between atoms: C_14  and  C_15 
REMARK    9  A    between atoms: C_26  and  C_27 
ROOT
HETATM    1  C   UNL     1     -41.639  58.414 -51.254  1.00  0.00     0.271 C 
HETATM    2  N   UNL     1     -42.314  59.315 -52.095  1.00  0.00    -0.324 N 
HETATM    3  O   UNL     1     -40.876  58.834 -50.382  1.00  0.00    -0.266 OA
ENDROOT
BRANCH   2   4
HETATM    4  C   UNL     1     -42.039  60.741 -51.880  1.00  0.00     0.173 C 
BRANCH   4   5
HETATM    5  C   UNL     1     -42.960  61.347 -50.866  1.00  0.00     0.000 A 
HETATM    6  S   UNL     1     -43.548  62.944 -51.085  1.00  0.00    -0.105 SA
HETATM    7  C   UNL     1     -44.519  62.852 -49.681  1.00  0.00     0.050 A 
HETATM    8  C   UNL     1     -44.416  61.627 -49.063  1.00  0.00     0.008 A 
HETATM    9  C   UNL     1     -43.518  60.758 -49.747  1.00  0.00     0.017 A 
ENDBRANCH   4   5
ENDBRANCH   2   4
BRANCH   2  10
HETATM   10  C   UNL     1     -43.258  58.924 -53.164  1.00  0.00     0.220 C 
BRANCH  10  11
HETATM   11  C   UNL     1     -42.513  58.441 -54.436  1.00  0.00     0.245 C 
HETATM   12  N   UNL     1     -42.974  57.353 -55.126  1.00  0.00    -0.357 N 
HETATM   13  H   UNL     1     -43.635  56.734 -54.670  1.00  0.00     0.162 HD
HETATM   14  O   UNL     1     -41.578  59.115 -54.894  1.00  0.00    -0.271 OA
BRANCH  12  15
HETATM   15  C   UNL     1     -42.278  56.826 -56.289  1.00  0.00     0.154 C 
BRANCH  15  16
HETATM   16  C   UNL     1     -42.964  57.231 -57.600  1.00  0.00     0.139 C 
HETATM   17  O   UNL     1     -42.034  57.984 -58.413  1.00  0.00    -0.384 OA
HETATM   18  C   UNL     1     -42.175  57.529 -59.763  1.00  0.00     0.168 C 
HETATM   19  C   UNL     1     -42.518  56.065 -59.646  1.00  0.00     0.029 C 
HETATM   20  C   UNL     1     -43.422  56.038 -58.435  1.00  0.00     0.035 C 
ENDBRANCH  15  16
ENDBRANCH  12  15
ENDBRANCH  10  11
BRANCH  10  21
HETATM   21  C   UNL     1     -44.427  59.890 -53.293  1.00  0.00     0.014 A 
HETATM   22  S   UNL     1     -44.536  61.163 -54.435  1.00  0.00    -0.104 SA
HETATM   23  C   UNL     1     -46.066  61.661 -53.870  1.00  0.00     0.050 A 
HETATM   24  C   UNL     1     -46.502  60.885 -52.823  1.00  0.00     0.008 A 
HETATM   25  C   UNL     1     -45.562  59.871 -52.492  1.00  0.00     0.017 A 
ENDBRANCH  10  21
ENDBRANCH   2  10
BRANCH   1  26
HETATM   26  C   UNL     1     -41.901  56.987 -51.338  1.00  0.00     0.101 C 
HETATM   27  N   UNL     1     -41.025  55.987 -51.702  1.00  0.00    -0.351 N 
HETATM   28  C   UNL     1     -41.666  54.768 -51.800  1.00  0.00     0.043 C 
HETATM   29  H   UNL     1     -40.053  56.147 -51.952  1.00  0.00     0.166 HD
HETATM   30  C   UNL     1     -42.922  54.966 -51.249  1.00  0.00     0.033 C 
HETATM   31  C   UNL     1     -43.060  56.339 -50.944  1.00  0.00     0.037 C 
BRANCH  28  32
HETATM   32  C   UNL     1     -41.058  53.564 -52.388  1.00  0.00    -0.009 A 
HETATM   33  C   UNL     1     -40.154  52.763 -51.676  1.00  0.00     0.013 A 
HETATM   34  C   UNL     1     -39.553  51.649 -52.274  1.00  0.00     0.001 A 
HETATM   35  C   UNL     1     -39.849  51.317 -53.593  1.00  0.00     0.000 A 
HETATM   36  C   UNL     1     -40.748  52.094 -54.314  1.00  0.00     0.001 A 
HETATM   37  C   UNL     1     -41.346  53.208 -53.715  1.00  0.00     0.013 A 
ENDBRANCH  28  32
ENDBRANCH   1  26
TORSDOF 9
ENDMDL
MODEL 6
REMARK VINA RESULT:      -7.7      1.953      5.158
REMARK  9 active torsions:
REMARK  status: ('A' for Active; 'I' for Inactive)
REMARK    1  A    between atoms: C_4  and  C_5 
REMARK    2  A    between atoms: C_8  and  C_9 
REMARK       I    between atoms: C_9  and  N_10 
REMARK    3  A    between atoms: N_10  and  C_26 
REMARK    4  A    between atoms: N_10  and  C_11 
REMARK    5  A    between atoms: C_11  and  C_12 
REMARK    6  A    between atoms: C_11  and  C_21 
REMARK       I    between atoms: C_12  and  N_13 
REMARK    7  A    between atoms: N_13  and  C_14 
REMARK    8  A    between atoms: C_14  and  C_15 
REMARK    9  A    between atoms: C_26  and  C_27 
ROOT
HETATM    1  C   UNL     1     -42.239  57.543 -55.355  1.00  0.00     0.271 C 
HETATM    2  N   UNL     1     -42.295  58.465 -54.296  1.00  0.00    -0.324 N 
HETATM    3  O   UNL     1     -42.078  57.937 -56.512  1.00  0.00    -0.266 OA
ENDROOT
BRANCH   2   4
HETATM    4  C   UNL     1     -42.171  59.882 -54.656  1.00  0.00     0.173 C 
BRANCH   4   5
HETATM    5  C   UNL     1     -43.502  60.566 -54.719  1.00  0.00     0.000 A 
HETATM    6  S   UNL     1     -43.687  62.147 -54.076  1.00  0.00    -0.105 SA
HETATM    7  C   UNL     1     -45.315  62.238 -54.588  1.00  0.00     0.050 A 
HETATM    8  C   UNL     1     -45.711  61.100 -55.252  1.00  0.00     0.008 A 
HETATM    9  C   UNL     1     -44.665  60.135 -55.329  1.00  0.00     0.017 A 
ENDBRANCH   4   5
ENDBRANCH   2   4
BRANCH   2  10
HETATM   10  C   UNL     1     -42.472  58.102 -52.874  1.00  0.00     0.220 C 
BRANCH  10  11
HETATM   11  C   UNL     1     -43.954  58.226 -52.433  1.00  0.00     0.245 C 
HETATM   12  N   UNL     1     -44.361  59.310 -51.702  1.00  0.00    -0.357 N 
HETATM   13  H   UNL     1     -43.657  59.882 -51.250  1.00  0.00     0.162 HD
HETATM   14  O   UNL     1     -44.790  57.409 -52.848  1.00  0.00    -0.271 OA
BRANCH  12  15
HETATM   15  C   UNL     1     -45.725  59.442 -51.214  1.00  0.00     0.154 C 
BRANCH  15  16
HETATM   16  C   UNL     1     -45.908  60.704 -50.361  1.00  0.00     0.139 C 
HETATM   17  O   UNL     1     -45.983  60.331 -48.965  1.00  0.00    -0.384 OA
HETATM   18  C   UNL     1     -45.205  61.275 -48.224  1.00  0.00     0.168 C 
HETATM   19  C   UNL     1     -44.075  61.658 -49.147  1.00  0.00     0.029 C 
HETATM   20  C   UNL     1     -44.755  61.696 -50.496  1.00  0.00     0.035 C 
ENDBRANCH  15  16
ENDBRANCH  12  15
ENDBRANCH  10  11
BRANCH  10  21
HETATM   21  C   UNL     1     -41.371  58.664 -51.986  1.00  0.00     0.014 A 
HETATM   22  S   UNL     1     -39.705  58.716 -52.388  1.00  0.00    -0.104 SA
HETATM   23  C   UNL     1     -39.278  59.451 -50.911  1.00  0.00     0.050 A 
HETATM   24  C   UNL     1     -40.373  59.659 -50.106  1.00  0.00     0.008 A 
HETATM   25  C   UNL     1     -41.572  59.206 -50.723  1.00  0.00     0.017 A 
ENDBRANCH  10  21
ENDBRANCH   2  10
BRANCH   1  26
HETATM   26  C   UNL     1     -42.276  56.113 -55.094  1.00  0.00     0.101 C 
HETATM   27  N   UNL     1     -41.522  55.401 -54.186  1.00  0.00    -0.351 N 
HETATM   28  C   UNL     1     -41.735  54.042 -54.315  1.00  0.00     0.043 C 
HETATM   29  H   UNL     1     -40.835  55.818 -53.566  1.00  0.00     0.166 HD
HETATM   30  C   UNL     1     -42.827  53.916 -55.159  1.00  0.00     0.033 C 
HETATM   31  C   UNL     1     -43.176  55.204 -55.625  1.00  0.00     0.037 C 
BRANCH  28  32
HETATM   32  C   UNL     1     -40.912  53.016 -53.655  1.00  0.00    -0.009 A 
HETATM   33  C   UNL     1     -40.495  51.854 -54.320  1.00  0.00     0.013 A 
HETATM   34  C   UNL     1     -39.753  50.871 -53.656  1.00  0.00     0.001 A 
HETATM   35  C   UNL     1     -39.412  51.035 -52.316  1.00  0.00     0.000 A 
HETATM   36  C   UNL     1     -39.810  52.183 -51.640  1.00  0.00     0.001 A 
HETATM   37  C   UNL     1     -40.553  53.163 -52.305  1.00  0.00     0.013 A 
ENDBRANCH  28  32
ENDBRANCH   1  26
TORSDOF 9
ENDMDL
MODEL 7
REMARK VINA RESULT:      -7.6      2.843      5.672
REMARK  9 active torsions:
REMARK  status: ('A' for Active; 'I' for Inactive)
REMARK    1  A    between atoms: C_4  and  C_5 
REMARK    2  A    between atoms: C_8  and  C_9 
REMARK       I    between atoms: C_9  and  N_10 
REMARK    3  A    between atoms: N_10  and  C_26 
REMARK    4  A    between atoms: N_10  and  C_11 
REMARK    5  A    between atoms: C_11  and  C_12 
REMARK    6  A    between atoms: C_11  and  C_21 
REMARK       I    between atoms: C_12  and  N_13 
REMARK    7  A    between atoms: N_13  and  C_14 
REMARK    8  A    between atoms: C_14  and  C_15 
REMARK    9  A    between atoms: C_26  and  C_27 
ROOT
HETATM    1  C   UNL     1     -44.304  57.072 -54.910  1.00  0.00     0.271 C 
HETATM    2  N   UNL     1     -43.917  58.408 -55.109  1.00  0.00    -0.324 N 
HETATM    3  O   UNL     1     -45.494  56.787 -54.763  1.00  0.00    -0.266 OA
ENDROOT
BRANCH   2   4
HETATM    4  C   UNL     1     -44.992  59.407 -55.110  1.00  0.00     0.173 C 
BRANCH   4   5
HETATM    5  C   UNL     1     -45.455  59.736 -56.496  1.00  0.00     0.000 A 
HETATM    6  S   UNL     1     -46.116  58.508 -57.497  1.00  0.00    -0.105 SA
HETATM    7  C   UNL     1     -46.458  59.618 -58.750  1.00  0.00     0.050 A 
HETATM    8  C   UNL     1     -46.096  60.902 -58.414  1.00  0.00     0.008 A 
HETATM    9  C   UNL     1     -45.519  60.971 -57.113  1.00  0.00     0.017 A 
ENDBRANCH   4   5
ENDBRANCH   2   4
BRANCH   2  10
HETATM   10  C   UNL     1     -42.523  58.860 -55.307  1.00  0.00     0.220 C 
BRANCH  10  11
HETATM   11  C   UNL     1     -41.969  59.574 -54.046  1.00  0.00     0.245 C 
HETATM   12  N   UNL     1     -42.824  59.960 -53.049  1.00  0.00    -0.357 N 
HETATM   13  H   UNL     1     -43.816  60.002 -53.250  1.00  0.00     0.162 HD
HETATM   14  O   UNL     1     -40.744  59.682 -53.888  1.00  0.00    -0.271 OA
BRANCH  12  15
HETATM   15  C   UNL     1     -42.362  60.685 -51.875  1.00  0.00     0.154 C 
BRANCH  15  16
HETATM   16  C   UNL     1     -42.033  59.742 -50.712  1.00  0.00     0.139 C 
HETATM   17  O   UNL     1     -42.392  58.389 -51.076  1.00  0.00    -0.384 OA
HETATM   18  C   UNL     1     -41.341  57.527 -50.628  1.00  0.00     0.168 C 
HETATM   19  C   UNL     1     -40.082  58.348 -50.759  1.00  0.00     0.029 C 
HETATM   20  C   UNL     1     -40.549  59.726 -50.350  1.00  0.00     0.035 C 
ENDBRANCH  15  16
ENDBRANCH  12  15
ENDBRANCH  10  11
BRANCH  10  21
HETATM   21  C   UNL     1     -42.298  59.473 -56.682  1.00  0.00     0.014 A 
HETATM   22  S   UNL     1     -42.344  58.617 -58.166  1.00  0.00    -0.104 SA
HETATM   23  C   UNL     1     -42.005  60.012 -59.086  1.00  0.00     0.050 A 
HETATM   24  C   UNL     1     -41.849  61.123 -58.293  1.00  0.00     0.008 A 
HETATM   25  C   UNL     1     -42.016  60.814 -56.914  1.00  0.00     0.017 A 
ENDBRANCH  10  21
ENDBRANCH   2  10
BRANCH   1  26
HETATM   26  C   UNL     1     -43.321  56.002 -54.966  1.00  0.00     0.101 C 
HETATM   27  N   UNL     1     -42.947  55.145 -53.954  1.00  0.00    -0.351 N 
HETATM   28  C   UNL     1     -41.887  54.347 -54.339  1.00  0.00     0.043 C 
HETATM   29  H   UNL     1     -43.342  55.163 -53.019  1.00  0.00     0.166 HD
HETATM   30  C   UNL     1     -41.753  54.542 -55.704  1.00  0.00     0.033 C 
HETATM   31  C   UNL     1     -42.658  55.554 -56.097  1.00  0.00     0.037 C 
BRANCH  28  32
HETATM   32  C   UNL     1     -41.116  53.502 -53.413  1.00  0.00    -0.009 A 
HETATM   33  C   UNL     1     -41.020  53.793 -52.044  1.00  0.00     0.013 A 
HETATM   34  C   UNL     1     -40.243  53.000 -51.193  1.00  0.00     0.001 A 
HETATM   35  C   UNL     1     -39.551  51.901 -51.695  1.00  0.00     0.000 A 
HETATM   36  C   UNL     1     -39.639  51.591 -53.048  1.00  0.00     0.001 A 
HETATM   37  C   UNL     1     -40.415  52.386 -53.898  1.00  0.00     0.013 A 
ENDBRANCH  28  32
ENDBRANCH   1  26
TORSDOF 9
ENDMDL
MODEL 8
REMARK VINA RESULT:      -7.5      2.182      6.760
REMARK  9 active torsions:
REMARK  status: ('A' for Active; 'I' for Inactive)
REMARK    1  A    between atoms: C_4  and  C_5 
REMARK    2  A    between atoms: C_8  and  C_9 
REMARK       I    between atoms: C_9  and  N_10 
REMARK    3  A    between atoms: N_10  and  C_26 
REMARK    4  A    between atoms: N_10  and  C_11 
REMARK    5  A    between atoms: C_11  and  C_12 
REMARK    6  A    between atoms: C_11  and  C_21 
REMARK       I    between atoms: C_12  and  N_13 
REMARK    7  A    between atoms: N_13  and  C_14 
REMARK    8  A    between atoms: C_14  and  C_15 
REMARK    9  A    between atoms: C_26  and  C_27 
ROOT
HETATM    1  C   UNL     1     -44.961  58.172 -51.239  1.00  0.00     0.271 C 
HETATM    2  N   UNL     1     -43.907  58.022 -52.156  1.00  0.00    -0.324 N 
HETATM    3  O   UNL     1     -45.592  57.186 -50.855  1.00  0.00    -0.266 OA
ENDROOT
BRANCH   2   4
HETATM    4  C   UNL     1     -43.633  56.658 -52.621  1.00  0.00     0.173 C 
BRANCH   4   5
HETATM    5  C   UNL     1     -42.593  55.974 -51.787  1.00  0.00     0.000 A 
HETATM    6  S   UNL     1     -41.403  54.989 -52.535  1.00  0.00    -0.105 SA
HETATM    7  C   UNL     1     -40.615  54.693 -51.048  1.00  0.00     0.050 A 
HETATM    8  C   UNL     1     -41.230  55.342 -50.001  1.00  0.00     0.008 A 
HETATM    9  C   UNL     1     -42.370  56.083 -50.427  1.00  0.00     0.017 A 
ENDBRANCH   4   5
ENDBRANCH   2   4
BRANCH   2  10
HETATM   10  C   UNL     1     -43.077  59.132 -52.673  1.00  0.00     0.220 C 
BRANCH  10  11
HETATM   11  C   UNL     1     -43.163  59.237 -54.219  1.00  0.00     0.245 C 
HETATM   12  N   UNL     1     -42.767  58.183 -54.998  1.00  0.00    -0.357 N 
HETATM   13  H   UNL     1     -42.199  57.456 -54.578  1.00  0.00     0.162 HD
HETATM   14  O   UNL     1     -43.703  60.224 -54.739  1.00  0.00    -0.271 OA
BRANCH  12  15
HETATM   15  C   UNL     1     -42.771  58.254 -56.451  1.00  0.00     0.154 C 
BRANCH  15  16
HETATM   16  C   UNL     1     -43.707  57.209 -57.073  1.00  0.00     0.139 C 
HETATM   17  O   UNL     1     -44.279  57.743 -58.289  1.00  0.00    -0.384 OA
HETATM   18  C   UNL     1     -44.260  56.701 -59.269  1.00  0.00     0.168 C 
HETATM   19  C   UNL     1     -43.022  55.897 -58.958  1.00  0.00     0.029 C 
HETATM   20  C   UNL     1     -42.996  55.911 -57.448  1.00  0.00     0.035 C 
ENDBRANCH  15  16
ENDBRANCH  12  15
ENDBRANCH  10  11
BRANCH  10  21
HETATM   21  C   UNL     1     -41.723  59.219 -51.984  1.00  0.00     0.014 A 
HETATM   22  S   UNL     1     -40.225  58.771 -52.686  1.00  0.00    -0.104 SA
HETATM   23  C   UNL     1     -39.343  59.181 -51.286  1.00  0.00     0.050 A 
HETATM   24  C   UNL     1     -40.159  59.650 -50.285  1.00  0.00     0.008 A 
HETATM   25  C   UNL     1     -41.524  59.670 -50.685  1.00  0.00     0.017 A 
ENDBRANCH  10  21
ENDBRANCH   2  10
BRANCH   1  26
HETATM   26  C   UNL     1     -45.260  59.473 -50.663  1.00  0.00     0.101 C 
HETATM   27  N   UNL     1     -44.807  59.992 -49.470  1.00  0.00    -0.351 N 
HETATM   28  C   UNL     1     -45.412  61.201 -49.187  1.00  0.00     0.043 C 
HETATM   29  H   UNL     1     -44.178  59.504 -48.840  1.00  0.00     0.166 HD
HETATM   30  C   UNL     1     -46.078  61.562 -50.347  1.00  0.00     0.033 C 
HETATM   31  C   UNL     1     -45.966  60.498 -51.271  1.00  0.00     0.037 C 
BRANCH  28  32
HETATM   32  C   UNL     1     -45.314  61.885 -47.887  1.00  0.00    -0.009 A 
HETATM   33  C   UNL     1     -45.300  63.283 -47.781  1.00  0.00     0.013 A 
HETATM   34  C   UNL     1     -45.159  63.909 -46.537  1.00  0.00     0.001 A 
HETATM   35  C   UNL     1     -45.032  63.148 -45.379  1.00  0.00     0.000 A 
HETATM   36  C   UNL     1     -45.050  61.760 -45.463  1.00  0.00     0.001 A 
HETATM   37  C   UNL     1     -45.189  61.136 -46.706  1.00  0.00     0.013 A 
ENDBRANCH  28  32
ENDBRANCH   1  26
TORSDOF 9
ENDMDL
MODEL 9
REMARK VINA RESULT:      -7.5      3.675      5.890
REMARK  9 active torsions:
REMARK  status: ('A' for Active; 'I' for Inactive)
REMARK    1  A    between atoms: C_4  and  C_5 
REMARK    2  A    between atoms: C_8  and  C_9 
REMARK       I    between atoms: C_9  and  N_10 
REMARK    3  A    between atoms: N_10  and  C_26 
REMARK    4  A    between atoms: N_10  and  C_11 
REMARK    5  A    between atoms: C_11  and  C_12 
REMARK    6  A    between atoms: C_11  and  C_21 
REMARK       I    between atoms: C_12  and  N_13 
REMARK    7  A    between atoms: N_13  and  C_14 
REMARK    8  A    between atoms: C_14  and  C_15 
REMARK    9  A    between atoms: C_26  and  C_27 
ROOT
HETATM    1  C   UNL     1     -44.142  57.600 -55.401  1.00  0.00     0.271 C 
HETATM    2  N   UNL     1     -44.313  57.616 -56.795  1.00  0.00    -0.324 N 
HETATM    3  O   UNL     1     -45.047  57.992 -54.661  1.00  0.00    -0.266 OA
ENDROOT
BRANCH   2   4
HETATM    4  C   UNL     1     -45.593  58.133 -57.291  1.00  0.00     0.173 C 
BRANCH   4   5
HETATM    5  C   UNL     1     -45.550  59.611 -57.534  1.00  0.00     0.000 A 
HETATM    6  S   UNL     1     -45.675  60.223 -59.133  1.00  0.00    -0.105 SA
HETATM    7  C   UNL     1     -45.646  61.842 -58.588  1.00  0.00     0.050 A 
HETATM    8  C   UNL     1     -45.560  61.923 -57.217  1.00  0.00     0.008 A 
HETATM    9  C   UNL     1     -45.507  60.636 -56.608  1.00  0.00     0.017 A 
ENDBRANCH   4   5
ENDBRANCH   2   4
BRANCH   2  10
HETATM   10  C   UNL     1     -43.301  57.160 -57.772  1.00  0.00     0.220 C 
BRANCH  10  11
HETATM   11  C   UNL     1     -42.321  58.299 -58.155  1.00  0.00     0.245 C 
HETATM   12  N   UNL     1     -42.251  59.428 -57.383  1.00  0.00    -0.357 N 
HETATM   13  H   UNL     1     -43.001  59.614 -56.727  1.00  0.00     0.162 HD
HETATM   14  O   UNL     1     -41.517  58.134 -59.084  1.00  0.00    -0.271 OA
BRANCH  12  15
HETATM   15  C   UNL     1     -41.392  60.549 -57.732  1.00  0.00     0.154 C 
BRANCH  15  16
HETATM   16  C   UNL     1     -42.111  61.562 -58.632  1.00  0.00     0.139 C 
HETATM   17  O   UNL     1     -41.731  62.902 -58.242  1.00  0.00    -0.384 OA
HETATM   18  C   UNL     1     -41.510  63.654 -59.439  1.00  0.00     0.168 C 
HETATM   19  C   UNL     1     -40.963  62.656 -60.430  1.00  0.00     0.029 C 
HETATM   20  C   UNL     1     -41.758  61.412 -60.110  1.00  0.00     0.035 C 
ENDBRANCH  15  16
ENDBRANCH  12  15
ENDBRANCH  10  11
BRANCH  10  21
HETATM   21  C   UNL     1     -43.897  56.279 -58.861  1.00  0.00     0.014 A 
HETATM   22  S   UNL     1     -44.513  56.838 -60.360  1.00  0.00    -0.104 SA
HETATM   23  C   UNL     1     -44.930  55.269 -60.878  1.00  0.00     0.050 A 
HETATM   24  C   UNL     1     -44.619  54.318 -59.936  1.00  0.00     0.008 A 
HETATM   25  C   UNL     1     -44.027  54.898 -58.779  1.00  0.00     0.017 A 
ENDBRANCH  10  21
ENDBRANCH   2  10
BRANCH   1  26
HETATM   26  C   UNL     1     -42.939  57.037 -54.810  1.00  0.00     0.101 C 
HETATM   27  N   UNL     1     -42.552  55.715 -54.780  1.00  0.00    -0.351 N 
HETATM   28  C   UNL     1     -41.417  55.541 -54.012  1.00  0.00     0.043 C 
HETATM   29  H   UNL     1     -43.085  54.957 -55.196  1.00  0.00     0.166 HD
HETATM   30  C   UNL     1     -40.946  56.819 -53.754  1.00  0.00     0.033 C 
HETATM   31  C   UNL     1     -41.880  57.747 -54.268  1.00  0.00     0.037 C 
BRANCH  28  32
HETATM   32  C   UNL     1     -40.897  54.228 -53.599  1.00  0.00    -0.009 A 
HETATM   33  C   UNL     1     -40.621  53.924 -52.258  1.00  0.00     0.013 A 
HETATM   34  C   UNL     1     -40.083  52.684 -51.897  1.00  0.00     0.001 A 
HETATM   35  C   UNL     1     -39.815  51.725 -52.870  1.00  0.00     0.000 A 
HETATM   36  C   UNL     1     -40.087  52.005 -54.205  1.00  0.00     0.001 A 
HETATM   37  C   UNL     1     -40.623  53.245 -54.564  1.00  0.00     0.013 A 
ENDBRANCH  28  32
ENDBRANCH   1  26
TORSDOF 9
ENDMDL
MODEL 10
REMARK VINA RESULT:      -7.5      1.909      3.169
REMARK  9 active torsions:
REMARK  status: ('A' for Active; 'I' for Inactive)
REMARK    1  A    between atoms: C_4  and  C_5 
REMARK    2  A    between atoms: C_8  and  C_9 
REMARK       I    between atoms: C_9  and  N_10 
REMARK    3  A    between atoms: N_10  and  C_26 
REMARK    4  A    between atoms: N_10  and  C_11 
REMARK    5  A    between atoms: C_11  and  C_12 
REMARK    6  A    between atoms: C_11  and  C_21 
REMARK       I    between atoms: C_12  and  N_13 
REMARK    7  A    between atoms: N_13  and  C_14 
REMARK    8  A    between atoms: C_14  and  C_15 
REMARK    9  A    between atoms: C_26  and  C_27 
ROOT
HETATM    1  C   UNL     1     -41.278  58.478 -53.191  1.00  0.00     0.271 C 
HETATM    2  N   UNL     1     -42.481  59.027 -53.665  1.00  0.00    -0.324 N 
HETATM    3  O   UNL     1     -40.247  59.155 -53.189  1.00  0.00    -0.266 OA
ENDROOT
BRANCH   2   4
HETATM    4  C   UNL     1     -42.421  60.407 -54.158  1.00  0.00     0.173 C 
BRANCH   4   5
HETATM    5  C   UNL     1     -42.721  61.405 -53.082  1.00  0.00     0.000 A 
HETATM    6  S   UNL     1     -43.375  62.939 -53.490  1.00  0.00    -0.105 SA
HETATM    7  C   UNL     1     -43.507  63.395 -51.849  1.00  0.00     0.050 A 
HETATM    8  C   UNL     1     -43.080  62.399 -51.001  1.00  0.00     0.008 A 
HETATM    9  C   UNL     1     -42.628  61.250 -51.712  1.00  0.00     0.017 A 
ENDBRANCH   4   5
ENDBRANCH   2   4
BRANCH   2  10
HETATM   10  C   UNL     1     -43.775  58.312 -53.702  1.00  0.00     0.220 C 
BRANCH  10  11
HETATM   11  C   UNL     1     -44.206  57.986 -55.156  1.00  0.00     0.245 C 
HETATM   12  N   UNL     1     -43.260  57.689 -56.099  1.00  0.00    -0.357 N 
HETATM   13  H   UNL     1     -42.293  57.924 -55.907  1.00  0.00     0.162 HD
HETATM   14  O   UNL     1     -45.410  57.874 -55.430  1.00  0.00    -0.271 OA
BRANCH  12  15
HETATM   15  C   UNL     1     -43.608  57.435 -57.488  1.00  0.00     0.154 C 
BRANCH  15  16
HETATM   16  C   UNL     1     -42.412  57.643 -58.426  1.00  0.00     0.139 C 
HETATM   17  O   UNL     1     -42.828  57.405 -59.791  1.00  0.00    -0.384 OA
HETATM   18  C   UNL     1     -42.238  58.423 -60.606  1.00  0.00     0.168 C 
HETATM   19  C   UNL     1     -42.186  59.646 -59.724  1.00  0.00     0.029 C 
HETATM   20  C   UNL     1     -41.844  59.059 -58.374  1.00  0.00     0.035 C 
ENDBRANCH  15  16
ENDBRANCH  12  15
ENDBRANCH  10  11
BRANCH  10  21
HETATM   21  C   UNL     1     -44.789  58.888 -52.724  1.00  0.00     0.014 A 
HETATM   22  S   UNL     1     -45.016  58.363 -51.109  1.00  0.00    -0.104 SA
HETATM   23  C   UNL     1     -46.258  59.493 -50.819  1.00  0.00     0.050 A 
HETATM   24  C   UNL     1     -46.516  60.267 -51.926  1.00  0.00     0.008 A 
HETATM   25  C   UNL     1     -45.674  59.919 -53.018  1.00  0.00     0.017 A 
ENDBRANCH  10  21
ENDBRANCH   2  10
BRANCH   1  26
HETATM   26  C   UNL     1     -41.250  57.145 -52.612  1.00  0.00     0.101 C 
HETATM   27  N   UNL     1     -40.611  56.026 -53.100  1.00  0.00    -0.351 N 
HETATM   28  C   UNL     1     -40.922  54.905 -52.354  1.00  0.00     0.043 C 
HETATM   29  H   UNL     1     -40.055  56.014 -53.950  1.00  0.00     0.166 HD
HETATM   30  C   UNL     1     -41.579  55.379 -51.230  1.00  0.00     0.033 C 
HETATM   31  C   UNL     1     -41.764  56.773 -51.381  1.00  0.00     0.037 C 
BRANCH  28  32
HETATM   32  C   UNL     1     -40.585  53.531 -52.758  1.00  0.00    -0.009 A 
HETATM   33  C   UNL     1     -39.911  52.647 -51.902  1.00  0.00     0.013 A 
HETATM   34  C   UNL     1     -39.561  51.360 -52.326  1.00  0.00     0.001 A 
HETATM   35  C   UNL     1     -39.882  50.934 -53.612  1.00  0.00     0.000 A 
HETATM   36  C   UNL     1     -40.556  51.793 -54.473  1.00  0.00     0.001 A 
HETATM   37  C   UNL     1     -40.903  53.079 -54.048  1.00  0.00     0.013 A 
ENDBRANCH  28  32
ENDBRANCH   1  26
TORSDOF 9
ENDMDL
