MODEL 1
REMARK VINA RESULT:      -8.7      0.000      0.000
REMARK  2 active torsions:
REMARK  status: ('A' for Active; 'I' for Inactive)
REMARK    1  A    between atoms: C_6  and  C_8 
REMARK    2  A    between atoms: C_6  and  O_7 
ROOT
HETATM    1  C   UNL     1     -39.144  59.674 -50.586  1.00  0.00     0.048 C 
HETATM    2  C   UNL     1     -40.157  58.687 -51.088  1.00  0.00    -0.059 A 
HETATM    3  C   UNL     1     -40.811  57.820 -50.206  1.00  0.00     0.037 A 
HETATM    4  C   UNL     1     -41.737  56.945 -50.735  1.00  0.00     0.046 A 
HETATM    5  C   UNL     1     -42.045  56.886 -52.101  1.00  0.00     0.023 A 
HETATM    6  C   UNL     1     -43.135  55.847 -52.309  1.00  0.00     0.199 A 
HETATM    7  C   UNL     1     -43.351  55.310 -50.849  1.00  0.00     0.266 A 
HETATM    8  O   UNL     1     -44.141  54.468 -50.453  1.00  0.00    -0.269 OA
HETATM    9  N   UNL     1     -42.496  56.031 -50.018  1.00  0.00    -0.323 N 
HETATM   10  C   UNL     1     -41.423  57.760 -52.990  1.00  0.00    -0.049 A 
HETATM   11  C   UNL     1     -41.705  57.751 -54.462  1.00  0.00     0.049 C 
HETATM   12  C   UNL     1     -40.464  58.646 -52.466  1.00  0.00     0.014 A 
HETATM   13  H   UNL     1     -42.460  55.882 -49.021  1.00  0.00     0.169 HD
ENDROOT
BRANCH   6  14
HETATM   14  C   UNL     1     -42.617  54.785 -53.245  1.00  0.00     0.018 A 
HETATM   15  C   UNL     1     -41.577  53.808 -53.027  1.00  0.00     0.002 A 
HETATM   16  C   UNL     1     -41.489  53.019 -54.177  1.00  0.00     0.043 A 
HETATM   17  C   UNL     1     -40.703  53.505 -51.958  1.00  0.00     0.014 A 
HETATM   18  C   UNL     1     -40.589  51.955 -54.311  1.00  0.00     0.030 A 
HETATM   19  N   UNL     1     -42.425  53.490 -55.065  1.00  0.00    -0.365 N 
HETATM   20  C   UNL     1     -39.744  51.679 -53.234  1.00  0.00     0.002 A 
HETATM   21  C   UNL     1     -39.797  52.443 -52.074  1.00  0.00     0.001 A 
HETATM   22  H   UNL     1     -42.593  53.098 -55.982  1.00  0.00     0.165 HD
HETATM   23  C   UNL     1     -43.105  54.539 -54.522  1.00  0.00     0.100 A 
ENDBRANCH   6  14
BRANCH   6  24
HETATM   24  O   UNL     1     -44.314  56.489 -52.794  1.00  0.00    -0.371 OA
HETATM   25  H   UNL     1     -45.015  55.818 -52.780  1.00  0.00     0.212 HD
ENDBRANCH   6  24
TORSDOF 2
ENDMDL
MODEL 2
REMARK VINA RESULT:      -8.6      2.469      5.586
REMARK  2 active torsions:
REMARK  status: ('A' for Active; 'I' for Inactive)
REMARK    1  A    between atoms: C_6  and  C_8 
REMARK    2  A    between atoms: C_6  and  O_7 
ROOT
HETATM    1  C   UNL     1     -39.520  50.202 -54.299  1.00  0.00     0.048 C 
HETATM    2  C   UNL     1     -39.884  51.311 -53.355  1.00  0.00    -0.059 A 
HETATM    3  C   UNL     1     -39.948  51.086 -51.976  1.00  0.00     0.037 A 
HETATM    4  C   UNL     1     -40.278  52.153 -51.166  1.00  0.00     0.046 A 
HETATM    5  C   UNL     1     -40.553  53.436 -51.660  1.00  0.00     0.023 A 
HETATM    6  C   UNL     1     -40.828  54.360 -50.486  1.00  0.00     0.199 A 
HETATM    7  C   UNL     1     -40.706  53.378 -49.267  1.00  0.00     0.266 A 
HETATM    8  O   UNL     1     -40.817  53.619 -48.075  1.00  0.00    -0.269 OA
HETATM    9  N   UNL     1     -40.369  52.127 -49.782  1.00  0.00    -0.323 N 
HETATM   10  C   UNL     1     -40.468  53.684 -53.028  1.00  0.00    -0.049 A 
HETATM   11  C   UNL     1     -40.748  55.031 -53.623  1.00  0.00     0.049 C 
HETATM   12  C   UNL     1     -40.147  52.600 -53.867  1.00  0.00     0.014 A 
HETATM   13  H   UNL     1     -40.216  51.324 -49.192  1.00  0.00     0.169 HD
ENDROOT
BRANCH   6  14
HETATM   14  C   UNL     1     -42.217  54.927 -50.634  1.00  0.00     0.018 A 
HETATM   15  C   UNL     1     -42.621  56.290 -50.888  1.00  0.00     0.002 A 
HETATM   16  C   UNL     1     -44.016  56.307 -50.981  1.00  0.00     0.043 A 
HETATM   17  C   UNL     1     -41.940  57.516 -51.059  1.00  0.00     0.014 A 
HETATM   18  C   UNL     1     -44.753  57.470 -51.237  1.00  0.00     0.030 A 
HETATM   19  N   UNL     1     -44.452  55.019 -50.788  1.00  0.00    -0.365 N 
HETATM   20  C   UNL     1     -44.049  58.663 -51.407  1.00  0.00     0.002 A 
HETATM   21  C   UNL     1     -42.661  58.689 -51.318  1.00  0.00     0.001 A 
HETATM   22  H   UNL     1     -45.421  54.733 -50.814  1.00  0.00     0.165 HD
HETATM   23  C   UNL     1     -43.391  54.188 -50.583  1.00  0.00     0.100 A 
ENDBRANCH   6  14
BRANCH   6  24
HETATM   24  O   UNL     1     -39.819  55.368 -50.429  1.00  0.00    -0.371 OA
HETATM   25  H   UNL     1     -39.913  55.800 -49.565  1.00  0.00     0.212 HD
ENDBRANCH   6  24
TORSDOF 2
ENDMDL
MODEL 3
REMARK VINA RESULT:      -8.4      1.726      5.557
REMARK  2 active torsions:
REMARK  status: ('A' for Active; 'I' for Inactive)
REMARK    1  A    between atoms: C_6  and  C_8 
REMARK    2  A    between atoms: C_6  and  O_7 
ROOT
HETATM    1  C   UNL     1     -39.469  51.866 -53.989  1.00  0.00     0.048 C 
HETATM    2  C   UNL     1     -40.491  52.965 -53.954  1.00  0.00    -0.059 A 
HETATM    3  C   UNL     1     -40.526  53.942 -54.954  1.00  0.00     0.037 A 
HETATM    4  C   UNL     1     -41.498  54.918 -54.865  1.00  0.00     0.046 A 
HETATM    5  C   UNL     1     -42.438  54.972 -53.827  1.00  0.00     0.023 A 
HETATM    6  C   UNL     1     -43.374  56.142 -54.079  1.00  0.00     0.199 A 
HETATM    7  C   UNL     1     -42.778  56.753 -55.397  1.00  0.00     0.266 A 
HETATM    8  O   UNL     1     -43.175  57.708 -56.046  1.00  0.00    -0.269 OA
HETATM    9  N   UNL     1     -41.702  55.950 -55.769  1.00  0.00    -0.323 N 
HETATM   10  C   UNL     1     -42.435  53.992 -52.836  1.00  0.00    -0.049 A 
HETATM   11  C   UNL     1     -43.410  53.990 -51.698  1.00  0.00     0.049 C 
HETATM   12  C   UNL     1     -41.438  53.001 -52.907  1.00  0.00     0.014 A 
HETATM   13  H   UNL     1     -41.158  56.126 -56.600  1.00  0.00     0.169 HD
ENDROOT
BRANCH   6  14
HETATM   14  C   UNL     1     -43.286  57.091 -52.911  1.00  0.00     0.018 A 
HETATM   15  C   UNL     1     -42.152  57.849 -52.437  1.00  0.00     0.002 A 
HETATM   16  C   UNL     1     -42.580  58.614 -51.349  1.00  0.00     0.043 A 
HETATM   17  C   UNL     1     -40.800  57.971 -52.831  1.00  0.00     0.014 A 
HETATM   18  C   UNL     1     -41.739  59.486 -50.647  1.00  0.00     0.030 A 
HETATM   19  N   UNL     1     -43.911  58.338 -51.155  1.00  0.00    -0.365 N 
HETATM   20  C   UNL     1     -40.411  59.588 -51.066  1.00  0.00     0.002 A 
HETATM   21  C   UNL     1     -39.945  58.839 -52.142  1.00  0.00     0.001 A 
HETATM   22  H   UNL     1     -44.486  58.761 -50.440  1.00  0.00     0.165 HD
HETATM   23  C   UNL     1     -44.344  57.435 -52.080  1.00  0.00     0.100 A 
ENDBRANCH   6  14
BRANCH   6  24
HETATM   24  O   UNL     1     -44.696  55.652 -54.298  1.00  0.00    -0.371 OA
HETATM   25  H   UNL     1     -44.605  54.712 -54.525  1.00  0.00     0.212 HD
ENDBRANCH   6  24
TORSDOF 2
ENDMDL
MODEL 4
REMARK VINA RESULT:      -7.9      1.925      2.364
REMARK  2 active torsions:
REMARK  status: ('A' for Active; 'I' for Inactive)
REMARK    1  A    between atoms: C_6  and  C_8 
REMARK    2  A    between atoms: C_6  and  O_7 
ROOT
HETATM    1  C   UNL     1     -42.122  60.670 -52.618  1.00  0.00     0.048 C 
HETATM    2  C   UNL     1     -42.308  59.185 -52.503  1.00  0.00    -0.059 A 
HETATM    3  C   UNL     1     -43.120  58.640 -51.502  1.00  0.00     0.037 A 
HETATM    4  C   UNL     1     -43.254  57.267 -51.461  1.00  0.00     0.046 A 
HETATM    5  C   UNL     1     -42.617  56.406 -52.365  1.00  0.00     0.023 A 
HETATM    6  C   UNL     1     -43.030  54.978 -52.050  1.00  0.00     0.199 A 
HETATM    7  C   UNL     1     -43.962  55.180 -50.802  1.00  0.00     0.266 A 
HETATM    8  O   UNL     1     -44.579  54.342 -50.163  1.00  0.00    -0.269 OA
HETATM    9  N   UNL     1     -44.029  56.552 -50.561  1.00  0.00    -0.323 N 
HETATM   10  C   UNL     1     -41.827  56.933 -53.385  1.00  0.00    -0.049 A 
HETATM   11  C   UNL     1     -41.117  56.071 -54.384  1.00  0.00     0.049 C 
HETATM   12  C   UNL     1     -41.668  58.331 -53.427  1.00  0.00     0.014 A 
HETATM   13  H   UNL     1     -44.585  56.942 -49.815  1.00  0.00     0.169 HD
ENDROOT
BRANCH   6  14
HETATM   14  C   UNL     1     -41.794  54.179 -51.725  1.00  0.00     0.018 A 
HETATM   15  C   UNL     1     -41.116  53.186 -52.525  1.00  0.00     0.002 A 
HETATM   16  C   UNL     1     -39.995  52.759 -51.807  1.00  0.00     0.043 A 
HETATM   17  C   UNL     1     -41.336  52.611 -53.797  1.00  0.00     0.014 A 
HETATM   18  C   UNL     1     -39.093  51.803 -52.291  1.00  0.00     0.030 A 
HETATM   19  N   UNL     1     -39.984  53.449 -50.620  1.00  0.00    -0.365 N 
HETATM   20  C   UNL     1     -39.337  51.259 -53.553  1.00  0.00     0.002 A 
HETATM   21  C   UNL     1     -40.443  51.655 -54.297  1.00  0.00     0.001 A 
HETATM   22  H   UNL     1     -39.277  53.350 -49.906  1.00  0.00     0.165 HD
HETATM   23  C   UNL     1     -41.048  54.300 -50.560  1.00  0.00     0.100 A 
ENDBRANCH   6  14
BRANCH   6  24
HETATM   24  O   UNL     1     -43.764  54.443 -53.151  1.00  0.00    -0.371 OA
HETATM   25  H   UNL     1     -44.599  54.108 -52.785  1.00  0.00     0.212 HD
ENDBRANCH   6  24
TORSDOF 2
ENDMDL
MODEL 5
REMARK VINA RESULT:      -7.9      2.264      5.939
REMARK  2 active torsions:
REMARK  status: ('A' for Active; 'I' for Inactive)
REMARK    1  A    between atoms: C_6  and  C_8 
REMARK    2  A    between atoms: C_6  and  O_7 
ROOT
HETATM    1  C   UNL     1     -39.471  51.466 -53.573  1.00  0.00     0.048 C 
HETATM    2  C   UNL     1     -40.395  52.638 -53.739  1.00  0.00    -0.059 A 
HETATM    3  C   UNL     1     -40.523  53.280 -54.975  1.00  0.00     0.037 A 
HETATM    4  C   UNL     1     -41.398  54.344 -55.058  1.00  0.00     0.046 A 
HETATM    5  C   UNL     1     -42.150  54.806 -53.969  1.00  0.00     0.023 A 
HETATM    6  C   UNL     1     -43.031  55.951 -54.438  1.00  0.00     0.199 A 
HETATM    7  C   UNL     1     -42.616  56.080 -55.948  1.00  0.00     0.266 A 
HETATM    8  O   UNL     1     -43.046  56.844 -56.797  1.00  0.00    -0.269 OA
HETATM    9  N   UNL     1     -41.673  55.085 -56.197  1.00  0.00    -0.323 N 
HETATM   10  C   UNL     1     -42.055  54.162 -52.737  1.00  0.00    -0.049 A 
HETATM   11  C   UNL     1     -42.830  54.603 -51.533  1.00  0.00     0.049 C 
HETATM   12  C   UNL     1     -41.154  53.085 -52.635  1.00  0.00     0.014 A 
HETATM   13  H   UNL     1     -41.261  54.948 -57.108  1.00  0.00     0.169 HD
ENDROOT
BRANCH   6  14
HETATM   14  C   UNL     1     -42.689  57.182 -53.638  1.00  0.00     0.018 A 
HETATM   15  C   UNL     1     -43.499  57.901 -52.683  1.00  0.00     0.002 A 
HETATM   16  C   UNL     1     -42.726  58.951 -52.178  1.00  0.00     0.043 A 
HETATM   17  C   UNL     1     -44.814  57.760 -52.186  1.00  0.00     0.014 A 
HETATM   18  C   UNL     1     -43.192  59.851 -51.212  1.00  0.00     0.030 A 
HETATM   19  N   UNL     1     -41.501  58.887 -52.796  1.00  0.00    -0.365 N 
HETATM   20  C   UNL     1     -44.493  59.679 -50.737  1.00  0.00     0.002 A 
HETATM   21  C   UNL     1     -45.297  58.650 -51.218  1.00  0.00     0.001 A 
HETATM   22  H   UNL     1     -40.734  59.519 -52.613  1.00  0.00     0.165 HD
HETATM   23  C   UNL     1     -41.465  57.837 -53.665  1.00  0.00     0.100 A 
ENDBRANCH   6  14
BRANCH   6  24
HETATM   24  O   UNL     1     -44.402  55.574 -54.319  1.00  0.00    -0.371 OA
HETATM   25  H   UNL     1     -44.605  55.032 -55.098  1.00  0.00     0.212 HD
ENDBRANCH   6  24
TORSDOF 2
ENDMDL
MODEL 6
REMARK VINA RESULT:      -7.6      2.744      3.718
REMARK  2 active torsions:
REMARK  status: ('A' for Active; 'I' for Inactive)
REMARK    1  A    between atoms: C_6  and  C_8 
REMARK    2  A    between atoms: C_6  and  O_7 
ROOT
HETATM    1  C   UNL     1     -46.432  60.208 -51.626  1.00  0.00     0.048 C 
HETATM    2  C   UNL     1     -45.129  59.476 -51.765  1.00  0.00    -0.059 A 
HETATM    3  C   UNL     1     -43.981  60.136 -52.216  1.00  0.00     0.037 A 
HETATM    4  C   UNL     1     -42.815  59.405 -52.310  1.00  0.00     0.046 A 
HETATM    5  C   UNL     1     -42.733  58.045 -51.980  1.00  0.00     0.023 A 
HETATM    6  C   UNL     1     -41.295  57.587 -52.159  1.00  0.00     0.199 A 
HETATM    7  C   UNL     1     -40.603  58.897 -52.680  1.00  0.00     0.266 A 
HETATM    8  O   UNL     1     -39.429  59.082 -52.962  1.00  0.00    -0.269 OA
HETATM    9  N   UNL     1     -41.580  59.890 -52.713  1.00  0.00    -0.323 N 
HETATM   10  C   UNL     1     -43.860  57.378 -51.504  1.00  0.00    -0.049 A 
HETATM   11  C   UNL     1     -43.843  55.926 -51.134  1.00  0.00     0.049 C 
HETATM   12  C   UNL     1     -45.060  58.109 -51.419  1.00  0.00     0.014 A 
HETATM   13  H   UNL     1     -41.379  60.836 -53.000  1.00  0.00     0.169 HD
ENDROOT
BRANCH   6  14
HETATM   14  C   UNL     1     -41.266  56.474 -53.174  1.00  0.00     0.018 A 
HETATM   15  C   UNL     1     -40.940  55.079 -52.987  1.00  0.00     0.002 A 
HETATM   16  C   UNL     1     -41.094  54.440 -54.221  1.00  0.00     0.043 A 
HETATM   17  C   UNL     1     -40.538  54.289 -51.887  1.00  0.00     0.014 A 
HETATM   18  C   UNL     1     -40.875  53.070 -54.407  1.00  0.00     0.030 A 
HETATM   19  N   UNL     1     -41.490  55.394 -55.127  1.00  0.00    -0.365 N 
HETATM   20  C   UNL     1     -40.484  52.317 -53.298  1.00  0.00     0.002 A 
HETATM   21  C   UNL     1     -40.315  52.916 -52.054  1.00  0.00     0.001 A 
HETATM   22  H   UNL     1     -41.688  55.211 -56.101  1.00  0.00     0.165 HD
HETATM   23  C   UNL     1     -41.598  56.608 -54.516  1.00  0.00     0.100 A 
ENDBRANCH   6  14
BRANCH   6  24
HETATM   24  O   UNL     1     -40.761  57.200 -50.893  1.00  0.00    -0.371 OA
HETATM   25  H   UNL     1     -39.971  57.745 -50.752  1.00  0.00     0.212 HD
ENDBRANCH   6  24
TORSDOF 2
ENDMDL
MODEL 7
REMARK VINA RESULT:      -7.5      2.585      4.413
REMARK  2 active torsions:
REMARK  status: ('A' for Active; 'I' for Inactive)
REMARK    1  A    between atoms: C_6  and  C_8 
REMARK    2  A    between atoms: C_6  and  O_7 
ROOT
HETATM    1  C   UNL     1     -45.431  58.783 -56.085  1.00  0.00     0.048 C 
HETATM    2  C   UNL     1     -44.491  58.598 -54.929  1.00  0.00    -0.059 A 
HETATM    3  C   UNL     1     -43.161  59.022 -55.014  1.00  0.00     0.037 A 
HETATM    4  C   UNL     1     -42.354  58.830 -53.910  1.00  0.00     0.046 A 
HETATM    5  C   UNL     1     -42.805  58.232 -52.725  1.00  0.00     0.023 A 
HETATM    6  C   UNL     1     -41.666  58.230 -51.719  1.00  0.00     0.199 A 
HETATM    7  C   UNL     1     -40.502  58.882 -52.548  1.00  0.00     0.266 A 
HETATM    8  O   UNL     1     -39.361  59.136 -52.196  1.00  0.00    -0.269 OA
HETATM    9  N   UNL     1     -41.023  59.202 -53.800  1.00  0.00    -0.323 N 
HETATM   10  C   UNL     1     -44.133  57.827 -52.614  1.00  0.00    -0.049 A 
HETATM   11  C   UNL     1     -44.681  57.182 -51.377  1.00  0.00     0.049 C 
HETATM   12  C   UNL     1     -44.962  58.003 -53.738  1.00  0.00     0.014 A 
HETATM   13  H   UNL     1     -40.472  59.651 -54.515  1.00  0.00     0.169 HD
ENDROOT
BRANCH   6  14
HETATM   14  C   UNL     1     -41.370  56.805 -51.328  1.00  0.00     0.018 A 
HETATM   15  C   UNL     1     -41.111  55.664 -52.174  1.00  0.00     0.002 A 
HETATM   16  C   UNL     1     -40.853  54.571 -51.342  1.00  0.00     0.043 A 
HETATM   17  C   UNL     1     -41.061  55.450 -53.570  1.00  0.00     0.014 A 
HETATM   18  C   UNL     1     -40.545  53.294 -51.828  1.00  0.00     0.030 A 
HETATM   19  N   UNL     1     -40.952  55.013 -50.046  1.00  0.00    -0.365 N 
HETATM   20  C   UNL     1     -40.498  53.118 -53.212  1.00  0.00     0.002 A 
HETATM   21  C   UNL     1     -40.754  54.179 -54.073  1.00  0.00     0.001 A 
HETATM   22  H   UNL     1     -40.801  54.436 -49.230  1.00  0.00     0.165 HD
HETATM   23  C   UNL     1     -41.257  56.342 -50.024  1.00  0.00     0.100 A 
ENDBRANCH   6  14
BRANCH   6  24
HETATM   24  O   UNL     1     -42.018  59.050 -50.605  1.00  0.00    -0.371 OA
HETATM   25  H   UNL     1     -42.896  59.415 -50.801  1.00  0.00     0.212 HD
ENDBRANCH   6  24
TORSDOF 2
ENDMDL
MODEL 8
REMARK VINA RESULT:      -7.4      2.223      5.236
REMARK  2 active torsions:
REMARK  status: ('A' for Active; 'I' for Inactive)
REMARK    1  A    between atoms: C_6  and  C_8 
REMARK    2  A    between atoms: C_6  and  O_7 
ROOT
HETATM    1  C   UNL     1     -39.490  50.669 -52.276  1.00  0.00     0.048 C 
HETATM    2  C   UNL     1     -39.996  52.067 -52.484  1.00  0.00    -0.059 A 
HETATM    3  C   UNL     1     -40.283  52.895 -51.393  1.00  0.00     0.037 A 
HETATM    4  C   UNL     1     -40.735  54.171 -51.658  1.00  0.00     0.046 A 
HETATM    5  C   UNL     1     -40.921  54.667 -52.956  1.00  0.00     0.023 A 
HETATM    6  C   UNL     1     -41.378  56.113 -52.864  1.00  0.00     0.199 A 
HETATM    7  C   UNL     1     -41.458  56.327 -51.310  1.00  0.00     0.266 A 
HETATM    8  O   UNL     1     -41.759  57.335 -50.691  1.00  0.00    -0.269 OA
HETATM    9  N   UNL     1     -41.048  55.137 -50.713  1.00  0.00    -0.323 N 
HETATM   10  C   UNL     1     -40.615  53.865 -54.054  1.00  0.00    -0.049 A 
HETATM   11  C   UNL     1     -40.790  54.331 -55.468  1.00  0.00     0.049 C 
HETATM   12  C   UNL     1     -40.168  52.555 -53.798  1.00  0.00     0.014 A 
HETATM   13  H   UNL     1     -40.995  55.025 -49.711  1.00  0.00     0.169 HD
ENDROOT
BRANCH   6  14
HETATM   14  C   UNL     1     -42.722  56.237 -53.535  1.00  0.00     0.018 A 
HETATM   15  C   UNL     1     -43.327  57.393 -54.154  1.00  0.00     0.002 A 
HETATM   16  C   UNL     1     -44.564  56.997 -54.670  1.00  0.00     0.043 A 
HETATM   17  C   UNL     1     -42.943  58.740 -54.337  1.00  0.00     0.014 A 
HETATM   18  C   UNL     1     -45.422  57.866 -55.356  1.00  0.00     0.030 A 
HETATM   19  N   UNL     1     -44.719  55.664 -54.380  1.00  0.00    -0.365 N 
HETATM   20  C   UNL     1     -45.010  59.189 -55.525  1.00  0.00     0.002 A 
HETATM   21  C   UNL     1     -43.788  59.623 -55.022  1.00  0.00     0.001 A 
HETATM   22  H   UNL     1     -45.520  55.108 -54.646  1.00  0.00     0.165 HD
HETATM   23  C   UNL     1     -43.628  55.199 -53.706  1.00  0.00     0.100 A 
ENDBRANCH   6  14
BRANCH   6  24
HETATM   24  O   UNL     1     -40.387  56.961 -53.443  1.00  0.00    -0.371 OA
HETATM   25  H   UNL     1     -40.359  57.761 -52.896  1.00  0.00     0.212 HD
ENDBRANCH   6  24
TORSDOF 2
ENDMDL
MODEL 9
REMARK VINA RESULT:      -7.3      2.222      3.464
REMARK  2 active torsions:
REMARK  status: ('A' for Active; 'I' for Inactive)
REMARK    1  A    between atoms: C_6  and  C_8 
REMARK    2  A    between atoms: C_6  and  O_7 
ROOT
HETATM    1  C   UNL     1     -45.032  60.273 -52.645  1.00  0.00     0.048 C 
HETATM    2  C   UNL     1     -44.245  59.061 -53.051  1.00  0.00    -0.059 A 
HETATM    3  C   UNL     1     -44.873  57.970 -53.661  1.00  0.00     0.037 A 
HETATM    4  C   UNL     1     -44.086  56.893 -54.017  1.00  0.00     0.046 A 
HETATM    5  C   UNL     1     -42.703  56.845 -53.793  1.00  0.00     0.023 A 
HETATM    6  C   UNL     1     -42.165  55.539 -54.353  1.00  0.00     0.199 A 
HETATM    7  C   UNL     1     -43.474  54.852 -54.883  1.00  0.00     0.266 A 
HETATM    8  O   UNL     1     -43.599  53.779 -55.452  1.00  0.00    -0.269 OA
HETATM    9  N   UNL     1     -44.524  55.738 -54.647  1.00  0.00    -0.323 N 
HETATM   10  C   UNL     1     -42.057  57.934 -53.211  1.00  0.00    -0.049 A 
HETATM   11  C   UNL     1     -40.583  57.949 -52.942  1.00  0.00     0.049 C 
HETATM   12  C   UNL     1     -42.851  59.032 -52.828  1.00  0.00     0.014 A 
HETATM   13  H   UNL     1     -45.474  55.533 -54.916  1.00  0.00     0.169 HD
ENDROOT
BRANCH   6  14
HETATM   14  C   UNL     1     -41.519  54.764 -53.233  1.00  0.00     0.018 A 
HETATM   15  C   UNL     1     -40.821  53.501 -53.285  1.00  0.00     0.002 A 
HETATM   16  C   UNL     1     -40.369  53.215 -51.993  1.00  0.00     0.043 A 
HETATM   17  C   UNL     1     -40.518  52.571 -54.305  1.00  0.00     0.014 A 
HETATM   18  C   UNL     1     -39.635  52.065 -51.675  1.00  0.00     0.030 A 
HETATM   19  N   UNL     1     -40.772  54.247 -51.183  1.00  0.00    -0.365 N 
HETATM   20  C   UNL     1     -39.347  51.171 -52.708  1.00  0.00     0.002 A 
HETATM   21  C   UNL     1     -39.783  51.417 -54.005  1.00  0.00     0.001 A 
HETATM   22  H   UNL     1     -40.572  54.311 -50.194  1.00  0.00     0.165 HD
HETATM   23  C   UNL     1     -41.455  55.177 -51.909  1.00  0.00     0.100 A 
ENDBRANCH   6  14
BRANCH   6  24
HETATM   24  O   UNL     1     -41.267  55.818 -55.426  1.00  0.00    -0.371 OA
HETATM   25  H   UNL     1     -41.354  55.082 -56.053  1.00  0.00     0.212 HD
ENDBRANCH   6  24
TORSDOF 2
ENDMDL
MODEL 10
REMARK VINA RESULT:      -7.3     14.931     17.356
REMARK  2 active torsions:
REMARK  status: ('A' for Active; 'I' for Inactive)
REMARK    1  A    between atoms: C_6  and  C_8 
REMARK    2  A    between atoms: C_6  and  O_7 
ROOT
HETATM    1  C   UNL     1     -37.574  41.332 -59.779  1.00  0.00     0.048 C 
HETATM    2  C   UNL     1     -37.208  41.038 -58.353  1.00  0.00    -0.059 A 
HETATM    3  C   UNL     1     -37.014  42.076 -57.435  1.00  0.00     0.037 A 
HETATM    4  C   UNL     1     -36.689  41.733 -56.139  1.00  0.00     0.046 A 
HETATM    5  C   UNL     1     -36.543  40.407 -55.708  1.00  0.00     0.023 A 
HETATM    6  C   UNL     1     -36.233  40.410 -54.221  1.00  0.00     0.199 A 
HETATM    7  C   UNL     1     -36.186  41.948 -53.905  1.00  0.00     0.266 A 
HETATM    8  O   UNL     1     -35.993  42.504 -52.835  1.00  0.00    -0.269 OA
HETATM    9  N   UNL     1     -36.481  42.617 -55.091  1.00  0.00    -0.323 N 
HETATM   10  C   UNL     1     -36.759  39.360 -56.602  1.00  0.00    -0.049 A 
HETATM   11  C   UNL     1     -36.620  37.921 -56.210  1.00  0.00     0.049 C 
HETATM   12  C   UNL     1     -37.075  39.697 -57.932  1.00  0.00     0.014 A 
HETATM   13  H   UNL     1     -36.530  43.623 -55.145  1.00  0.00     0.169 HD
ENDROOT
BRANCH   6  14
HETATM   14  C   UNL     1     -34.902  39.735 -54.004  1.00  0.00     0.018 A 
HETATM   15  C   UNL     1     -33.709  39.793 -54.816  1.00  0.00     0.002 A 
HETATM   16  C   UNL     1     -32.727  39.030 -54.178  1.00  0.00     0.043 A 
HETATM   17  C   UNL     1     -33.360  40.427 -56.030  1.00  0.00     0.014 A 
HETATM   18  C   UNL     1     -31.429  38.875 -54.682  1.00  0.00     0.030 A 
HETATM   19  N   UNL     1     -33.286  38.522 -53.032  1.00  0.00    -0.365 N 
HETATM   20  C   UNL     1     -31.115  39.520 -55.880  1.00  0.00     0.002 A 
HETATM   21  C   UNL     1     -32.066  40.284 -56.548  1.00  0.00     0.001 A 
HETATM   22  H   UNL     1     -32.798  37.940 -52.365  1.00  0.00     0.165 HD
HETATM   23  C   UNL     1     -34.580  38.936 -52.915  1.00  0.00     0.100 A 
ENDBRANCH   6  14
BRANCH   6  24
HETATM   24  O   UNL     1     -37.298  39.777 -53.513  1.00  0.00    -0.371 OA
HETATM   25  H   UNL     1     -37.683  39.127 -54.123  1.00  0.00     0.212 HD
ENDBRANCH   6  24
TORSDOF 2
ENDMDL
