MODEL 1
REMARK VINA RESULT:      -7.6      0.000      0.000
REMARK  4 active torsions:
REMARK  status: ('A' for Active; 'I' for Inactive)
REMARK    1  A    between atoms: C_5  and  C_6 
REMARK       I    between atoms: C_6  and  N_7 
REMARK    2  A    between atoms: N_7  and  C_8 
REMARK    3  A    between atoms: C_8  and  N_9 
REMARK    4  A    between atoms: N_9  and  C_10 
ROOT
HETATM    1  C   UNL     1     -40.661  54.452 -54.284  1.00  0.00     0.257 C 
HETATM    2  N   UNL     1     -41.985  54.873 -54.239  1.00  0.00    -0.299 N 
HETATM    3  O   UNL     1     -39.783  54.892 -55.017  1.00  0.00    -0.267 OA
HETATM    4  H   UNL     1     -42.646  54.187 -53.905  1.00  0.00     0.171 HD
ENDROOT
BRANCH   2   5
HETATM    5  C   UNL     1     -42.561  55.852 -54.990  1.00  0.00     0.180 C 
HETATM    6  S   UNL     1     -44.026  56.489 -54.489  1.00  0.00    -0.040 SA
BRANCH   5   7
HETATM    7  N   UNL     1     -42.012  56.287 -56.146  1.00  0.00    -0.318 N 
HETATM    8  H   UNL     1     -41.011  56.169 -56.219  1.00  0.00     0.170 HD
BRANCH   7   9
HETATM    9  C   UNL     1     -42.680  56.450 -57.372  1.00  0.00     0.129 A 
HETATM   10  N   UNL     1     -43.325  55.409 -57.942  1.00  0.00    -0.236 NA
HETATM   11  C   UNL     1     -43.860  55.593 -59.174  1.00  0.00     0.033 A 
HETATM   12  C   UNL     1     -44.546  54.420 -59.805  1.00  0.00     0.070 C 
HETATM   13  C   UNL     1     -43.746  56.789 -59.876  1.00  0.00     0.027 A 
HETATM   14  C   UNL     1     -43.075  57.848 -59.280  1.00  0.00     0.006 A 
HETATM   15  C   UNL     1     -42.531  57.677 -58.010  1.00  0.00     0.050 A 
ENDBRANCH   7   9
ENDBRANCH   5   7
ENDBRANCH   2   5
BRANCH   1  16
HETATM   16  C   UNL     1     -40.389  53.243 -53.462  1.00  0.00     0.032 A 
HETATM   17  C   UNL     1     -40.414  53.362 -52.068  1.00  0.00     0.017 A 
HETATM   18  C   UNL     1     -40.083  52.267 -51.267  1.00  0.00     0.007 A 
HETATM   19  C   UNL     1     -39.732  51.043 -51.850  1.00  0.00    -0.062 A 
HETATM   20  C   UNL     1     -39.379  49.861 -50.996  1.00  0.00     0.048 C 
HETATM   21  C   UNL     1     -39.746  50.921 -53.247  1.00  0.00     0.007 A 
HETATM   22  C   UNL     1     -40.070  52.016 -54.053  1.00  0.00     0.017 A 
ENDBRANCH   1  16
TORSDOF 4
ENDMDL
MODEL 2
REMARK VINA RESULT:      -7.4      0.946      2.169
REMARK  4 active torsions:
REMARK  status: ('A' for Active; 'I' for Inactive)
REMARK    1  A    between atoms: C_5  and  C_6 
REMARK       I    between atoms: C_6  and  N_7 
REMARK    2  A    between atoms: N_7  and  C_8 
REMARK    3  A    between atoms: C_8  and  N_9 
REMARK    4  A    between atoms: N_9  and  C_10 
ROOT
HETATM    1  C   UNL     1     -41.104  54.574 -54.278  1.00  0.00     0.257 C 
HETATM    2  N   UNL     1     -42.456  54.827 -54.074  1.00  0.00    -0.299 N 
HETATM    3  O   UNL     1     -40.387  55.094 -55.125  1.00  0.00    -0.267 OA
HETATM    4  H   UNL     1     -42.977  54.076 -53.645  1.00  0.00     0.171 HD
ENDROOT
BRANCH   2   5
HETATM    5  C   UNL     1     -43.240  55.700 -54.763  1.00  0.00     0.180 C 
HETATM    6  S   UNL     1     -43.886  57.013 -53.950  1.00  0.00    -0.040 SA
BRANCH   5   7
HETATM    7  N   UNL     1     -43.551  55.512 -56.065  1.00  0.00    -0.318 N 
HETATM    8  H   UNL     1     -44.446  55.075 -56.235  1.00  0.00     0.170 HD
BRANCH   7   9
HETATM    9  C   UNL     1     -43.023  56.224 -57.155  1.00  0.00     0.129 A 
HETATM   10  N   UNL     1     -42.577  57.489 -56.993  1.00  0.00    -0.236 NA
HETATM   11  C   UNL     1     -42.179  58.167 -58.098  1.00  0.00     0.033 A 
HETATM   12  C   UNL     1     -41.715  59.578 -57.905  1.00  0.00     0.070 C 
HETATM   13  C   UNL     1     -42.238  57.625 -59.378  1.00  0.00     0.027 A 
HETATM   14  C   UNL     1     -42.704  56.326 -59.530  1.00  0.00     0.006 A 
HETATM   15  C   UNL     1     -43.105  55.615 -58.403  1.00  0.00     0.050 A 
ENDBRANCH   7   9
ENDBRANCH   5   7
ENDBRANCH   2   5
BRANCH   1  16
HETATM   16  C   UNL     1     -40.580  53.437 -53.475  1.00  0.00     0.032 A 
HETATM   17  C   UNL     1     -40.174  52.277 -54.141  1.00  0.00     0.017 A 
HETATM   18  C   UNL     1     -39.754  51.162 -53.412  1.00  0.00     0.007 A 
HETATM   19  C   UNL     1     -39.729  51.199 -52.013  1.00  0.00    -0.062 A 
HETATM   20  C   UNL     1     -39.276  50.006 -51.223  1.00  0.00     0.048 C 
HETATM   21  C   UNL     1     -40.102  52.379 -51.352  1.00  0.00     0.007 A 
HETATM   22  C   UNL     1     -40.528  53.495 -52.077  1.00  0.00     0.017 A 
ENDBRANCH   1  16
TORSDOF 4
ENDMDL
MODEL 3
REMARK VINA RESULT:      -7.2      3.878      5.741
REMARK  4 active torsions:
REMARK  status: ('A' for Active; 'I' for Inactive)
REMARK    1  A    between atoms: C_5  and  C_6 
REMARK       I    between atoms: C_6  and  N_7 
REMARK    2  A    between atoms: N_7  and  C_8 
REMARK    3  A    between atoms: C_8  and  N_9 
REMARK    4  A    between atoms: N_9  and  C_10 
ROOT
HETATM    1  C   UNL     1     -41.577  54.713 -52.199  1.00  0.00     0.257 C 
HETATM    2  N   UNL     1     -42.638  55.152 -52.984  1.00  0.00    -0.299 N 
HETATM    3  O   UNL     1     -41.073  55.314 -51.257  1.00  0.00    -0.267 OA
HETATM    4  H   UNL     1     -42.672  54.768 -53.918  1.00  0.00     0.171 HD
ENDROOT
BRANCH   2   5
HETATM    5  C   UNL     1     -43.323  56.321 -52.859  1.00  0.00     0.180 C 
HETATM    6  S   UNL     1     -43.968  57.024 -54.235  1.00  0.00    -0.040 SA
BRANCH   5   7
HETATM    7  N   UNL     1     -43.455  56.952 -51.671  1.00  0.00    -0.318 N 
HETATM    8  H   UNL     1     -43.639  56.350 -50.881  1.00  0.00     0.170 HD
BRANCH   7   9
HETATM    9  C   UNL     1     -42.940  58.219 -51.343  1.00  0.00     0.129 A 
HETATM   10  N   UNL     1     -41.623  58.376 -51.089  1.00  0.00    -0.236 NA
HETATM   11  C   UNL     1     -41.199  59.595 -50.671  1.00  0.00     0.033 A 
HETATM   12  C   UNL     1     -39.740  59.744 -50.365  1.00  0.00     0.070 C 
HETATM   13  C   UNL     1     -42.064  60.667 -50.472  1.00  0.00     0.027 A 
HETATM   14  C   UNL     1     -43.415  60.489 -50.731  1.00  0.00     0.006 A 
HETATM   15  C   UNL     1     -43.862  59.246 -51.171  1.00  0.00     0.050 A 
ENDBRANCH   7   9
ENDBRANCH   5   7
ENDBRANCH   2   5
BRANCH   1  16
HETATM   16  C   UNL     1     -40.932  53.472 -52.704  1.00  0.00     0.032 A 
HETATM   17  C   UNL     1     -41.219  53.049 -54.006  1.00  0.00     0.017 A 
HETATM   18  C   UNL     1     -40.696  51.846 -54.482  1.00  0.00     0.007 A 
HETATM   19  C   UNL     1     -39.875  51.058 -53.666  1.00  0.00    -0.062 A 
HETATM   20  C   UNL     1     -39.305  49.766 -54.173  1.00  0.00     0.048 C 
HETATM   21  C   UNL     1     -39.559  51.507 -52.375  1.00  0.00     0.007 A 
HETATM   22  C   UNL     1     -40.086  52.707 -51.892  1.00  0.00     0.017 A 
ENDBRANCH   1  16
TORSDOF 4
ENDMDL
MODEL 4
REMARK VINA RESULT:      -7.2      3.753      5.819
REMARK  4 active torsions:
REMARK  status: ('A' for Active; 'I' for Inactive)
REMARK    1  A    between atoms: C_5  and  C_6 
REMARK       I    between atoms: C_6  and  N_7 
REMARK    2  A    between atoms: N_7  and  C_8 
REMARK    3  A    between atoms: C_8  and  N_9 
REMARK    4  A    between atoms: N_9  and  C_10 
ROOT
HETATM    1  C   UNL     1     -41.461  55.756 -53.003  1.00  0.00     0.257 C 
HETATM    2  N   UNL     1     -41.664  56.474 -54.177  1.00  0.00    -0.299 N 
HETATM    3  O   UNL     1     -41.580  56.184 -51.861  1.00  0.00    -0.267 OA
HETATM    4  H   UNL     1     -41.161  56.133 -54.984  1.00  0.00     0.171 HD
ENDROOT
BRANCH   2   5
HETATM    5  C   UNL     1     -42.036  57.778 -54.287  1.00  0.00     0.180 C 
HETATM    6  S   UNL     1     -43.557  58.129 -54.894  1.00  0.00    -0.040 SA
BRANCH   5   7
HETATM    7  N   UNL     1     -41.202  58.793 -53.970  1.00  0.00    -0.318 N 
HETATM    8  H   UNL     1     -41.076  59.488 -54.692  1.00  0.00     0.170 HD
BRANCH   7   9
HETATM    9  C   UNL     1     -40.869  59.218 -52.672  1.00  0.00     0.129 A 
HETATM   10  N   UNL     1     -39.599  59.118 -52.225  1.00  0.00    -0.236 NA
HETATM   11  C   UNL     1     -39.355  59.441 -50.931  1.00  0.00     0.033 A 
HETATM   12  C   UNL     1     -37.945  59.297 -50.443  1.00  0.00     0.070 C 
HETATM   13  C   UNL     1     -40.357  59.840 -50.051  1.00  0.00     0.027 A 
HETATM   14  C   UNL     1     -41.658  59.932 -50.523  1.00  0.00     0.006 A 
HETATM   15  C   UNL     1     -41.921  59.614 -51.852  1.00  0.00     0.050 A 
ENDBRANCH   7   9
ENDBRANCH   5   7
ENDBRANCH   2   5
BRANCH   1  16
HETATM   16  C   UNL     1     -40.889  54.401 -53.221  1.00  0.00     0.032 A 
HETATM   17  C   UNL     1     -40.751  53.935 -54.532  1.00  0.00     0.017 A 
HETATM   18  C   UNL     1     -40.294  52.637 -54.769  1.00  0.00     0.007 A 
HETATM   19  C   UNL     1     -39.964  51.796 -53.699  1.00  0.00    -0.062 A 
HETATM   20  C   UNL     1     -39.467  50.401 -53.946  1.00  0.00     0.048 C 
HETATM   21  C   UNL     1     -40.067  52.283 -52.388  1.00  0.00     0.007 A 
HETATM   22  C   UNL     1     -40.530  53.579 -52.146  1.00  0.00     0.017 A 
ENDBRANCH   1  16
TORSDOF 4
ENDMDL
MODEL 5
REMARK VINA RESULT:      -7.2      1.721      2.542
REMARK  4 active torsions:
REMARK  status: ('A' for Active; 'I' for Inactive)
REMARK    1  A    between atoms: C_5  and  C_6 
REMARK       I    between atoms: C_6  and  N_7 
REMARK    2  A    between atoms: N_7  and  C_8 
REMARK    3  A    between atoms: C_8  and  N_9 
REMARK    4  A    between atoms: N_9  and  C_10 
ROOT
HETATM    1  C   UNL     1     -42.217  54.828 -55.582  1.00  0.00     0.257 C 
HETATM    2  N   UNL     1     -41.753  56.129 -55.748  1.00  0.00    -0.299 N 
HETATM    3  O   UNL     1     -43.209  54.339 -56.108  1.00  0.00    -0.267 OA
HETATM    4  H   UNL     1     -41.202  56.492 -54.983  1.00  0.00     0.171 HD
ENDROOT
BRANCH   2   5
HETATM    5  C   UNL     1     -42.302  57.103 -56.524  1.00  0.00     0.180 C 
HETATM    6  S   UNL     1     -43.051  58.399 -55.774  1.00  0.00    -0.040 SA
BRANCH   5   7
HETATM    7  N   UNL     1     -42.302  57.031 -57.874  1.00  0.00    -0.318 N 
HETATM    8  H   UNL     1     -41.392  56.926 -58.299  1.00  0.00     0.170 HD
BRANCH   7   9
HETATM    9  C   UNL     1     -43.383  56.642 -58.683  1.00  0.00     0.129 A 
HETATM   10  N   UNL     1     -44.538  57.342 -58.662  1.00  0.00    -0.236 NA
HETATM   11  C   UNL     1     -45.584  56.861 -59.379  1.00  0.00     0.033 A 
HETATM   12  C   UNL     1     -46.867  57.633 -59.321  1.00  0.00     0.070 C 
HETATM   13  C   UNL     1     -45.520  55.675 -60.104  1.00  0.00     0.027 A 
HETATM   14  C   UNL     1     -44.329  54.964 -60.112  1.00  0.00     0.006 A 
HETATM   15  C   UNL     1     -43.244  55.452 -59.389  1.00  0.00     0.050 A 
ENDBRANCH   7   9
ENDBRANCH   5   7
ENDBRANCH   2   5
BRANCH   1  16
HETATM   16  C   UNL     1     -41.495  54.065 -54.530  1.00  0.00     0.032 A 
HETATM   17  C   UNL     1     -40.542  53.119 -54.923  1.00  0.00     0.017 A 
HETATM   18  C   UNL     1     -39.906  52.328 -53.965  1.00  0.00     0.007 A 
HETATM   19  C   UNL     1     -40.210  52.478 -52.606  1.00  0.00    -0.062 A 
HETATM   20  C   UNL     1     -39.526  51.634 -51.570  1.00  0.00     0.048 C 
HETATM   21  C   UNL     1     -41.138  53.454 -52.216  1.00  0.00     0.007 A 
HETATM   22  C   UNL     1     -41.782  54.244 -53.172  1.00  0.00     0.017 A 
ENDBRANCH   1  16
TORSDOF 4
ENDMDL
MODEL 6
REMARK VINA RESULT:      -7.2      2.026      2.727
REMARK  4 active torsions:
REMARK  status: ('A' for Active; 'I' for Inactive)
REMARK    1  A    between atoms: C_5  and  C_6 
REMARK       I    between atoms: C_6  and  N_7 
REMARK    2  A    between atoms: N_7  and  C_8 
REMARK    3  A    between atoms: C_8  and  N_9 
REMARK    4  A    between atoms: N_9  and  C_10 
ROOT
HETATM    1  C   UNL     1     -41.370  54.835 -51.938  1.00  0.00     0.257 C 
HETATM    2  N   UNL     1     -42.331  55.504 -52.689  1.00  0.00    -0.299 N 
HETATM    3  O   UNL     1     -40.793  55.266 -50.947  1.00  0.00    -0.267 OA
HETATM    4  H   UNL     1     -42.410  55.209 -53.651  1.00  0.00     0.171 HD
ENDROOT
BRANCH   2   5
HETATM    5  C   UNL     1     -42.819  56.755 -52.469  1.00  0.00     0.180 C 
HETATM    6  S   UNL     1     -43.977  56.966 -51.278  1.00  0.00    -0.040 SA
BRANCH   5   7
HETATM    7  N   UNL     1     -42.434  57.817 -53.211  1.00  0.00    -0.318 N 
HETATM    8  H   UNL     1     -41.750  58.421 -52.777  1.00  0.00     0.170 HD
BRANCH   7   9
HETATM    9  C   UNL     1     -42.518  57.925 -54.610  1.00  0.00     0.129 A 
HETATM   10  N   UNL     1     -42.776  56.835 -55.365  1.00  0.00    -0.236 NA
HETATM   11  C   UNL     1     -42.737  56.974 -56.713  1.00  0.00     0.033 A 
HETATM   12  C   UNL     1     -42.997  55.749 -57.536  1.00  0.00     0.070 C 
HETATM   13  C   UNL     1     -42.418  58.175 -57.339  1.00  0.00     0.027 A 
HETATM   14  C   UNL     1     -42.149  59.285 -56.550  1.00  0.00     0.006 A 
HETATM   15  C   UNL     1     -42.196  59.159 -55.166  1.00  0.00     0.050 A 
ENDBRANCH   7   9
ENDBRANCH   5   7
ENDBRANCH   2   5
BRANCH   1  16
HETATM   16  C   UNL     1     -40.926  53.551 -52.542  1.00  0.00     0.032 A 
HETATM   17  C   UNL     1     -40.066  52.727 -51.809  1.00  0.00     0.017 A 
HETATM   18  C   UNL     1     -39.565  51.555 -52.378  1.00  0.00     0.007 A 
HETATM   19  C   UNL     1     -39.925  51.191 -53.681  1.00  0.00    -0.062 A 
HETATM   20  C   UNL     1     -39.394  49.930 -54.298  1.00  0.00     0.048 C 
HETATM   21  C   UNL     1     -40.818  52.001 -54.397  1.00  0.00     0.007 A 
HETATM   22  C   UNL     1     -41.317  53.178 -53.834  1.00  0.00     0.017 A 
ENDBRANCH   1  16
TORSDOF 4
ENDMDL
MODEL 7
REMARK VINA RESULT:      -7.1      4.111      5.670
REMARK  4 active torsions:
REMARK  status: ('A' for Active; 'I' for Inactive)
REMARK    1  A    between atoms: C_5  and  C_6 
REMARK       I    between atoms: C_6  and  N_7 
REMARK    2  A    between atoms: N_7  and  C_8 
REMARK    3  A    between atoms: C_8  and  N_9 
REMARK    4  A    between atoms: N_9  and  C_10 
ROOT
HETATM    1  C   UNL     1     -41.096  54.967 -51.966  1.00  0.00     0.257 C 
HETATM    2  N   UNL     1     -41.288  55.976 -52.903  1.00  0.00    -0.299 N 
HETATM    3  O   UNL     1     -41.062  55.102 -50.749  1.00  0.00    -0.267 OA
HETATM    4  H   UNL     1     -40.904  55.794 -53.819  1.00  0.00     0.171 HD
ENDROOT
BRANCH   2   5
HETATM    5  C   UNL     1     -41.481  57.300 -52.655  1.00  0.00     0.180 C 
HETATM    6  S   UNL     1     -41.371  58.379 -53.930  1.00  0.00    -0.040 SA
BRANCH   5   7
HETATM    7  N   UNL     1     -41.709  57.772 -51.409  1.00  0.00    -0.318 N 
HETATM    8  H   UNL     1     -40.993  57.555 -50.729  1.00  0.00     0.170 HD
BRANCH   7   9
HETATM    9  C   UNL     1     -42.540  58.854 -51.071  1.00  0.00     0.129 A 
HETATM   10  N   UNL     1     -43.875  58.774 -51.258  1.00  0.00    -0.236 NA
HETATM   11  C   UNL     1     -44.617  59.883 -51.018  1.00  0.00     0.033 A 
HETATM   12  C   UNL     1     -46.093  59.786 -51.258  1.00  0.00     0.070 C 
HETATM   13  C   UNL     1     -44.057  61.093 -50.618  1.00  0.00     0.027 A 
HETATM   14  C   UNL     1     -42.683  61.162 -50.436  1.00  0.00     0.006 A 
HETATM   15  C   UNL     1     -41.911  60.028 -50.668  1.00  0.00     0.050 A 
ENDBRANCH   7   9
ENDBRANCH   5   7
ENDBRANCH   2   5
BRANCH   1  16
HETATM   16  C   UNL     1     -40.738  53.653 -52.565  1.00  0.00     0.032 A 
HETATM   17  C   UNL     1     -40.029  52.732 -51.786  1.00  0.00     0.017 A 
HETATM   18  C   UNL     1     -39.607  51.524 -52.344  1.00  0.00     0.007 A 
HETATM   19  C   UNL     1     -39.895  51.221 -53.680  1.00  0.00    -0.062 A 
HETATM   20  C   UNL     1     -39.448  49.923 -54.285  1.00  0.00     0.048 C 
HETATM   21  C   UNL     1     -40.639  52.133 -54.444  1.00  0.00     0.007 A 
HETATM   22  C   UNL     1     -41.058  53.346 -53.892  1.00  0.00     0.017 A 
ENDBRANCH   1  16
TORSDOF 4
ENDMDL
MODEL 8
REMARK VINA RESULT:      -7.0      1.623      1.855
REMARK  4 active torsions:
REMARK  status: ('A' for Active; 'I' for Inactive)
REMARK    1  A    between atoms: C_5  and  C_6 
REMARK       I    between atoms: C_6  and  N_7 
REMARK    2  A    between atoms: N_7  and  C_8 
REMARK    3  A    between atoms: C_8  and  N_9 
REMARK    4  A    between atoms: N_9  and  C_10 
ROOT
HETATM    1  C   UNL     1     -42.569  55.392 -54.380  1.00  0.00     0.257 C 
HETATM    2  N   UNL     1     -41.829  56.539 -54.650  1.00  0.00    -0.299 N 
HETATM    3  O   UNL     1     -43.782  55.269 -54.490  1.00  0.00    -0.267 OA
HETATM    4  H   UNL     1     -40.953  56.615 -54.153  1.00  0.00     0.171 HD
ENDROOT
BRANCH   2   5
HETATM    5  C   UNL     1     -42.303  57.735 -55.092  1.00  0.00     0.180 C 
HETATM    6  S   UNL     1     -41.742  59.136 -54.366  1.00  0.00    -0.040 SA
BRANCH   5   7
HETATM    7  N   UNL     1     -43.242  57.824 -56.059  1.00  0.00    -0.318 N 
HETATM    8  H   UNL     1     -43.983  58.487 -55.880  1.00  0.00     0.170 HD
BRANCH   7   9
HETATM    9  C   UNL     1     -43.080  57.466 -57.409  1.00  0.00     0.129 A 
HETATM   10  N   UNL     1     -43.724  56.391 -57.912  1.00  0.00    -0.236 NA
HETATM   11  C   UNL     1     -43.447  56.027 -59.189  1.00  0.00     0.033 A 
HETATM   12  C   UNL     1     -44.148  54.814 -59.723  1.00  0.00     0.070 C 
HETATM   13  C   UNL     1     -42.516  56.694 -59.979  1.00  0.00     0.027 A 
HETATM   14  C   UNL     1     -41.858  57.793 -59.446  1.00  0.00     0.006 A 
HETATM   15  C   UNL     1     -42.141  58.185 -58.141  1.00  0.00     0.050 A 
ENDBRANCH   7   9
ENDBRANCH   5   7
ENDBRANCH   2   5
BRANCH   1  16
HETATM   16  C   UNL     1     -41.777  54.305 -53.745  1.00  0.00     0.032 A 
HETATM   17  C   UNL     1     -41.572  54.346 -52.362  1.00  0.00     0.017 A 
HETATM   18  C   UNL     1     -40.766  53.387 -51.745  1.00  0.00     0.007 A 
HETATM   19  C   UNL     1     -40.164  52.375 -52.503  1.00  0.00    -0.062 A 
HETATM   20  C   UNL     1     -39.300  51.339 -51.846  1.00  0.00     0.048 C 
HETATM   21  C   UNL     1     -40.404  52.318 -53.883  1.00  0.00     0.007 A 
HETATM   22  C   UNL     1     -41.205  53.279 -54.506  1.00  0.00     0.017 A 
ENDBRANCH   1  16
TORSDOF 4
ENDMDL
MODEL 9
REMARK VINA RESULT:      -6.9      4.169      5.986
REMARK  4 active torsions:
REMARK  status: ('A' for Active; 'I' for Inactive)
REMARK    1  A    between atoms: C_5  and  C_6 
REMARK       I    between atoms: C_6  and  N_7 
REMARK    2  A    between atoms: N_7  and  C_8 
REMARK    3  A    between atoms: C_8  and  N_9 
REMARK    4  A    between atoms: N_9  and  C_10 
ROOT
HETATM    1  C   UNL     1     -41.464  55.308 -52.263  1.00  0.00     0.257 C 
HETATM    2  N   UNL     1     -41.316  56.356 -53.164  1.00  0.00    -0.299 N 
HETATM    3  O   UNL     1     -41.884  55.390 -51.116  1.00  0.00    -0.267 OA
HETATM    4  H   UNL     1     -40.618  56.216 -53.880  1.00  0.00     0.171 HD
ENDROOT
BRANCH   2   5
HETATM    5  C   UNL     1     -41.612  57.667 -52.953  1.00  0.00     0.180 C 
HETATM    6  S   UNL     1     -41.602  58.712 -54.262  1.00  0.00    -0.040 SA
BRANCH   5   7
HETATM    7  N   UNL     1     -41.865  58.157 -51.719  1.00  0.00    -0.318 N 
HETATM    8  H   UNL     1     -41.048  58.350 -51.157  1.00  0.00     0.170 HD
BRANCH   7   9
HETATM    9  C   UNL     1     -43.034  58.826 -51.316  1.00  0.00     0.129 A 
HETATM   10  N   UNL     1     -42.962  60.062 -50.777  1.00  0.00    -0.236 NA
HETATM   11  C   UNL     1     -44.107  60.616 -50.306  1.00  0.00     0.033 A 
HETATM   12  C   UNL     1     -44.004  61.976 -49.684  1.00  0.00     0.070 C 
HETATM   13  C   UNL     1     -45.331  59.955 -50.331  1.00  0.00     0.027 A 
HETATM   14  C   UNL     1     -45.388  58.682 -50.882  1.00  0.00     0.006 A 
HETATM   15  C   UNL     1     -44.223  58.107 -51.380  1.00  0.00     0.050 A 
ENDBRANCH   7   9
ENDBRANCH   5   7
ENDBRANCH   2   5
BRANCH   1  16
HETATM   16  C   UNL     1     -40.885  54.023 -52.739  1.00  0.00     0.032 A 
HETATM   17  C   UNL     1     -41.027  53.683 -54.089  1.00  0.00     0.017 A 
HETATM   18  C   UNL     1     -40.569  52.448 -54.552  1.00  0.00     0.007 A 
HETATM   19  C   UNL     1     -39.957  51.546 -53.673  1.00  0.00    -0.062 A 
HETATM   20  C   UNL     1     -39.458  50.218 -54.164  1.00  0.00     0.048 C 
HETATM   21  C   UNL     1     -39.784  51.908 -52.329  1.00  0.00     0.007 A 
HETATM   22  C   UNL     1     -40.247  53.140 -51.860  1.00  0.00     0.017 A 
ENDBRANCH   1  16
TORSDOF 4
ENDMDL
MODEL 10
REMARK VINA RESULT:      -6.8      2.922      5.080
REMARK  4 active torsions:
REMARK  status: ('A' for Active; 'I' for Inactive)
REMARK    1  A    between atoms: C_5  and  C_6 
REMARK       I    between atoms: C_6  and  N_7 
REMARK    2  A    between atoms: N_7  and  C_8 
REMARK    3  A    between atoms: C_8  and  N_9 
REMARK    4  A    between atoms: N_9  and  C_10 
ROOT
HETATM    1  C   UNL     1     -41.691  54.132 -54.519  1.00  0.00     0.257 C 
HETATM    2  N   UNL     1     -41.156  55.413 -54.448  1.00  0.00    -0.299 N 
HETATM    3  O   UNL     1     -42.741  53.812 -55.064  1.00  0.00    -0.267 OA
HETATM    4  H   UNL     1     -40.539  55.581 -53.666  1.00  0.00     0.171 HD
ENDROOT
BRANCH   2   5
HETATM    5  C   UNL     1     -41.686  56.553 -54.969  1.00  0.00     0.180 C 
HETATM    6  S   UNL     1     -42.402  56.486 -56.480  1.00  0.00    -0.040 SA
BRANCH   5   7
HETATM    7  N   UNL     1     -41.607  57.740 -54.328  1.00  0.00    -0.318 N 
HETATM    8  H   UNL     1     -42.118  58.497 -54.760  1.00  0.00     0.170 HD
BRANCH   7   9
HETATM    9  C   UNL     1     -41.301  57.931 -52.969  1.00  0.00     0.129 A 
HETATM   10  N   UNL     1     -41.394  56.903 -52.098  1.00  0.00    -0.236 NA
HETATM   11  C   UNL     1     -41.193  57.166 -50.783  1.00  0.00     0.033 A 
HETATM   12  C   UNL     1     -41.328  56.021 -49.826  1.00  0.00     0.070 C 
HETATM   13  C   UNL     1     -40.928  58.445 -50.301  1.00  0.00     0.027 A 
HETATM   14  C   UNL     1     -40.842  59.492 -51.208  1.00  0.00     0.006 A 
HETATM   15  C   UNL     1     -41.034  59.234 -52.561  1.00  0.00     0.050 A 
ENDBRANCH   7   9
ENDBRANCH   5   7
ENDBRANCH   2   5
BRANCH   1  16
HETATM   16  C   UNL     1     -40.959  53.131 -53.698  1.00  0.00     0.032 A 
HETATM   17  C   UNL     1     -40.498  51.964 -54.317  1.00  0.00     0.017 A 
HETATM   18  C   UNL     1     -39.880  50.968 -53.559  1.00  0.00     0.007 A 
HETATM   19  C   UNL     1     -39.710  51.130 -52.179  1.00  0.00    -0.062 A 
HETATM   20  C   UNL     1     -39.043  50.065 -51.358  1.00  0.00     0.048 C 
HETATM   21  C   UNL     1     -40.141  52.319 -51.570  1.00  0.00     0.007 A 
HETATM   22  C   UNL     1     -40.766  53.316 -52.324  1.00  0.00     0.017 A 
ENDBRANCH   1  16
TORSDOF 4
ENDMDL
