MODEL 1
REMARK VINA RESULT:      -8.9      0.000      0.000
REMARK  8 active torsions:
REMARK  status: ('A' for Active; 'I' for Inactive)
REMARK    1  A    between atoms: C_5  and  C_6 
REMARK    2  A    between atoms: C_6  and  N_7 
REMARK       I    between atoms: N_7  and  C_8 
REMARK    3  A    between atoms: C_8  and  C_9 
REMARK    4  A    between atoms: C_9  and  S_10 
REMARK    5  A    between atoms: S_10  and  C_11 
REMARK    6  A    between atoms: C_13  and  N_14 
REMARK    7  A    between atoms: C_15  and  N_16 
REMARK       I    between atoms: N_16  and  C_17 
REMARK    8  A    between atoms: C_17  and  C_18 
ROOT
HETATM    1  C   UNL     1     -41.823  57.293 -53.130  1.00  0.00     0.171 C 
HETATM    2  N   UNL     1     -41.382  56.305 -53.827  1.00  0.00    -0.210 NA
HETATM    3  C   UNL     1     -42.053  55.995 -54.982  1.00  0.00     0.136 C 
HETATM    4  C   UNL     1     -43.199  56.615 -55.356  1.00  0.00     0.144 C 
HETATM    5  C   UNL     1     -43.810  57.528 -54.342  1.00  0.00     0.277 C 
HETATM    6  O   UNL     1     -45.014  57.727 -54.234  1.00  0.00    -0.266 OA
HETATM    7  N   UNL     1     -42.937  58.006 -53.414  1.00  0.00    -0.300 N 
HETATM    8  H   UNL     1     -43.310  58.623 -52.711  1.00  0.00     0.171 HD
ENDROOT
BRANCH   1   9
HETATM    9  S   UNL     1     -41.000  57.852 -51.710  1.00  0.00    -0.083 SA
BRANCH   9  10
HETATM   10  C   UNL     1     -41.932  56.962 -50.434  1.00  0.00     0.185 C 
BRANCH  10  11
HETATM   11  C   UNL     1     -41.251  55.713 -49.898  1.00  0.00     0.227 C 
HETATM   12  N   UNL     1     -40.704  54.864 -50.833  1.00  0.00    -0.356 N 
HETATM   13  H   UNL     1     -41.099  54.905 -51.766  1.00  0.00     0.162 HD
HETATM   14  O   UNL     1     -41.124  55.533 -48.687  1.00  0.00    -0.273 OA
BRANCH  12  15
HETATM   15  C   UNL     1     -40.155  53.597 -50.409  1.00  0.00     0.161 C 
BRANCH  15  16
HETATM   16  C   UNL     1     -40.015  52.627 -51.551  1.00  0.00    -0.041 A 
HETATM   17  C   UNL     1     -39.651  51.294 -51.315  1.00  0.00     0.009 A 
HETATM   18  C   UNL     1     -39.577  50.379 -52.368  1.00  0.00     0.007 A 
HETATM   19  C   UNL     1     -39.862  50.780 -53.678  1.00  0.00    -0.062 A 
HETATM   20  C   UNL     1     -39.834  49.794 -54.807  1.00  0.00     0.048 C 
HETATM   21  C   UNL     1     -40.232  52.109 -53.915  1.00  0.00     0.007 A 
HETATM   22  C   UNL     1     -40.304  53.024 -52.862  1.00  0.00     0.009 A 
ENDBRANCH  15  16
ENDBRANCH  12  15
ENDBRANCH  10  11
ENDBRANCH   9  10
ENDBRANCH   1   9
BRANCH   3  23
HETATM   23  N   UNL     1     -41.475  55.031 -55.801  1.00  0.00    -0.285 NA
HETATM   24  H   UNL     1     -42.155  54.823 -56.533  1.00  0.00     0.125 HD
HETATM   25  H   UNL     1     -40.640  55.406 -56.247  1.00  0.00     0.125 HD
ENDBRANCH   3  23
BRANCH   4  26
HETATM   26  N   UNL     1     -43.742  56.386 -56.604  1.00  0.00    -0.314 N 
HETATM   27  C   UNL     1     -43.401  57.003 -57.791  1.00  0.00     0.280 C 
HETATM   28  O   UNL     1     -42.557  57.881 -57.912  1.00  0.00    -0.265 OA
HETATM   29  H   UNL     1     -44.253  55.514 -56.704  1.00  0.00     0.169 HD
BRANCH  27  30
HETATM   30  C   UNL     1     -44.090  56.436 -58.936  1.00  0.00     0.144 A 
HETATM   31  O   UNL     1     -45.317  56.929 -59.297  1.00  0.00    -0.298 OA
HETATM   32  C   UNL     1     -45.749  56.193 -60.357  1.00  0.00     0.122 A 
HETATM   33 BR   UNL     1     -47.389  56.450 -61.207  1.00  0.00    -0.023 Br
HETATM   34  C   UNL     1     -44.816  55.241 -60.694  1.00  0.00     0.048 A 
HETATM   35  C   UNL     1     -43.745  55.396 -59.780  1.00  0.00     0.046 A 
ENDBRANCH  27  30
ENDBRANCH   4  26
TORSDOF 8
ENDMDL
MODEL 2
REMARK VINA RESULT:      -8.7      0.835      1.216
REMARK  8 active torsions:
REMARK  status: ('A' for Active; 'I' for Inactive)
REMARK    1  A    between atoms: C_5  and  C_6 
REMARK    2  A    between atoms: C_6  and  N_7 
REMARK       I    between atoms: N_7  and  C_8 
REMARK    3  A    between atoms: C_8  and  C_9 
REMARK    4  A    between atoms: C_9  and  S_10 
REMARK    5  A    between atoms: S_10  and  C_11 
REMARK    6  A    between atoms: C_13  and  N_14 
REMARK    7  A    between atoms: C_15  and  N_16 
REMARK       I    between atoms: N_16  and  C_17 
REMARK    8  A    between atoms: C_17  and  C_18 
ROOT
HETATM    1  C   UNL     1     -42.135  57.388 -53.019  1.00  0.00     0.171 C 
HETATM    2  N   UNL     1     -42.698  56.244 -53.199  1.00  0.00    -0.210 NA
HETATM    3  C   UNL     1     -43.329  56.030 -54.398  1.00  0.00     0.136 C 
HETATM    4  C   UNL     1     -43.464  56.995 -55.340  1.00  0.00     0.144 C 
HETATM    5  C   UNL     1     -43.061  58.374 -54.928  1.00  0.00     0.277 C 
HETATM    6  O   UNL     1     -43.578  59.398 -55.357  1.00  0.00    -0.266 OA
HETATM    7  N   UNL     1     -42.177  58.418 -53.894  1.00  0.00    -0.300 N 
HETATM    8  H   UNL     1     -41.882  59.331 -53.584  1.00  0.00     0.171 HD
ENDROOT
BRANCH   1   9
HETATM    9  S   UNL     1     -41.215  57.742 -51.592  1.00  0.00    -0.083 SA
BRANCH   9  10
HETATM   10  C   UNL     1     -42.124  56.751 -50.376  1.00  0.00     0.185 C 
BRANCH  10  11
HETATM   11  C   UNL     1     -41.377  55.535 -49.853  1.00  0.00     0.227 C 
HETATM   12  N   UNL     1     -40.905  54.652 -50.798  1.00  0.00    -0.356 N 
HETATM   13  H   UNL     1     -41.385  54.649 -51.692  1.00  0.00     0.162 HD
HETATM   14  O   UNL     1     -41.136  55.409 -48.653  1.00  0.00    -0.273 OA
BRANCH  12  15
HETATM   15  C   UNL     1     -40.299  53.412 -50.373  1.00  0.00     0.161 C 
BRANCH  15  16
HETATM   16  C   UNL     1     -40.159  52.430 -51.506  1.00  0.00    -0.041 A 
HETATM   17  C   UNL     1     -40.420  52.821 -52.826  1.00  0.00     0.009 A 
HETATM   18  C   UNL     1     -40.236  51.926 -53.883  1.00  0.00     0.007 A 
HETATM   19  C   UNL     1     -39.788  50.624 -53.640  1.00  0.00    -0.062 A 
HETATM   20  C   UNL     1     -39.538  49.672 -54.772  1.00  0.00     0.048 C 
HETATM   21  C   UNL     1     -39.520  50.233 -52.323  1.00  0.00     0.007 A 
HETATM   22  C   UNL     1     -39.707  51.126 -51.266  1.00  0.00     0.009 A 
ENDBRANCH  15  16
ENDBRANCH  12  15
ENDBRANCH  10  11
ENDBRANCH   9  10
ENDBRANCH   1   9
BRANCH   3  23
HETATM   23  N   UNL     1     -43.793  54.742 -54.638  1.00  0.00    -0.285 NA
HETATM   24  H   UNL     1     -44.263  54.763 -55.543  1.00  0.00     0.125 HD
HETATM   25  H   UNL     1     -43.009  54.095 -54.708  1.00  0.00     0.125 HD
ENDBRANCH   3  23
BRANCH   4  26
HETATM   26  N   UNL     1     -43.954  56.684 -56.592  1.00  0.00    -0.314 N 
HETATM   27  C   UNL     1     -43.348  56.919 -57.810  1.00  0.00     0.280 C 
HETATM   28  O   UNL     1     -42.265  57.468 -57.965  1.00  0.00    -0.265 OA
HETATM   29  H   UNL     1     -44.703  55.997 -56.610  1.00  0.00     0.169 HD
BRANCH  27  30
HETATM   30  C   UNL     1     -44.090  56.355 -58.924  1.00  0.00     0.144 A 
HETATM   31  O   UNL     1     -45.290  56.911 -59.285  1.00  0.00    -0.298 OA
HETATM   32  C   UNL     1     -45.785  56.166 -60.310  1.00  0.00     0.122 A 
HETATM   33 BR   UNL     1     -47.419  56.495 -61.146  1.00  0.00    -0.023 Br
HETATM   34  C   UNL     1     -44.918  55.146 -60.626  1.00  0.00     0.048 A 
HETATM   35  C   UNL     1     -43.825  55.266 -59.734  1.00  0.00     0.046 A 
ENDBRANCH  27  30
ENDBRANCH   4  26
TORSDOF 8
ENDMDL
MODEL 3
REMARK VINA RESULT:      -8.1      6.003      9.522
REMARK  8 active torsions:
REMARK  status: ('A' for Active; 'I' for Inactive)
REMARK    1  A    between atoms: C_5  and  C_6 
REMARK    2  A    between atoms: C_6  and  N_7 
REMARK       I    between atoms: N_7  and  C_8 
REMARK    3  A    between atoms: C_8  and  C_9 
REMARK    4  A    between atoms: C_9  and  S_10 
REMARK    5  A    between atoms: S_10  and  C_11 
REMARK    6  A    between atoms: C_13  and  N_14 
REMARK    7  A    between atoms: C_15  and  N_16 
REMARK       I    between atoms: N_16  and  C_17 
REMARK    8  A    between atoms: C_17  and  C_18 
ROOT
HETATM    1  C   UNL     1     -44.476  58.802 -51.524  1.00  0.00     0.171 C 
HETATM    2  N   UNL     1     -44.891  57.721 -50.962  1.00  0.00    -0.210 NA
HETATM    3  C   UNL     1     -44.183  56.571 -51.201  1.00  0.00     0.136 C 
HETATM    4  C   UNL     1     -43.144  56.514 -52.069  1.00  0.00     0.144 C 
HETATM    5  C   UNL     1     -42.926  57.730 -52.911  1.00  0.00     0.277 C 
HETATM    6  O   UNL     1     -42.469  57.707 -54.047  1.00  0.00    -0.266 OA
HETATM    7  N   UNL     1     -43.437  58.877 -52.386  1.00  0.00    -0.300 N 
HETATM    8  H   UNL     1     -43.313  59.721 -52.925  1.00  0.00     0.171 HD
ENDROOT
BRANCH   1   9
HETATM    9  S   UNL     1     -45.219  60.339 -51.216  1.00  0.00    -0.083 SA
BRANCH   9  10
HETATM   10  C   UNL     1     -44.265  60.864 -49.766  1.00  0.00     0.185 C 
BRANCH  10  11
HETATM   11  C   UNL     1     -45.087  61.489 -48.650  1.00  0.00     0.227 C 
HETATM   12  N   UNL     1     -45.106  60.814 -47.450  1.00  0.00    -0.356 N 
HETATM   13  H   UNL     1     -44.918  59.818 -47.490  1.00  0.00     0.162 HD
HETATM   14  O   UNL     1     -45.624  62.586 -48.799  1.00  0.00    -0.273 OA
BRANCH  12  15
HETATM   15  C   UNL     1     -45.966  61.277 -46.386  1.00  0.00     0.161 C 
BRANCH  15  16
HETATM   16  C   UNL     1     -45.193  61.949 -45.283  1.00  0.00    -0.041 A 
HETATM   17  C   UNL     1     -44.256  61.232 -44.528  1.00  0.00     0.009 A 
HETATM   18  C   UNL     1     -43.498  61.868 -43.542  1.00  0.00     0.007 A 
HETATM   19  C   UNL     1     -43.664  63.234 -43.291  1.00  0.00    -0.062 A 
HETATM   20  C   UNL     1     -42.820  63.937 -42.270  1.00  0.00     0.048 C 
HETATM   21  C   UNL     1     -44.595  63.955 -44.047  1.00  0.00     0.007 A 
HETATM   22  C   UNL     1     -45.355  63.317 -45.031  1.00  0.00     0.009 A 
ENDBRANCH  15  16
ENDBRANCH  12  15
ENDBRANCH  10  11
ENDBRANCH   9  10
ENDBRANCH   1   9
BRANCH   3  23
HETATM   23  N   UNL     1     -44.547  55.449 -50.465  1.00  0.00    -0.285 NA
HETATM   24  H   UNL     1     -43.693  54.916 -50.301  1.00  0.00     0.125 HD
HETATM   25  H   UNL     1     -44.919  55.730 -49.559  1.00  0.00     0.125 HD
ENDBRANCH   3  23
BRANCH   4  26
HETATM   26  N   UNL     1     -42.360  55.381 -52.148  1.00  0.00    -0.314 N 
HETATM   27  C   UNL     1     -42.405  54.397 -53.116  1.00  0.00     0.280 C 
HETATM   28  O   UNL     1     -43.180  54.374 -54.063  1.00  0.00    -0.265 OA
HETATM   29  H   UNL     1     -41.509  55.399 -51.594  1.00  0.00     0.169 HD
BRANCH  27  30
HETATM   30  C   UNL     1     -41.356  53.406 -52.958  1.00  0.00     0.144 A 
HETATM   31  O   UNL     1     -41.222  52.411 -53.893  1.00  0.00    -0.298 OA
HETATM   32  C   UNL     1     -40.209  51.604 -53.477  1.00  0.00     0.122 A 
HETATM   33 BR   UNL     1     -39.645  50.080 -54.392  1.00  0.00    -0.023 Br
HETATM   34  C   UNL     1     -39.677  52.068 -52.296  1.00  0.00     0.048 A 
HETATM   35  C   UNL     1     -40.415  53.230 -51.960  1.00  0.00     0.046 A 
ENDBRANCH  27  30
ENDBRANCH   4  26
TORSDOF 8
ENDMDL
MODEL 4
REMARK VINA RESULT:      -8.0      5.864      9.262
REMARK  8 active torsions:
REMARK  status: ('A' for Active; 'I' for Inactive)
REMARK    1  A    between atoms: C_5  and  C_6 
REMARK    2  A    between atoms: C_6  and  N_7 
REMARK       I    between atoms: N_7  and  C_8 
REMARK    3  A    between atoms: C_8  and  C_9 
REMARK    4  A    between atoms: C_9  and  S_10 
REMARK    5  A    between atoms: S_10  and  C_11 
REMARK    6  A    between atoms: C_13  and  N_14 
REMARK    7  A    between atoms: C_15  and  N_16 
REMARK       I    between atoms: N_16  and  C_17 
REMARK    8  A    between atoms: C_17  and  C_18 
ROOT
HETATM    1  C   UNL     1     -42.803  60.133 -51.158  1.00  0.00     0.171 C 
HETATM    2  N   UNL     1     -43.702  59.232 -51.347  1.00  0.00    -0.210 NA
HETATM    3  C   UNL     1     -43.298  58.038 -51.887  1.00  0.00     0.136 C 
HETATM    4  C   UNL     1     -42.031  57.814 -52.314  1.00  0.00     0.144 C 
HETATM    5  C   UNL     1     -41.132  59.007 -52.347  1.00  0.00     0.277 C 
HETATM    6  O   UNL     1     -40.221  59.159 -53.152  1.00  0.00    -0.266 OA
HETATM    7  N   UNL     1     -41.503  60.017 -51.514  1.00  0.00    -0.300 N 
HETATM    8  H   UNL     1     -40.924  60.842 -51.509  1.00  0.00     0.171 HD
ENDROOT
BRANCH   1   9
HETATM    9  S   UNL     1     -43.166  61.641 -50.382  1.00  0.00    -0.083 SA
BRANCH   9  10
HETATM   10  C   UNL     1     -44.975  61.632 -50.506  1.00  0.00     0.185 C 
BRANCH  10  11
HETATM   11  C   UNL     1     -45.703  61.252 -49.227  1.00  0.00     0.227 C 
HETATM   12  N   UNL     1     -46.204  62.290 -48.474  1.00  0.00    -0.356 N 
HETATM   13  H   UNL     1     -45.753  63.191 -48.592  1.00  0.00     0.162 HD
HETATM   14  O   UNL     1     -45.906  60.072 -48.942  1.00  0.00    -0.273 OA
BRANCH  12  15
HETATM   15  C   UNL     1     -46.794  62.014 -47.185  1.00  0.00     0.161 C 
BRANCH  15  16
HETATM   16  C   UNL     1     -45.817  62.214 -46.058  1.00  0.00    -0.041 A 
HETATM   17  C   UNL     1     -45.673  63.469 -45.452  1.00  0.00     0.009 A 
HETATM   18  C   UNL     1     -44.809  63.642 -44.368  1.00  0.00     0.007 A 
HETATM   19  C   UNL     1     -44.070  62.564 -43.871  1.00  0.00    -0.062 A 
HETATM   20  C   UNL     1     -43.177  62.728 -42.677  1.00  0.00     0.048 C 
HETATM   21  C   UNL     1     -44.216  61.308 -44.470  1.00  0.00     0.007 A 
HETATM   22  C   UNL     1     -45.078  61.135 -45.556  1.00  0.00     0.009 A 
ENDBRANCH  15  16
ENDBRANCH  12  15
ENDBRANCH  10  11
ENDBRANCH   9  10
ENDBRANCH   1   9
BRANCH   3  23
HETATM   23  N   UNL     1     -44.248  57.023 -51.939  1.00  0.00    -0.285 NA
HETATM   24  H   UNL     1     -44.693  56.991 -51.021  1.00  0.00     0.125 HD
HETATM   25  H   UNL     1     -44.965  57.249 -52.626  1.00  0.00     0.125 HD
ENDBRANCH   3  23
BRANCH   4  26
HETATM   26  N   UNL     1     -41.635  56.548 -52.691  1.00  0.00    -0.314 N 
HETATM   27  C   UNL     1     -41.538  56.049 -53.975  1.00  0.00     0.280 C 
HETATM   28  O   UNL     1     -41.815  56.667 -54.995  1.00  0.00    -0.265 OA
HETATM   29  H   UNL     1     -41.127  56.021 -51.987  1.00  0.00     0.169 HD
BRANCH  27  30
HETATM   30  C   UNL     1     -40.972  54.713 -54.018  1.00  0.00     0.144 A 
HETATM   31  O   UNL     1     -40.724  54.048 -52.844  1.00  0.00    -0.298 OA
HETATM   32  C   UNL     1     -40.156  52.856 -53.171  1.00  0.00     0.122 A 
HETATM   33 BR   UNL     1     -39.602  51.586 -51.923  1.00  0.00    -0.023 Br
HETATM   34  C   UNL     1     -40.046  52.733 -54.536  1.00  0.00     0.048 A 
HETATM   35  C   UNL     1     -40.572  53.929 -55.084  1.00  0.00     0.046 A 
ENDBRANCH  27  30
ENDBRANCH   4  26
TORSDOF 8
ENDMDL
MODEL 5
REMARK VINA RESULT:      -7.8      3.580      4.182
REMARK  8 active torsions:
REMARK  status: ('A' for Active; 'I' for Inactive)
REMARK    1  A    between atoms: C_5  and  C_6 
REMARK    2  A    between atoms: C_6  and  N_7 
REMARK       I    between atoms: N_7  and  C_8 
REMARK    3  A    between atoms: C_8  and  C_9 
REMARK    4  A    between atoms: C_9  and  S_10 
REMARK    5  A    between atoms: S_10  and  C_11 
REMARK    6  A    between atoms: C_13  and  N_14 
REMARK    7  A    between atoms: C_15  and  N_16 
REMARK       I    between atoms: N_16  and  C_17 
REMARK    8  A    between atoms: C_17  and  C_18 
ROOT
HETATM    1  C   UNL     1     -43.469  57.400 -55.185  1.00  0.00     0.171 C 
HETATM    2  N   UNL     1     -42.773  58.468 -55.011  1.00  0.00    -0.210 NA
HETATM    3  C   UNL     1     -42.294  59.101 -56.129  1.00  0.00     0.136 C 
HETATM    4  C   UNL     1     -42.440  58.598 -57.379  1.00  0.00     0.144 C 
HETATM    5  C   UNL     1     -42.982  57.208 -57.466  1.00  0.00     0.277 C 
HETATM    6  O   UNL     1     -42.691  56.410 -58.349  1.00  0.00    -0.266 OA
HETATM    7  N   UNL     1     -43.708  56.817 -56.382  1.00  0.00    -0.300 N 
HETATM    8  H   UNL     1     -44.089  55.884 -56.400  1.00  0.00     0.171 HD
ENDROOT
BRANCH   1   9
HETATM    9  S   UNL     1     -44.221  56.569 -53.861  1.00  0.00    -0.083 SA
BRANCH   9  10
HETATM   10  C   UNL     1     -43.363  57.355 -52.469  1.00  0.00     0.185 C 
BRANCH  10  11
HETATM   11  C   UNL     1     -42.068  56.677 -52.050  1.00  0.00     0.227 C 
HETATM   12  N   UNL     1     -42.139  55.328 -51.790  1.00  0.00    -0.356 N 
HETATM   13  H   UNL     1     -43.048  54.967 -51.522  1.00  0.00     0.162 HD
HETATM   14  O   UNL     1     -41.005  57.297 -52.041  1.00  0.00    -0.273 OA
BRANCH  12  15
HETATM   15  C   UNL     1     -40.980  54.643 -51.264  1.00  0.00     0.161 C 
BRANCH  15  16
HETATM   16  C   UNL     1     -40.582  53.466 -52.113  1.00  0.00    -0.041 A 
HETATM   17  C   UNL     1     -39.794  52.436 -51.582  1.00  0.00     0.009 A 
HETATM   18  C   UNL     1     -39.471  51.316 -52.352  1.00  0.00     0.007 A 
HETATM   19  C   UNL     1     -39.930  51.205 -53.668  1.00  0.00    -0.062 A 
HETATM   20  C   UNL     1     -39.632  49.983 -54.486  1.00  0.00     0.048 C 
HETATM   21  C   UNL     1     -40.723  52.228 -54.200  1.00  0.00     0.007 A 
HETATM   22  C   UNL     1     -41.043  53.350 -53.431  1.00  0.00     0.009 A 
ENDBRANCH  15  16
ENDBRANCH  12  15
ENDBRANCH  10  11
ENDBRANCH   9  10
ENDBRANCH   1   9
BRANCH   3  23
HETATM   23  N   UNL     1     -41.681  60.334 -55.934  1.00  0.00    -0.285 NA
HETATM   24  H   UNL     1     -40.708  60.143 -55.694  1.00  0.00     0.125 HD
HETATM   25  H   UNL     1     -41.690  60.870 -56.800  1.00  0.00     0.125 HD
ENDBRANCH   3  23
BRANCH   4  26
HETATM   26  N   UNL     1     -42.091  59.352 -58.481  1.00  0.00    -0.314 N 
HETATM   27  C   UNL     1     -42.924  59.797 -59.488  1.00  0.00     0.280 C 
HETATM   28  O   UNL     1     -44.124  59.566 -59.565  1.00  0.00    -0.265 OA
HETATM   29  H   UNL     1     -41.201  59.836 -58.414  1.00  0.00     0.169 HD
BRANCH  27  30
HETATM   30  C   UNL     1     -42.248  60.668 -60.432  1.00  0.00     0.144 A 
HETATM   31  O   UNL     1     -41.214  61.458 -59.999  1.00  0.00    -0.298 OA
HETATM   32  C   UNL     1     -40.803  62.199 -61.064  1.00  0.00     0.122 A 
HETATM   33 BR   UNL     1     -39.430  63.459 -60.991  1.00  0.00    -0.023 Br
HETATM   34  C   UNL     1     -41.545  61.891 -62.180  1.00  0.00     0.048 A 
HETATM   35  C   UNL     1     -42.476  60.904 -61.775  1.00  0.00     0.046 A 
ENDBRANCH  27  30
ENDBRANCH   4  26
TORSDOF 8
ENDMDL
MODEL 6
REMARK VINA RESULT:      -7.7      4.690      7.829
REMARK  8 active torsions:
REMARK  status: ('A' for Active; 'I' for Inactive)
REMARK    1  A    between atoms: C_5  and  C_6 
REMARK    2  A    between atoms: C_6  and  N_7 
REMARK       I    between atoms: N_7  and  C_8 
REMARK    3  A    between atoms: C_8  and  C_9 
REMARK    4  A    between atoms: C_9  and  S_10 
REMARK    5  A    between atoms: S_10  and  C_11 
REMARK    6  A    between atoms: C_13  and  N_14 
REMARK    7  A    between atoms: C_15  and  N_16 
REMARK       I    between atoms: N_16  and  C_17 
REMARK    8  A    between atoms: C_17  and  C_18 
ROOT
HETATM    1  C   UNL     1     -43.343  58.509 -53.916  1.00  0.00     0.171 C 
HETATM    2  N   UNL     1     -43.970  57.653 -53.189  1.00  0.00    -0.210 NA
HETATM    3  C   UNL     1     -44.274  58.016 -51.902  1.00  0.00     0.136 C 
HETATM    4  C   UNL     1     -43.857  59.180 -51.348  1.00  0.00     0.144 C 
HETATM    5  C   UNL     1     -42.876  59.972 -52.151  1.00  0.00     0.277 C 
HETATM    6  O   UNL     1     -42.007  60.686 -51.665  1.00  0.00    -0.266 OA
HETATM    7  N   UNL     1     -42.900  59.713 -53.488  1.00  0.00    -0.300 N 
HETATM    8  H   UNL     1     -42.251  60.225 -54.064  1.00  0.00     0.171 HD
ENDROOT
BRANCH   1   9
HETATM    9  S   UNL     1     -42.998  58.213 -55.590  1.00  0.00    -0.083 SA
BRANCH   9  10
HETATM   10  C   UNL     1     -43.777  56.587 -55.790  1.00  0.00     0.185 C 
BRANCH  10  11
HETATM   11  C   UNL     1     -42.865  55.402 -55.516  1.00  0.00     0.227 C 
HETATM   12  N   UNL     1     -42.984  54.810 -54.279  1.00  0.00    -0.356 N 
HETATM   13  H   UNL     1     -43.352  55.391 -53.534  1.00  0.00     0.162 HD
HETATM   14  O   UNL     1     -42.134  54.951 -56.397  1.00  0.00    -0.273 OA
BRANCH  12  15
HETATM   15  C   UNL     1     -42.065  53.762 -53.901  1.00  0.00     0.161 C 
BRANCH  15  16
HETATM   16  C   UNL     1     -41.619  53.886 -52.468  1.00  0.00    -0.041 A 
HETATM   17  C   UNL     1     -42.408  54.566 -51.531  1.00  0.00     0.009 A 
HETATM   18  C   UNL     1     -42.023  54.633 -50.190  1.00  0.00     0.007 A 
HETATM   19  C   UNL     1     -40.841  54.022 -49.760  1.00  0.00    -0.062 A 
HETATM   20  C   UNL     1     -40.445  54.045 -48.314  1.00  0.00     0.048 C 
HETATM   21  C   UNL     1     -40.054  53.337 -50.693  1.00  0.00     0.007 A 
HETATM   22  C   UNL     1     -40.437  53.273 -52.035  1.00  0.00     0.009 A 
ENDBRANCH  15  16
ENDBRANCH  12  15
ENDBRANCH  10  11
ENDBRANCH   9  10
ENDBRANCH   1   9
BRANCH   3  23
HETATM   23  N   UNL     1     -45.086  57.146 -51.183  1.00  0.00    -0.285 NA
HETATM   24  H   UNL     1     -45.688  56.679 -51.861  1.00  0.00     0.125 HD
HETATM   25  H   UNL     1     -44.518  56.433 -50.727  1.00  0.00     0.125 HD
ENDBRANCH   3  23
BRANCH   4  26
HETATM   26  N   UNL     1     -44.328  59.575 -50.113  1.00  0.00    -0.314 N 
HETATM   27  C   UNL     1     -45.258  60.560 -49.847  1.00  0.00     0.280 C 
HETATM   28  O   UNL     1     -45.804  61.261 -50.690  1.00  0.00    -0.265 OA
HETATM   29  H   UNL     1     -44.171  58.916 -49.356  1.00  0.00     0.169 HD
BRANCH  27  30
HETATM   30  C   UNL     1     -45.613  60.632 -48.441  1.00  0.00     0.144 A 
HETATM   31  O   UNL     1     -46.202  59.551 -47.838  1.00  0.00    -0.298 OA
HETATM   32  C   UNL     1     -46.470  59.906 -46.552  1.00  0.00     0.122 A 
HETATM   33 BR   UNL     1     -47.300  58.788 -45.312  1.00  0.00    -0.023 Br
HETATM   34  C   UNL     1     -46.052  61.194 -46.311  1.00  0.00     0.048 A 
HETATM   35  C   UNL     1     -45.499  61.664 -47.528  1.00  0.00     0.046 A 
ENDBRANCH  27  30
ENDBRANCH   4  26
TORSDOF 8
ENDMDL
MODEL 7
REMARK VINA RESULT:      -7.7      3.641      7.447
REMARK  8 active torsions:
REMARK  status: ('A' for Active; 'I' for Inactive)
REMARK    1  A    between atoms: C_5  and  C_6 
REMARK    2  A    between atoms: C_6  and  N_7 
REMARK       I    between atoms: N_7  and  C_8 
REMARK    3  A    between atoms: C_8  and  C_9 
REMARK    4  A    between atoms: C_9  and  S_10 
REMARK    5  A    between atoms: S_10  and  C_11 
REMARK    6  A    between atoms: C_13  and  N_14 
REMARK    7  A    between atoms: C_15  and  N_16 
REMARK       I    between atoms: N_16  and  C_17 
REMARK    8  A    between atoms: C_17  and  C_18 
ROOT
HETATM    1  C   UNL     1     -43.499  57.904 -53.468  1.00  0.00     0.171 C 
HETATM    2  N   UNL     1     -44.180  56.933 -53.967  1.00  0.00    -0.210 NA
HETATM    3  C   UNL     1     -43.583  55.700 -54.017  1.00  0.00     0.136 C 
HETATM    4  C   UNL     1     -42.292  55.492 -53.660  1.00  0.00     0.144 C 
HETATM    5  C   UNL     1     -41.482  56.719 -53.391  1.00  0.00     0.277 C 
HETATM    6  O   UNL     1     -40.278  56.807 -53.597  1.00  0.00    -0.266 OA
HETATM    7  N   UNL     1     -42.215  57.816 -53.052  1.00  0.00    -0.300 N 
HETATM    8  H   UNL     1     -41.706  58.665 -52.865  1.00  0.00     0.171 HD
ENDROOT
BRANCH   1   9
HETATM    9  S   UNL     1     -44.179  59.485 -53.249  1.00  0.00    -0.083 SA
BRANCH   9  10
HETATM   10  C   UNL     1     -42.929  60.486 -54.099  1.00  0.00     0.185 C 
BRANCH  10  11
HETATM   11  C   UNL     1     -42.950  60.385 -55.616  1.00  0.00     0.227 C 
HETATM   12  N   UNL     1     -42.085  59.476 -56.182  1.00  0.00    -0.356 N 
HETATM   13  H   UNL     1     -41.266  59.232 -55.636  1.00  0.00     0.162 HD
HETATM   14  O   UNL     1     -43.768  61.020 -56.280  1.00  0.00    -0.273 OA
BRANCH  12  15
HETATM   15  C   UNL     1     -41.958  59.415 -57.620  1.00  0.00     0.161 C 
BRANCH  15  16
HETATM   16  C   UNL     1     -42.606  58.185 -58.196  1.00  0.00    -0.041 A 
HETATM   17  C   UNL     1     -43.099  58.186 -59.508  1.00  0.00     0.009 A 
HETATM   18  C   UNL     1     -43.649  57.028 -60.063  1.00  0.00     0.007 A 
HETATM   19  C   UNL     1     -43.718  55.847 -59.317  1.00  0.00    -0.062 A 
HETATM   20  C   UNL     1     -44.260  54.586 -59.920  1.00  0.00     0.048 C 
HETATM   21  C   UNL     1     -43.220  55.841 -58.009  1.00  0.00     0.007 A 
HETATM   22  C   UNL     1     -42.673  57.000 -57.452  1.00  0.00     0.009 A 
ENDBRANCH  15  16
ENDBRANCH  12  15
ENDBRANCH  10  11
ENDBRANCH   9  10
ENDBRANCH   1   9
BRANCH   3  23
HETATM   23  N   UNL     1     -44.384  54.634 -54.412  1.00  0.00    -0.285 NA
HETATM   24  H   UNL     1     -44.093  54.382 -55.356  1.00  0.00     0.125 HD
HETATM   25  H   UNL     1     -44.218  53.830 -53.809  1.00  0.00     0.125 HD
ENDBRANCH   3  23
BRANCH   4  26
HETATM   26  N   UNL     1     -41.790  54.211 -53.568  1.00  0.00    -0.314 N 
HETATM   27  C   UNL     1     -40.890  53.601 -54.419  1.00  0.00     0.280 C 
HETATM   28  O   UNL     1     -40.406  54.114 -55.420  1.00  0.00    -0.265 OA
HETATM   29  H   UNL     1     -41.890  53.767 -52.659  1.00  0.00     0.169 HD
BRANCH  27  30
HETATM   30  C   UNL     1     -40.484  52.285 -53.958  1.00  0.00     0.144 A 
HETATM   31  O   UNL     1     -40.306  52.066 -52.616  1.00  0.00    -0.298 OA
HETATM   32  C   UNL     1     -39.883  50.781 -52.473  1.00  0.00     0.122 A 
HETATM   33 BR   UNL     1     -39.471  49.994 -50.833  1.00  0.00    -0.023 Br
HETATM   34  C   UNL     1     -39.799  50.162 -53.698  1.00  0.00     0.048 A 
HETATM   35  C   UNL     1     -40.186  51.130 -54.657  1.00  0.00     0.046 A 
ENDBRANCH  27  30
ENDBRANCH   4  26
TORSDOF 8
ENDMDL
MODEL 8
REMARK VINA RESULT:      -7.7      3.820      7.240
REMARK  8 active torsions:
REMARK  status: ('A' for Active; 'I' for Inactive)
REMARK    1  A    between atoms: C_5  and  C_6 
REMARK    2  A    between atoms: C_6  and  N_7 
REMARK       I    between atoms: N_7  and  C_8 
REMARK    3  A    between atoms: C_8  and  C_9 
REMARK    4  A    between atoms: C_9  and  S_10 
REMARK    5  A    between atoms: S_10  and  C_11 
REMARK    6  A    between atoms: C_13  and  N_14 
REMARK    7  A    between atoms: C_15  and  N_16 
REMARK       I    between atoms: N_16  and  C_17 
REMARK    8  A    between atoms: C_17  and  C_18 
ROOT
HETATM    1  C   UNL     1     -44.509  58.114 -51.826  1.00  0.00     0.171 C 
HETATM    2  N   UNL     1     -44.771  57.465 -52.906  1.00  0.00    -0.210 NA
HETATM    3  C   UNL     1     -43.972  56.393 -53.212  1.00  0.00     0.136 C 
HETATM    4  C   UNL     1     -42.877  56.060 -52.485  1.00  0.00     0.144 C 
HETATM    5  C   UNL     1     -42.465  57.043 -51.437  1.00  0.00     0.277 C 
HETATM    6  O   UNL     1     -41.306  57.227 -51.085  1.00  0.00    -0.266 OA
HETATM    7  N   UNL     1     -43.464  57.861 -51.005  1.00  0.00    -0.300 N 
HETATM    8  H   UNL     1     -43.226  58.540 -50.299  1.00  0.00     0.171 HD
ENDROOT
BRANCH   1   9
HETATM    9  S   UNL     1     -45.509  59.418 -51.274  1.00  0.00    -0.083 SA
BRANCH   9  10
HETATM   10  C   UNL     1     -44.970  60.729 -52.405  1.00  0.00     0.185 C 
BRANCH  10  11
HETATM   11  C   UNL     1     -43.541  60.596 -52.905  1.00  0.00     0.227 C 
HETATM   12  N   UNL     1     -43.384  60.225 -54.222  1.00  0.00    -0.356 N 
HETATM   13  H   UNL     1     -44.153  59.714 -54.641  1.00  0.00     0.162 HD
HETATM   14  O   UNL     1     -42.589  60.898 -52.186  1.00  0.00    -0.273 OA
BRANCH  12  15
HETATM   15  C   UNL     1     -42.060  59.955 -54.732  1.00  0.00     0.161 C 
BRANCH  15  16
HETATM   16  C   UNL     1     -42.094  59.332 -56.101  1.00  0.00    -0.041 A 
HETATM   17  C   UNL     1     -42.413  57.977 -56.262  1.00  0.00     0.009 A 
HETATM   18  C   UNL     1     -42.501  57.411 -57.536  1.00  0.00     0.007 A 
HETATM   19  C   UNL     1     -42.271  58.190 -58.675  1.00  0.00    -0.062 A 
HETATM   20  C   UNL     1     -42.412  57.605 -60.049  1.00  0.00     0.048 C 
HETATM   21  C   UNL     1     -41.959  59.545 -58.519  1.00  0.00     0.007 A 
HETATM   22  C   UNL     1     -41.868  60.110 -57.244  1.00  0.00     0.009 A 
ENDBRANCH  15  16
ENDBRANCH  12  15
ENDBRANCH  10  11
ENDBRANCH   9  10
ENDBRANCH   1   9
BRANCH   3  23
HETATM   23  N   UNL     1     -44.363  55.611 -54.293  1.00  0.00    -0.285 NA
HETATM   24  H   UNL     1     -44.133  54.646 -54.055  1.00  0.00     0.125 HD
HETATM   25  H   UNL     1     -45.372  55.669 -54.420  1.00  0.00     0.125 HD
ENDBRANCH   3  23
BRANCH   4  26
HETATM   26  N   UNL     1     -42.207  54.880 -52.732  1.00  0.00    -0.314 N 
HETATM   27  C   UNL     1     -41.065  54.708 -53.488  1.00  0.00     0.280 C 
HETATM   28  O   UNL     1     -40.472  55.599 -54.083  1.00  0.00    -0.265 OA
HETATM   29  H   UNL     1     -42.421  54.116 -52.098  1.00  0.00     0.169 HD
BRANCH  27  30
HETATM   30  C   UNL     1     -40.558  53.349 -53.439  1.00  0.00     0.144 A 
HETATM   31  O   UNL     1     -40.433  52.719 -52.228  1.00  0.00    -0.298 OA
HETATM   32  C   UNL     1     -39.895  51.492 -52.468  1.00  0.00     0.122 A 
HETATM   33 BR   UNL     1     -39.498  50.248 -51.136  1.00  0.00    -0.023 Br
HETATM   34  C   UNL     1     -39.684  51.314 -53.815  1.00  0.00     0.048 A 
HETATM   35  C   UNL     1     -40.111  52.509 -54.443  1.00  0.00     0.046 A 
ENDBRANCH  27  30
ENDBRANCH   4  26
TORSDOF 8
ENDMDL
MODEL 9
REMARK VINA RESULT:      -7.5      3.491      7.976
REMARK  8 active torsions:
REMARK  status: ('A' for Active; 'I' for Inactive)
REMARK    1  A    between atoms: C_5  and  C_6 
REMARK    2  A    between atoms: C_6  and  N_7 
REMARK       I    between atoms: N_7  and  C_8 
REMARK    3  A    between atoms: C_8  and  C_9 
REMARK    4  A    between atoms: C_9  and  S_10 
REMARK    5  A    between atoms: S_10  and  C_11 
REMARK    6  A    between atoms: C_13  and  N_14 
REMARK    7  A    between atoms: C_15  and  N_16 
REMARK       I    between atoms: N_16  and  C_17 
REMARK    8  A    between atoms: C_17  and  C_18 
ROOT
HETATM    1  C   UNL     1     -42.762  59.219 -54.914  1.00  0.00     0.171 C 
HETATM    2  N   UNL     1     -42.890  58.179 -55.662  1.00  0.00    -0.210 NA
HETATM    3  C   UNL     1     -42.235  57.038 -55.279  1.00  0.00     0.136 C 
HETATM    4  C   UNL     1     -41.394  56.993 -54.217  1.00  0.00     0.144 C 
HETATM    5  C   UNL     1     -41.059  58.309 -53.592  1.00  0.00     0.277 C 
HETATM    6  O   UNL     1     -39.988  58.561 -53.052  1.00  0.00    -0.266 OA
HETATM    7  N   UNL     1     -41.976  59.290 -53.815  1.00  0.00    -0.300 N 
HETATM    8  H   UNL     1     -41.785  60.194 -53.413  1.00  0.00     0.171 HD
ENDROOT
BRANCH   1   9
HETATM    9  S   UNL     1     -43.626  60.689 -55.231  1.00  0.00    -0.083 SA
BRANCH   9  10
HETATM   10  C   UNL     1     -42.585  61.390 -56.540  1.00  0.00     0.185 C 
BRANCH  10  11
HETATM   11  C   UNL     1     -42.888  60.882 -57.940  1.00  0.00     0.227 C 
HETATM   12  N   UNL     1     -42.038  59.922 -58.441  1.00  0.00    -0.356 N 
HETATM   13  H   UNL     1     -41.104  59.897 -58.048  1.00  0.00     0.162 HD
HETATM   14  O   UNL     1     -43.896  61.252 -58.542  1.00  0.00    -0.273 OA
BRANCH  12  15
HETATM   15  C   UNL     1     -42.187  59.485 -59.810  1.00  0.00     0.161 C 
BRANCH  15  16
HETATM   16  C   UNL     1     -42.880  58.154 -59.910  1.00  0.00    -0.041 A 
HETATM   17  C   UNL     1     -42.181  56.964 -59.668  1.00  0.00     0.009 A 
HETATM   18  C   UNL     1     -42.838  55.731 -59.705  1.00  0.00     0.007 A 
HETATM   19  C   UNL     1     -44.206  55.665 -59.986  1.00  0.00    -0.062 A 
HETATM   20  C   UNL     1     -44.931  54.352 -59.978  1.00  0.00     0.048 C 
HETATM   21  C   UNL     1     -44.909  56.852 -60.223  1.00  0.00     0.007 A 
HETATM   22  C   UNL     1     -44.252  58.084 -60.189  1.00  0.00     0.009 A 
ENDBRANCH  15  16
ENDBRANCH  12  15
ENDBRANCH  10  11
ENDBRANCH   9  10
ENDBRANCH   1   9
BRANCH   3  23
HETATM   23  N   UNL     1     -42.509  55.886 -56.007  1.00  0.00    -0.285 NA
HETATM   24  H   UNL     1     -41.612  55.440 -56.200  1.00  0.00     0.125 HD
HETATM   25  H   UNL     1     -43.064  55.241 -55.447  1.00  0.00     0.125 HD
ENDBRANCH   3  23
BRANCH   4  26
HETATM   26  N   UNL     1     -40.893  55.787 -53.772  1.00  0.00    -0.314 N 
HETATM   27  C   UNL     1     -41.314  55.059 -52.677  1.00  0.00     0.280 C 
HETATM   28  O   UNL     1     -42.205  55.393 -51.907  1.00  0.00    -0.265 OA
HETATM   29  H   UNL     1     -40.344  55.266 -54.449  1.00  0.00     0.169 HD
BRANCH  27  30
HETATM   30  C   UNL     1     -40.646  53.774 -52.567  1.00  0.00     0.144 A 
HETATM   31  O   UNL     1     -40.657  52.915 -53.636  1.00  0.00    -0.298 OA
HETATM   32  C   UNL     1     -40.012  51.782 -53.247  1.00  0.00     0.122 A 
HETATM   33 BR   UNL     1     -39.779  50.286 -54.336  1.00  0.00    -0.023 Br
HETATM   34  C   UNL     1     -39.572  51.901 -51.949  1.00  0.00     0.048 A 
HETATM   35  C   UNL     1     -39.980  53.184 -51.509  1.00  0.00     0.046 A 
ENDBRANCH  27  30
ENDBRANCH   4  26
TORSDOF 8
ENDMDL
MODEL 10
REMARK VINA RESULT:      -7.4      5.060      7.985
REMARK  8 active torsions:
REMARK  status: ('A' for Active; 'I' for Inactive)
REMARK    1  A    between atoms: C_5  and  C_6 
REMARK    2  A    between atoms: C_6  and  N_7 
REMARK       I    between atoms: N_7  and  C_8 
REMARK    3  A    between atoms: C_8  and  C_9 
REMARK    4  A    between atoms: C_9  and  S_10 
REMARK    5  A    between atoms: S_10  and  C_11 
REMARK    6  A    between atoms: C_13  and  N_14 
REMARK    7  A    between atoms: C_15  and  N_16 
REMARK       I    between atoms: N_16  and  C_17 
REMARK    8  A    between atoms: C_17  and  C_18 
ROOT
HETATM    1  C   UNL     1     -43.286  58.872 -53.432  1.00  0.00     0.171 C 
HETATM    2  N   UNL     1     -44.084  58.114 -52.765  1.00  0.00    -0.210 NA
HETATM    3  C   UNL     1     -44.464  58.535 -51.517  1.00  0.00     0.136 C 
HETATM    4  C   UNL     1     -43.960  59.649 -50.932  1.00  0.00     0.144 C 
HETATM    5  C   UNL     1     -42.814  60.298 -51.638  1.00  0.00     0.277 C 
HETATM    6  O   UNL     1     -41.914  60.908 -51.072  1.00  0.00    -0.266 OA
HETATM    7  N   UNL     1     -42.740  60.019 -52.968  1.00  0.00    -0.300 N 
HETATM    8  H   UNL     1     -41.978  60.436 -53.481  1.00  0.00     0.171 HD
ENDROOT
BRANCH   1   9
HETATM    9  S   UNL     1     -42.819  58.505 -55.061  1.00  0.00    -0.083 SA
BRANCH   9  10
HETATM   10  C   UNL     1     -43.568  56.863 -55.241  1.00  0.00     0.185 C 
BRANCH  10  11
HETATM   11  C   UNL     1     -42.629  55.784 -55.756  1.00  0.00     0.227 C 
HETATM   12  N   UNL     1     -41.826  55.172 -54.820  1.00  0.00    -0.356 N 
HETATM   13  H   UNL     1     -41.629  55.702 -53.978  1.00  0.00     0.162 HD
HETATM   14  O   UNL     1     -42.664  55.424 -56.932  1.00  0.00    -0.273 OA
BRANCH  12  15
HETATM   15  C   UNL     1     -40.820  54.229 -55.252  1.00  0.00     0.161 C 
BRANCH  15  16
HETATM   16  C   UNL     1     -40.429  53.273 -54.157  1.00  0.00    -0.041 A 
HETATM   17  C   UNL     1     -40.618  53.612 -52.811  1.00  0.00     0.009 A 
HETATM   18  C   UNL     1     -40.308  52.703 -51.797  1.00  0.00     0.007 A 
HETATM   19  C   UNL     1     -39.802  51.437 -52.110  1.00  0.00    -0.062 A 
HETATM   20  C   UNL     1     -39.514  50.436 -51.031  1.00  0.00     0.048 C 
HETATM   21  C   UNL     1     -39.618  51.093 -53.454  1.00  0.00     0.007 A 
HETATM   22  C   UNL     1     -39.925  52.003 -54.468  1.00  0.00     0.009 A 
ENDBRANCH  15  16
ENDBRANCH  12  15
ENDBRANCH  10  11
ENDBRANCH   9  10
ENDBRANCH   1   9
BRANCH   3  23
HETATM   23  N   UNL     1     -45.445  57.787 -50.876  1.00  0.00    -0.285 NA
HETATM   24  H   UNL     1     -46.032  57.386 -51.608  1.00  0.00     0.125 HD
HETATM   25  H   UNL     1     -45.018  57.018 -50.362  1.00  0.00     0.125 HD
ENDBRANCH   3  23
BRANCH   4  26
HETATM   26  N   UNL     1     -44.496  60.122 -49.751  1.00  0.00    -0.314 N 
HETATM   27  C   UNL     1     -45.302  61.230 -49.583  1.00  0.00     0.280 C 
HETATM   28  O   UNL     1     -45.655  61.989 -50.477  1.00  0.00    -0.265 OA
HETATM   29  H   UNL     1     -44.512  59.458 -48.983  1.00  0.00     0.169 HD
BRANCH  27  30
HETATM   30  C   UNL     1     -45.787  61.370 -48.221  1.00  0.00     0.144 A 
HETATM   31  O   UNL     1     -46.398  62.537 -47.839  1.00  0.00    -0.298 OA
HETATM   32  C   UNL     1     -46.703  62.416 -46.519  1.00  0.00     0.122 A 
HETATM   33 BR   UNL     1     -47.526  63.752 -45.511  1.00  0.00    -0.023 Br
HETATM   34  C   UNL     1     -46.311  61.186 -46.045  1.00  0.00     0.048 A 
HETATM   35  C   UNL     1     -45.721  60.510 -47.141  1.00  0.00     0.046 A 
ENDBRANCH  27  30
ENDBRANCH   4  26
TORSDOF 8
ENDMDL
