MODEL 1
REMARK VINA RESULT:      -7.8      0.000      0.000
REMARK  6 active torsions:
REMARK  status: ('A' for Active; 'I' for Inactive)
REMARK    1  A    between atoms: C_6  and  C_7 
REMARK       I    between atoms: C_7  and  N_8 
REMARK    2  A    between atoms: N_8  and  C_9 
REMARK    3  A    between atoms: C_9  and  C_10 
REMARK    4  A    between atoms: C_10  and  O_11 
REMARK    5  A    between atoms: C_10  and  C_12 
REMARK    6  A    between atoms: C_15  and  O_16 
ROOT
HETATM    1  C   UNL     1     -43.051  55.692 -56.920  1.00  0.00     0.258 C 
HETATM    2  N   UNL     1     -42.767  56.557 -55.893  1.00  0.00    -0.350 N 
HETATM    3  O   UNL     1     -43.236  54.493 -56.723  1.00  0.00    -0.267 OA
HETATM    4  H   UNL     1     -42.581  57.527 -56.148  1.00  0.00     0.163 HD
ENDROOT
BRANCH   2   5
HETATM    5  C   UNL     1     -42.759  56.175 -54.483  1.00  0.00     0.114 C 
HETATM    6  C   UNL     1     -43.631  57.149 -53.691  1.00  0.00     0.035 C 
BRANCH   5   7
HETATM    7  C   UNL     1     -41.336  56.017 -53.854  1.00  0.00     0.173 C 
BRANCH   7   8
HETATM    8  O   UNL     1     -41.180  56.784 -52.655  1.00  0.00    -0.389 OA
HETATM    9  H   UNL     1     -41.151  57.731 -52.903  1.00  0.00     0.210 HD
ENDBRANCH   7   8
BRANCH   7  10
HETATM   10  C   UNL     1     -40.888  54.591 -53.596  1.00  0.00    -0.028 A 
HETATM   11  C   UNL     1     -40.618  53.730 -54.668  1.00  0.00     0.012 A 
HETATM   12  C   UNL     1     -40.180  52.422 -54.439  1.00  0.00     0.037 A 
HETATM   13  C   UNL     1     -39.987  51.954 -53.140  1.00  0.00     0.068 A 
HETATM   14  C   UNL     1     -40.270  52.795 -52.065  1.00  0.00     0.037 A 
HETATM   15  C   UNL     1     -40.718  54.102 -52.292  1.00  0.00     0.012 A 
BRANCH  13  16
HETATM   16  O   UNL     1     -39.532  50.667 -53.051  1.00  0.00    -0.356 OA
HETATM   17  C   UNL     1     -39.540  49.915 -54.259  1.00  0.00     0.210 C 
ENDBRANCH  13  16
ENDBRANCH   7  10
ENDBRANCH   5   7
ENDBRANCH   2   5
BRANCH   1  18
HETATM   18  C   UNL     1     -43.112  56.290 -58.241  1.00  0.00     0.105 A 
HETATM   19  C   UNL     1     -43.671  55.737 -59.424  1.00  0.00     0.071 A 
HETATM   20  C   UNL     1     -44.306  54.404 -59.594  1.00  0.00     0.073 C 
HETATM   21  N   UNL     1     -43.580  56.568 -60.469  1.00  0.00    -0.170 NA
HETATM   22  N   UNL     1     -42.974  57.672 -59.980  1.00  0.00    -0.225 N 
HETATM   23  C   UNL     1     -42.656  57.539 -58.625  1.00  0.00     0.168 A 
HETATM   24  C   UNL     1     -42.672  58.844 -60.665  1.00  0.00     0.122 A 
HETATM   25  N   UNL     1     -42.027  58.541 -57.925  1.00  0.00    -0.240 NA
HETATM   26  C   UNL     1     -41.761  59.621 -58.600  1.00  0.00     0.120 A 
HETATM   27  C   UNL     1     -42.070  59.862 -60.036  1.00  0.00     0.038 A 
ENDBRANCH   1  18
TORSDOF 6
ENDMDL
MODEL 2
REMARK VINA RESULT:      -7.7      2.167      3.865
REMARK  6 active torsions:
REMARK  status: ('A' for Active; 'I' for Inactive)
REMARK    1  A    between atoms: C_6  and  C_7 
REMARK       I    between atoms: C_7  and  N_8 
REMARK    2  A    between atoms: N_8  and  C_9 
REMARK    3  A    between atoms: C_9  and  C_10 
REMARK    4  A    between atoms: C_10  and  O_11 
REMARK    5  A    between atoms: C_10  and  C_12 
REMARK    6  A    between atoms: C_15  and  O_16 
ROOT
HETATM    1  C   UNL     1     -43.178  57.294 -53.163  1.00  0.00     0.258 C 
HETATM    2  N   UNL     1     -42.156  56.767 -52.414  1.00  0.00    -0.350 N 
HETATM    3  O   UNL     1     -44.352  57.205 -52.810  1.00  0.00    -0.267 OA
HETATM    4  H   UNL     1     -41.216  56.843 -52.801  1.00  0.00     0.163 HD
ENDROOT
BRANCH   2   5
HETATM    5  C   UNL     1     -42.340  56.156 -51.100  1.00  0.00     0.114 C 
HETATM    6  C   UNL     1     -41.110  56.434 -50.236  1.00  0.00     0.035 C 
BRANCH   5   7
HETATM    7  C   UNL     1     -42.703  54.635 -51.130  1.00  0.00     0.173 C 
BRANCH   7   8
HETATM    8  O   UNL     1     -44.042  54.401 -51.583  1.00  0.00    -0.389 OA
HETATM    9  H   UNL     1     -44.575  54.110 -50.814  1.00  0.00     0.210 HD
ENDBRANCH   7   8
BRANCH   7  10
HETATM   10  C   UNL     1     -41.752  53.748 -51.910  1.00  0.00    -0.028 A 
HETATM   11  C   UNL     1     -40.741  53.039 -51.247  1.00  0.00     0.012 A 
HETATM   12  C   UNL     1     -39.875  52.201 -51.954  1.00  0.00     0.037 A 
HETATM   13  C   UNL     1     -40.011  52.039 -53.333  1.00  0.00     0.068 A 
HETATM   14  C   UNL     1     -40.999  52.754 -54.008  1.00  0.00     0.037 A 
HETATM   15  C   UNL     1     -41.861  53.602 -53.301  1.00  0.00     0.012 A 
BRANCH  13  16
HETATM   16  O   UNL     1     -39.120  51.173 -53.903  1.00  0.00    -0.356 OA
HETATM   17  C   UNL     1     -39.656  49.941 -54.374  1.00  0.00     0.210 C 
ENDBRANCH  13  16
ENDBRANCH   7  10
ENDBRANCH   5   7
ENDBRANCH   2   5
BRANCH   1  18
HETATM   18  C   UNL     1     -42.776  57.952 -54.392  1.00  0.00     0.105 A 
HETATM   19  C   UNL     1     -42.224  59.252 -54.546  1.00  0.00     0.071 A 
HETATM   20  C   UNL     1     -41.947  60.255 -53.485  1.00  0.00     0.073 C 
HETATM   21  N   UNL     1     -41.943  59.540 -55.823  1.00  0.00    -0.170 NA
HETATM   22  N   UNL     1     -42.297  58.434 -56.512  1.00  0.00    -0.225 N 
HETATM   23  C   UNL     1     -42.826  57.444 -55.679  1.00  0.00     0.168 A 
HETATM   24  C   UNL     1     -42.178  58.216 -57.881  1.00  0.00     0.122 A 
HETATM   25  N   UNL     1     -43.258  56.235 -56.171  1.00  0.00    -0.240 NA
HETATM   26  C   UNL     1     -43.131  56.069 -57.455  1.00  0.00     0.120 A 
HETATM   27  C   UNL     1     -42.572  57.055 -58.420  1.00  0.00     0.038 A 
ENDBRANCH   1  18
TORSDOF 6
ENDMDL
MODEL 3
REMARK VINA RESULT:      -7.6      2.949      7.980
REMARK  6 active torsions:
REMARK  status: ('A' for Active; 'I' for Inactive)
REMARK    1  A    between atoms: C_6  and  C_7 
REMARK       I    between atoms: C_7  and  N_8 
REMARK    2  A    between atoms: N_8  and  C_9 
REMARK    3  A    between atoms: C_9  and  C_10 
REMARK    4  A    between atoms: C_10  and  O_11 
REMARK    5  A    between atoms: C_10  and  C_12 
REMARK    6  A    between atoms: C_15  and  O_16 
ROOT
HETATM    1  C   UNL     1     -40.883  54.541 -53.460  1.00  0.00     0.258 C 
HETATM    2  N   UNL     1     -42.107  55.074 -53.141  1.00  0.00    -0.350 N 
HETATM    3  O   UNL     1     -40.216  54.969 -54.399  1.00  0.00    -0.267 OA
HETATM    4  H   UNL     1     -42.616  54.630 -52.377  1.00  0.00     0.163 HD
ENDROOT
BRANCH   2   5
HETATM    5  C   UNL     1     -42.683  56.244 -53.799  1.00  0.00     0.114 C 
HETATM    6  C   UNL     1     -43.348  57.136 -52.751  1.00  0.00     0.035 C 
BRANCH   5   7
HETATM    7  C   UNL     1     -43.644  55.920 -54.989  1.00  0.00     0.173 C 
BRANCH   7   8
HETATM    8  O   UNL     1     -44.980  56.381 -54.755  1.00  0.00    -0.389 OA
HETATM    9  H   UNL     1     -45.155  56.323 -53.793  1.00  0.00     0.210 HD
ENDBRANCH   7   8
BRANCH   7  10
HETATM   10  C   UNL     1     -43.184  56.400 -56.353  1.00  0.00    -0.028 A 
HETATM   11  C   UNL     1     -43.246  55.544 -57.461  1.00  0.00     0.012 A 
HETATM   12  C   UNL     1     -42.848  55.985 -58.726  1.00  0.00     0.037 A 
HETATM   13  C   UNL     1     -42.397  57.291 -58.914  1.00  0.00     0.068 A 
HETATM   14  C   UNL     1     -42.312  58.146 -57.817  1.00  0.00     0.037 A 
HETATM   15  C   UNL     1     -42.701  57.703 -56.547  1.00  0.00     0.012 A 
BRANCH  13  16
HETATM   16  O   UNL     1     -42.063  57.607 -60.202  1.00  0.00    -0.356 OA
HETATM   17  C   UNL     1     -42.124  58.986 -60.546  1.00  0.00     0.210 C 
ENDBRANCH  13  16
ENDBRANCH   7  10
ENDBRANCH   5   7
ENDBRANCH   2   5
BRANCH   1  18
HETATM   18  C   UNL     1     -40.442  53.444 -52.619  1.00  0.00     0.105 A 
HETATM   19  C   UNL     1     -40.214  53.455 -51.217  1.00  0.00     0.071 A 
HETATM   20  C   UNL     1     -40.353  54.602 -50.281  1.00  0.00     0.073 C 
HETATM   21  N   UNL     1     -39.832  52.260 -50.751  1.00  0.00    -0.170 NA
HETATM   22  N   UNL     1     -39.816  51.456 -51.836  1.00  0.00    -0.225 N 
HETATM   23  C   UNL     1     -40.167  52.142 -53.003  1.00  0.00     0.168 A 
HETATM   24  C   UNL     1     -39.510  50.099 -51.880  1.00  0.00     0.122 A 
HETATM   25  N   UNL     1     -40.210  51.518 -54.227  1.00  0.00    -0.240 NA
HETATM   26  C   UNL     1     -39.917  50.251 -54.227  1.00  0.00     0.120 A 
HETATM   27  C   UNL     1     -39.544  49.433 -53.041  1.00  0.00     0.038 A 
ENDBRANCH   1  18
TORSDOF 6
ENDMDL
MODEL 4
REMARK VINA RESULT:      -7.6     15.527     18.351
REMARK  6 active torsions:
REMARK  status: ('A' for Active; 'I' for Inactive)
REMARK    1  A    between atoms: C_6  and  C_7 
REMARK       I    between atoms: C_7  and  N_8 
REMARK    2  A    between atoms: N_8  and  C_9 
REMARK    3  A    between atoms: C_9  and  C_10 
REMARK    4  A    between atoms: C_10  and  O_11 
REMARK    5  A    between atoms: C_10  and  C_12 
REMARK    6  A    between atoms: C_15  and  O_16 
ROOT
HETATM    1  C   UNL     1     -33.399  40.190 -52.620  1.00  0.00     0.258 C 
HETATM    2  N   UNL     1     -34.697  40.008 -53.026  1.00  0.00    -0.350 N 
HETATM    3  O   UNL     1     -33.086  41.083 -51.835  1.00  0.00    -0.267 OA
HETATM    4  H   UNL     1     -34.864  39.275 -53.713  1.00  0.00     0.163 HD
ENDROOT
BRANCH   2   5
HETATM    5  C   UNL     1     -35.830  40.768 -52.501  1.00  0.00     0.114 C 
HETATM    6  C   UNL     1     -37.069  39.873 -52.473  1.00  0.00     0.035 C 
BRANCH   5   7
HETATM    7  C   UNL     1     -36.102  42.125 -53.229  1.00  0.00     0.173 C 
BRANCH   7   8
HETATM    8  O   UNL     1     -35.161  43.140 -52.864  1.00  0.00    -0.389 OA
HETATM    9  H   UNL     1     -35.403  43.472 -51.975  1.00  0.00     0.210 HD
ENDBRANCH   7   8
BRANCH   7  10
HETATM   10  C   UNL     1     -36.194  42.051 -54.741  1.00  0.00    -0.028 A 
HETATM   11  C   UNL     1     -37.415  41.753 -55.362  1.00  0.00     0.012 A 
HETATM   12  C   UNL     1     -37.514  41.707 -56.756  1.00  0.00     0.037 A 
HETATM   13  C   UNL     1     -36.404  41.975 -57.557  1.00  0.00     0.068 A 
HETATM   14  C   UNL     1     -35.179  42.253 -56.951  1.00  0.00     0.037 A 
HETATM   15  C   UNL     1     -35.076  42.289 -55.555  1.00  0.00     0.012 A 
BRANCH  13  16
HETATM   16  O   UNL     1     -36.638  41.923 -58.903  1.00  0.00    -0.356 OA
HETATM   17  C   UNL     1     -37.473  40.863 -59.354  1.00  0.00     0.210 C 
ENDBRANCH  13  16
ENDBRANCH   7  10
ENDBRANCH   5   7
ENDBRANCH   2   5
BRANCH   1  18
HETATM   18  C   UNL     1     -32.434  39.264 -53.181  1.00  0.00     0.105 A 
HETATM   19  C   UNL     1     -31.944  38.059 -52.609  1.00  0.00     0.071 A 
HETATM   20  C   UNL     1     -32.290  37.473 -51.287  1.00  0.00     0.073 C 
HETATM   21  N   UNL     1     -31.074  37.430 -53.408  1.00  0.00    -0.170 NA
HETATM   22  N   UNL     1     -30.995  38.207 -54.510  1.00  0.00    -0.225 N 
HETATM   23  C   UNL     1     -31.797  39.347 -54.408  1.00  0.00     0.168 A 
HETATM   24  C   UNL     1     -30.240  37.975 -55.656  1.00  0.00     0.122 A 
HETATM   25  N   UNL     1     -31.863  40.282 -55.414  1.00  0.00    -0.240 NA
HETATM   26  C   UNL     1     -31.144  40.030 -56.468  1.00  0.00     0.120 A 
HETATM   27  C   UNL     1     -30.270  38.843 -56.676  1.00  0.00     0.038 A 
ENDBRANCH   1  18
TORSDOF 6
ENDMDL
MODEL 5
REMARK VINA RESULT:      -7.4      2.162      2.890
REMARK  6 active torsions:
REMARK  status: ('A' for Active; 'I' for Inactive)
REMARK    1  A    between atoms: C_6  and  C_7 
REMARK       I    between atoms: C_7  and  N_8 
REMARK    2  A    between atoms: N_8  and  C_9 
REMARK    3  A    between atoms: C_9  and  C_10 
REMARK    4  A    between atoms: C_10  and  O_11 
REMARK    5  A    between atoms: C_10  and  C_12 
REMARK    6  A    between atoms: C_15  and  O_16 
ROOT
HETATM    1  C   UNL     1     -43.244  56.939 -53.765  1.00  0.00     0.258 C 
HETATM    2  N   UNL     1     -42.202  56.627 -52.929  1.00  0.00    -0.350 N 
HETATM    3  O   UNL     1     -44.414  56.882 -53.391  1.00  0.00    -0.267 OA
HETATM    4  H   UNL     1     -41.266  56.655 -53.331  1.00  0.00     0.163 HD
ENDROOT
BRANCH   2   5
HETATM    5  C   UNL     1     -42.361  56.306 -51.512  1.00  0.00     0.114 C 
HETATM    6  C   UNL     1     -41.146  56.817 -50.739  1.00  0.00     0.035 C 
BRANCH   5   7
HETATM    7  C   UNL     1     -42.657  54.800 -51.211  1.00  0.00     0.173 C 
BRANCH   7   8
HETATM    8  O   UNL     1     -44.008  54.436 -51.517  1.00  0.00    -0.389 OA
HETATM    9  H   UNL     1     -43.998  53.540 -51.912  1.00  0.00     0.210 HD
ENDBRANCH   7   8
BRANCH   7  10
HETATM   10  C   UNL     1     -41.715  53.804 -51.858  1.00  0.00    -0.028 A 
HETATM   11  C   UNL     1     -41.833  53.502 -53.222  1.00  0.00     0.012 A 
HETATM   12  C   UNL     1     -40.954  52.603 -53.833  1.00  0.00     0.037 A 
HETATM   13  C   UNL     1     -39.929  52.003 -53.101  1.00  0.00     0.068 A 
HETATM   14  C   UNL     1     -39.813  52.280 -51.740  1.00  0.00     0.037 A 
HETATM   15  C   UNL     1     -40.700  53.172 -51.124  1.00  0.00     0.012 A 
BRANCH  13  16
HETATM   16  O   UNL     1     -39.122  51.165 -53.819  1.00  0.00    -0.356 OA
HETATM   17  C   UNL     1     -39.722  49.961 -54.283  1.00  0.00     0.210 C 
ENDBRANCH  13  16
ENDBRANCH   7  10
ENDBRANCH   5   7
ENDBRANCH   2   5
BRANCH   1  18
HETATM   18  C   UNL     1     -42.868  57.333 -55.111  1.00  0.00     0.105 A 
HETATM   19  C   UNL     1     -42.691  56.499 -56.247  1.00  0.00     0.071 A 
HETATM   20  C   UNL     1     -42.826  55.020 -56.322  1.00  0.00     0.073 C 
HETATM   21  N   UNL     1     -42.364  57.193 -57.344  1.00  0.00    -0.170 NA
HETATM   22  N   UNL     1     -42.336  58.482 -56.941  1.00  0.00    -0.225 N 
HETATM   23  C   UNL     1     -42.622  58.612 -55.579  1.00  0.00     0.168 A 
HETATM   24  C   UNL     1     -42.072  59.605 -57.718  1.00  0.00     0.122 A 
HETATM   25  N   UNL     1     -42.641  59.837 -54.955  1.00  0.00    -0.240 NA
HETATM   26  C   UNL     1     -42.389  60.862 -55.714  1.00  0.00     0.120 A 
HETATM   27  C   UNL     1     -42.086  60.827 -57.171  1.00  0.00     0.038 A 
ENDBRANCH   1  18
TORSDOF 6
ENDMDL
MODEL 6
REMARK VINA RESULT:      -7.3      3.731      8.070
REMARK  6 active torsions:
REMARK  status: ('A' for Active; 'I' for Inactive)
REMARK    1  A    between atoms: C_6  and  C_7 
REMARK       I    between atoms: C_7  and  N_8 
REMARK    2  A    between atoms: N_8  and  C_9 
REMARK    3  A    between atoms: C_9  and  C_10 
REMARK    4  A    between atoms: C_10  and  O_11 
REMARK    5  A    between atoms: C_10  and  C_12 
REMARK    6  A    between atoms: C_15  and  O_16 
ROOT
HETATM    1  C   UNL     1     -42.132  54.814 -53.910  1.00  0.00     0.258 C 
HETATM    2  N   UNL     1     -42.213  56.177 -53.775  1.00  0.00    -0.350 N 
HETATM    3  O   UNL     1     -42.670  54.224 -54.845  1.00  0.00    -0.267 OA
HETATM    4  H   UNL     1     -41.779  56.582 -52.946  1.00  0.00     0.163 HD
ENDROOT
BRANCH   2   5
HETATM    5  C   UNL     1     -42.839  57.059 -54.757  1.00  0.00     0.114 C 
HETATM    6  C   UNL     1     -42.076  58.382 -54.807  1.00  0.00     0.035 C 
BRANCH   5   7
HETATM    7  C   UNL     1     -44.375  57.274 -54.559  1.00  0.00     0.173 C 
BRANCH   7   8
HETATM    8  O   UNL     1     -45.109  56.045 -54.595  1.00  0.00    -0.389 OA
HETATM    9  H   UNL     1     -45.399  55.839 -53.682  1.00  0.00     0.210 HD
ENDBRANCH   7   8
BRANCH   7  10
HETATM   10  C   UNL     1     -44.774  58.056 -53.323  1.00  0.00    -0.028 A 
HETATM   11  C   UNL     1     -45.275  59.360 -53.442  1.00  0.00     0.012 A 
HETATM   12  C   UNL     1     -45.668  60.080 -52.310  1.00  0.00     0.037 A 
HETATM   13  C   UNL     1     -45.586  59.508 -51.040  1.00  0.00     0.068 A 
HETATM   14  C   UNL     1     -45.071  58.219 -50.906  1.00  0.00     0.037 A 
HETATM   15  C   UNL     1     -44.668  57.501 -52.039  1.00  0.00     0.012 A 
BRANCH  13  16
HETATM   16  O   UNL     1     -46.025  60.304 -50.019  1.00  0.00    -0.356 OA
HETATM   17  C   UNL     1     -45.555  61.648 -50.025  1.00  0.00     0.210 C 
ENDBRANCH  13  16
ENDBRANCH   7  10
ENDBRANCH   5   7
ENDBRANCH   2   5
BRANCH   1  18
HETATM   18  C   UNL     1     -41.377  54.128 -52.878  1.00  0.00     0.105 A 
HETATM   19  C   UNL     1     -40.532  52.995 -53.022  1.00  0.00     0.071 A 
HETATM   20  C   UNL     1     -40.237  52.231 -54.263  1.00  0.00     0.073 C 
HETATM   21  N   UNL     1     -39.967  52.629 -51.866  1.00  0.00    -0.170 NA
HETATM   22  N   UNL     1     -40.426  53.519 -50.960  1.00  0.00    -0.225 N 
HETATM   23  C   UNL     1     -41.305  54.444 -51.532  1.00  0.00     0.168 A 
HETATM   24  C   UNL     1     -40.112  53.588 -49.607  1.00  0.00     0.122 A 
HETATM   25  N   UNL     1     -41.897  55.438 -50.790  1.00  0.00    -0.240 NA
HETATM   26  C   UNL     1     -41.578  55.469 -49.530  1.00  0.00     0.120 A 
HETATM   27  C   UNL     1     -40.649  54.540 -48.832  1.00  0.00     0.038 A 
ENDBRANCH   1  18
TORSDOF 6
ENDMDL
MODEL 7
REMARK VINA RESULT:      -7.2      1.632      3.082
REMARK  6 active torsions:
REMARK  status: ('A' for Active; 'I' for Inactive)
REMARK    1  A    between atoms: C_6  and  C_7 
REMARK       I    between atoms: C_7  and  N_8 
REMARK    2  A    between atoms: N_8  and  C_9 
REMARK    3  A    between atoms: C_9  and  C_10 
REMARK    4  A    between atoms: C_10  and  O_11 
REMARK    5  A    between atoms: C_10  and  C_12 
REMARK    6  A    between atoms: C_15  and  O_16 
ROOT
HETATM    1  C   UNL     1     -42.683  58.550 -55.412  1.00  0.00     0.258 C 
HETATM    2  N   UNL     1     -42.264  57.408 -54.778  1.00  0.00    -0.350 N 
HETATM    3  O   UNL     1     -43.139  59.507 -54.788  1.00  0.00    -0.267 OA
HETATM    4  H   UNL     1     -41.944  56.644 -55.372  1.00  0.00     0.163 HD
ENDROOT
BRANCH   2   5
HETATM    5  C   UNL     1     -42.217  57.251 -53.326  1.00  0.00     0.114 C 
HETATM    6  C   UNL     1     -40.800  57.543 -52.832  1.00  0.00     0.035 C 
BRANCH   5   7
HETATM    7  C   UNL     1     -42.752  55.881 -52.796  1.00  0.00     0.173 C 
BRANCH   7   8
HETATM    8  O   UNL     1     -44.061  55.576 -53.292  1.00  0.00    -0.389 OA
HETATM    9  H   UNL     1     -44.026  54.694 -53.715  1.00  0.00     0.210 HD
ENDBRANCH   7   8
BRANCH   7  10
HETATM   10  C   UNL     1     -41.843  54.688 -53.026  1.00  0.00    -0.028 A 
HETATM   11  C   UNL     1     -41.175  54.091 -51.949  1.00  0.00     0.012 A 
HETATM   12  C   UNL     1     -40.354  52.977 -52.147  1.00  0.00     0.037 A 
HETATM   13  C   UNL     1     -40.199  52.426 -53.419  1.00  0.00     0.068 A 
HETATM   14  C   UNL     1     -40.843  53.023 -54.502  1.00  0.00     0.037 A 
HETATM   15  C   UNL     1     -41.657  54.145 -54.306  1.00  0.00     0.012 A 
BRANCH  13  16
HETATM   16  O   UNL     1     -39.392  51.324 -53.476  1.00  0.00    -0.356 OA
HETATM   17  C   UNL     1     -39.855  50.249 -54.287  1.00  0.00     0.210 C 
ENDBRANCH  13  16
ENDBRANCH   7  10
ENDBRANCH   5   7
ENDBRANCH   2   5
BRANCH   1  18
HETATM   18  C   UNL     1     -42.555  58.545 -56.857  1.00  0.00     0.105 A 
HETATM   19  C   UNL     1     -42.099  59.596 -57.697  1.00  0.00     0.071 A 
HETATM   20  C   UNL     1     -41.666  60.960 -57.295  1.00  0.00     0.073 C 
HETATM   21  N   UNL     1     -42.083  59.248 -58.989  1.00  0.00    -0.170 NA
HETATM   22  N   UNL     1     -42.516  57.968 -59.007  1.00  0.00    -0.225 N 
HETATM   23  C   UNL     1     -42.831  57.504 -57.727  1.00  0.00     0.168 A 
HETATM   24  C   UNL     1     -42.654  57.137 -60.114  1.00  0.00     0.122 A 
HETATM   25  N   UNL     1     -43.297  56.228 -57.512  1.00  0.00    -0.240 NA
HETATM   26  C   UNL     1     -43.413  55.482 -58.571  1.00  0.00     0.120 A 
HETATM   27  C   UNL     1     -43.094  55.881 -59.969  1.00  0.00     0.038 A 
ENDBRANCH   1  18
TORSDOF 6
ENDMDL
MODEL 8
REMARK VINA RESULT:      -7.0      3.418      6.404
REMARK  6 active torsions:
REMARK  status: ('A' for Active; 'I' for Inactive)
REMARK    1  A    between atoms: C_6  and  C_7 
REMARK       I    between atoms: C_7  and  N_8 
REMARK    2  A    between atoms: N_8  and  C_9 
REMARK    3  A    between atoms: C_9  and  C_10 
REMARK    4  A    between atoms: C_10  and  O_11 
REMARK    5  A    between atoms: C_10  and  C_12 
REMARK    6  A    between atoms: C_15  and  O_16 
ROOT
HETATM    1  C   UNL     1     -41.807  57.550 -52.056  1.00  0.00     0.258 C 
HETATM    2  N   UNL     1     -42.368  57.303 -53.284  1.00  0.00    -0.350 N 
HETATM    3  O   UNL     1     -40.949  56.811 -51.576  1.00  0.00    -0.267 OA
HETATM    4  H   UNL     1     -43.105  57.937 -53.587  1.00  0.00     0.163 HD
ENDROOT
BRANCH   2   5
HETATM    5  C   UNL     1     -41.940  56.226 -54.174  1.00  0.00     0.114 C 
HETATM    6  C   UNL     1     -42.190  56.639 -55.624  1.00  0.00     0.035 C 
BRANCH   5   7
HETATM    7  C   UNL     1     -42.553  54.825 -53.849  1.00  0.00     0.173 C 
BRANCH   7   8
HETATM    8  O   UNL     1     -43.299  54.286 -54.947  1.00  0.00    -0.389 OA
HETATM    9  H   UNL     1     -44.061  54.879 -55.115  1.00  0.00     0.210 HD
ENDBRANCH   7   8
BRANCH   7  10
HETATM   10  C   UNL     1     -41.574  53.779 -53.352  1.00  0.00    -0.028 A 
HETATM   11  C   UNL     1     -41.277  53.681 -51.985  1.00  0.00     0.012 A 
HETATM   12  C   UNL     1     -40.395  52.704 -51.515  1.00  0.00     0.037 A 
HETATM   13  C   UNL     1     -39.805  51.796 -52.395  1.00  0.00     0.068 A 
HETATM   14  C   UNL     1     -40.077  51.895 -53.758  1.00  0.00     0.037 A 
HETATM   15  C   UNL     1     -40.953  52.879 -54.232  1.00  0.00     0.012 A 
BRANCH  13  16
HETATM   16  O   UNL     1     -38.983  50.875 -51.807  1.00  0.00    -0.356 OA
HETATM   17  C   UNL     1     -39.616  49.904 -50.981  1.00  0.00     0.210 C 
ENDBRANCH  13  16
ENDBRANCH   7  10
ENDBRANCH   5   7
ENDBRANCH   2   5
BRANCH   1  18
HETATM   18  C   UNL     1     -42.299  58.731 -51.371  1.00  0.00     0.105 A 
HETATM   19  C   UNL     1     -41.551  59.688 -50.635  1.00  0.00     0.071 A 
HETATM   20  C   UNL     1     -40.088  59.695 -50.374  1.00  0.00     0.073 C 
HETATM   21  N   UNL     1     -42.318  60.672 -50.149  1.00  0.00    -0.170 NA
HETATM   22  N   UNL     1     -43.567  60.375 -50.569  1.00  0.00    -0.225 N 
HETATM   23  C   UNL     1     -43.604  59.188 -51.306  1.00  0.00     0.168 A 
HETATM   24  C   UNL     1     -44.729  61.108 -50.350  1.00  0.00     0.122 A 
HETATM   25  N   UNL     1     -44.777  58.693 -51.826  1.00  0.00    -0.240 NA
HETATM   26  C   UNL     1     -45.841  59.405 -51.599  1.00  0.00     0.120 A 
HETATM   27  C   UNL     1     -45.901  60.683 -50.839  1.00  0.00     0.038 A 
ENDBRANCH   1  18
TORSDOF 6
ENDMDL
MODEL 9
REMARK VINA RESULT:      -7.0      3.259      7.714
REMARK  6 active torsions:
REMARK  status: ('A' for Active; 'I' for Inactive)
REMARK    1  A    between atoms: C_6  and  C_7 
REMARK       I    between atoms: C_7  and  N_8 
REMARK    2  A    between atoms: N_8  and  C_9 
REMARK    3  A    between atoms: C_9  and  C_10 
REMARK    4  A    between atoms: C_10  and  O_11 
REMARK    5  A    between atoms: C_10  and  C_12 
REMARK    6  A    between atoms: C_15  and  O_16 
ROOT
HETATM    1  C   UNL     1     -42.328  55.098 -53.338  1.00  0.00     0.258 C 
HETATM    2  N   UNL     1     -41.926  55.537 -54.574  1.00  0.00    -0.350 N 
HETATM    3  O   UNL     1     -43.413  55.421 -52.858  1.00  0.00    -0.267 OA
HETATM    4  H   UNL     1     -40.993  55.261 -54.877  1.00  0.00     0.163 HD
ENDROOT
BRANCH   2   5
HETATM    5  C   UNL     1     -42.766  56.327 -55.472  1.00  0.00     0.114 C 
HETATM    6  C   UNL     1     -42.773  55.680 -56.856  1.00  0.00     0.035 C 
BRANCH   5   7
HETATM    7  C   UNL     1     -42.407  57.847 -55.537  1.00  0.00     0.173 C 
BRANCH   7   8
HETATM    8  O   UNL     1     -43.323  58.592 -56.347  1.00  0.00    -0.389 OA
HETATM    9  H   UNL     1     -42.808  59.248 -56.862  1.00  0.00     0.210 HD
ENDBRANCH   7   8
BRANCH   7  10
HETATM   10  C   UNL     1     -42.249  58.542 -54.197  1.00  0.00    -0.028 A 
HETATM   11  C   UNL     1     -43.370  59.055 -53.531  1.00  0.00     0.012 A 
HETATM   12  C   UNL     1     -43.238  59.676 -52.286  1.00  0.00     0.037 A 
HETATM   13  C   UNL     1     -41.990  59.780 -51.673  1.00  0.00     0.068 A 
HETATM   14  C   UNL     1     -40.864  59.291 -52.334  1.00  0.00     0.037 A 
HETATM   15  C   UNL     1     -40.994  58.679 -53.586  1.00  0.00     0.012 A 
BRANCH  13  16
HETATM   16  O   UNL     1     -41.998  60.384 -50.446  1.00  0.00    -0.356 OA
HETATM   17  C   UNL     1     -43.219  61.006 -50.061  1.00  0.00     0.210 C 
ENDBRANCH  13  16
ENDBRANCH   7  10
ENDBRANCH   5   7
ENDBRANCH   2   5
BRANCH   1  18
HETATM   18  C   UNL     1     -41.388  54.237 -52.644  1.00  0.00     0.105 A 
HETATM   19  C   UNL     1     -40.806  54.432 -51.363  1.00  0.00     0.071 A 
HETATM   20  C   UNL     1     -41.006  55.578 -50.437  1.00  0.00     0.073 C 
HETATM   21  N   UNL     1     -39.994  53.428 -51.012  1.00  0.00    -0.170 NA
HETATM   22  N   UNL     1     -40.044  52.565 -52.050  1.00  0.00    -0.225 N 
HETATM   23  C   UNL     1     -40.872  53.027 -53.077  1.00  0.00     0.168 A 
HETATM   24  C   UNL     1     -39.393  51.341 -52.165  1.00  0.00     0.122 A 
HETATM   25  N   UNL     1     -41.064  52.309 -54.234  1.00  0.00    -0.240 NA
HETATM   26  C   UNL     1     -40.438  51.171 -54.304  1.00  0.00     0.120 A 
HETATM   27  C   UNL     1     -39.548  50.590 -53.263  1.00  0.00     0.038 A 
ENDBRANCH   1  18
TORSDOF 6
ENDMDL
MODEL 10
REMARK VINA RESULT:      -6.9     15.040     17.904
REMARK  6 active torsions:
REMARK  status: ('A' for Active; 'I' for Inactive)
REMARK    1  A    between atoms: C_6  and  C_7 
REMARK       I    between atoms: C_7  and  N_8 
REMARK    2  A    between atoms: N_8  and  C_9 
REMARK    3  A    between atoms: C_9  and  C_10 
REMARK    4  A    between atoms: C_10  and  O_11 
REMARK    5  A    between atoms: C_10  and  C_12 
REMARK    6  A    between atoms: C_15  and  O_16 
ROOT
HETATM    1  C   UNL     1     -35.733  41.699 -53.103  1.00  0.00     0.258 C 
HETATM    2  N   UNL     1     -36.106  41.179 -54.316  1.00  0.00    -0.350 N 
HETATM    3  O   UNL     1     -35.703  42.912 -52.900  1.00  0.00    -0.267 OA
HETATM    4  H   UNL     1     -36.059  40.166 -54.415  1.00  0.00     0.163 HD
ENDROOT
BRANCH   2   5
HETATM    5  C   UNL     1     -36.594  41.985 -55.433  1.00  0.00     0.114 C 
HETATM    6  C   UNL     1     -37.994  41.510 -55.824  1.00  0.00     0.035 C 
BRANCH   5   7
HETATM    7  C   UNL     1     -35.632  42.050 -56.664  1.00  0.00     0.173 C 
BRANCH   7   8
HETATM    8  O   UNL     1     -34.351  41.472 -56.389  1.00  0.00    -0.389 OA
HETATM    9  H   UNL     1     -34.438  40.498 -56.454  1.00  0.00     0.210 HD
ENDBRANCH   7   8
BRANCH   7  10
HETATM   10  C   UNL     1     -36.175  41.464 -57.954  1.00  0.00    -0.028 A 
HETATM   11  C   UNL     1     -35.940  40.120 -58.273  1.00  0.00     0.012 A 
HETATM   12  C   UNL     1     -36.458  39.565 -59.447  1.00  0.00     0.037 A 
HETATM   13  C   UNL     1     -37.233  40.333 -60.315  1.00  0.00     0.068 A 
HETATM   14  C   UNL     1     -37.457  41.677 -60.019  1.00  0.00     0.037 A 
HETATM   15  C   UNL     1     -36.932  42.237 -58.848  1.00  0.00     0.012 A 
BRANCH  13  16
HETATM   16  O   UNL     1     -37.701  39.667 -61.414  1.00  0.00    -0.356 OA
HETATM   17  C   UNL     1     -36.967  38.514 -61.808  1.00  0.00     0.210 C 
ENDBRANCH  13  16
ENDBRANCH   7  10
ENDBRANCH   5   7
ENDBRANCH   2   5
BRANCH   1  18
HETATM   18  C   UNL     1     -35.378  40.724 -52.088  1.00  0.00     0.105 A 
HETATM   19  C   UNL     1     -36.246  39.872 -51.354  1.00  0.00     0.071 A 
HETATM   20  C   UNL     1     -37.728  39.793 -51.436  1.00  0.00     0.073 C 
HETATM   21  N   UNL     1     -35.583  39.074 -50.508  1.00  0.00    -0.170 NA
HETATM   22  N   UNL     1     -34.282  39.387 -50.687  1.00  0.00    -0.225 N 
HETATM   23  C   UNL     1     -34.111  40.402 -51.632  1.00  0.00     0.168 A 
HETATM   24  C   UNL     1     -33.180  38.814 -50.058  1.00  0.00     0.122 A 
HETATM   25  N   UNL     1     -32.867  40.883 -51.966  1.00  0.00    -0.240 NA
HETATM   26  C   UNL     1     -31.863  40.323 -51.357  1.00  0.00     0.120 A 
HETATM   27  C   UNL     1     -31.941  39.232 -50.348  1.00  0.00     0.038 A 
ENDBRANCH   1  18
TORSDOF 6
ENDMDL
