MODEL 1
REMARK VINA RESULT:      -7.6      0.000      0.000
REMARK  10 active torsions:
REMARK  status: ('A' for Active; 'I' for Inactive)
REMARK    1  A    between atoms: C_2  and  C_3 
REMARK    2  A    between atoms: C_3  and  N_4 
REMARK    3  A    between atoms: C_7  and  C_8 
REMARK       I    between atoms: C_8  and  N_9 
REMARK    4  A    between atoms: N_9  and  C_10 
REMARK    5  A    between atoms: C_10  and  C_11 
REMARK    6  A    between atoms: C_11  and  O_12 
REMARK    7  A    between atoms: C_11  and  C_13 
REMARK    8  A    between atoms: C_13  and  O_14 
REMARK    9  A    between atoms: O_14  and  C_15 
REMARK   10  A    between atoms: C_23  and  C_24 
ROOT
HETATM    1  C   UNL     1     -41.667  55.507 -51.946  1.00  0.00     0.255 C 
HETATM    2  N   UNL     1     -42.958  55.451 -52.403  1.00  0.00    -0.354 N 
HETATM    3  O   UNL     1     -41.049  56.557 -51.811  1.00  0.00    -0.268 OA
HETATM    4  H   UNL     1     -43.342  54.555 -52.678  1.00  0.00     0.162 HD
ENDROOT
BRANCH   2   5
HETATM    5  C   UNL     1     -43.753  56.638 -52.656  1.00  0.00     0.156 C 
BRANCH   5   6
HETATM    6  C   UNL     1     -44.301  56.707 -54.084  1.00  0.00     0.160 C 
BRANCH   6   7
HETATM    7  O   UNL     1     -44.833  55.420 -54.446  1.00  0.00    -0.392 OA
HETATM    8  H   UNL     1     -45.744  55.591 -54.752  1.00  0.00     0.210 HD
ENDBRANCH   6   7
BRANCH   6   9
HETATM    9  C   UNL     1     -43.258  57.147 -55.118  1.00  0.00     0.209 C 
BRANCH   9  10
HETATM   10  O   UNL     1     -43.303  56.178 -56.177  1.00  0.00    -0.349 OA
BRANCH  10  11
HETATM   11  C   UNL     1     -42.952  56.605 -57.428  1.00  0.00     0.069 A 
HETATM   12  C   UNL     1     -42.560  57.946 -57.495  1.00  0.00     0.043 A 
HETATM   13  C   UNL     1     -42.173  58.525 -58.710  1.00  0.00    -0.059 A 
HETATM   14  C   UNL     1     -41.752  59.963 -58.780  1.00  0.00     0.048 C 
HETATM   15  C   UNL     1     -42.199  57.745 -59.870  1.00  0.00     0.007 A 
HETATM   16  C   UNL     1     -42.596  56.408 -59.810  1.00  0.00     0.003 A 
HETATM   17  C   UNL     1     -42.971  55.837 -58.590  1.00  0.00     0.037 A 
ENDBRANCH  10  11
ENDBRANCH   9  10
ENDBRANCH   6   9
ENDBRANCH   5   6
ENDBRANCH   2   5
BRANCH   1  18
HETATM   18  C   UNL     1     -41.063  54.216 -51.714  1.00  0.00     0.075 A 
HETATM   19  C   UNL     1     -41.073  53.540 -50.475  1.00  0.00     0.158 A 
HETATM   20  N   UNL     1     -40.467  52.356 -50.526  1.00  0.00    -0.183 NA
HETATM   21  N   UNL     1     -40.152  52.211 -51.829  1.00  0.00    -0.268 N 
HETATM   22  C   UNL     1     -40.432  53.335 -52.586  1.00  0.00     0.052 A 
BRANCH  21  23
HETATM   23  C   UNL     1     -39.549  50.954 -52.273  1.00  0.00     0.106 C 
HETATM   24  C   UNL     1     -39.385  50.005 -51.085  1.00  0.00     0.034 C 
BRANCH  23  25
HETATM   25  C   UNL     1     -40.317  50.264 -53.419  1.00  0.00     0.022 C 
HETATM   26  C   UNL     1     -39.426  49.910 -54.603  1.00  0.00     0.007 C 
ENDBRANCH  23  25
ENDBRANCH  21  23
BRANCH  22  27
HETATM   27  C   UNL     1     -40.136  53.462 -54.083  1.00  0.00     0.038 A 
HETATM   28  C   UNL     1     -41.259  53.703 -55.066  1.00  0.00     0.011 A 
HETATM   29  C   UNL     1     -40.271  54.786 -54.795  1.00  0.00     0.011 A 
ENDBRANCH  22  27
ENDBRANCH   1  18
TORSDOF 10
ENDMDL
MODEL 2
REMARK VINA RESULT:      -7.6      2.613      8.221
REMARK  10 active torsions:
REMARK  status: ('A' for Active; 'I' for Inactive)
REMARK    1  A    between atoms: C_2  and  C_3 
REMARK    2  A    between atoms: C_3  and  N_4 
REMARK    3  A    between atoms: C_7  and  C_8 
REMARK       I    between atoms: C_8  and  N_9 
REMARK    4  A    between atoms: N_9  and  C_10 
REMARK    5  A    between atoms: C_10  and  C_11 
REMARK    6  A    between atoms: C_11  and  O_12 
REMARK    7  A    between atoms: C_11  and  C_13 
REMARK    8  A    between atoms: C_13  and  O_14 
REMARK    9  A    between atoms: O_14  and  C_15 
REMARK   10  A    between atoms: C_23  and  C_24 
ROOT
HETATM    1  C   UNL     1     -43.087  55.803 -56.424  1.00  0.00     0.255 C 
HETATM    2  N   UNL     1     -43.930  55.559 -55.372  1.00  0.00    -0.354 N 
HETATM    3  O   UNL     1     -41.993  55.261 -56.546  1.00  0.00    -0.268 OA
HETATM    4  H   UNL     1     -44.720  56.175 -55.225  1.00  0.00     0.162 HD
ENDROOT
BRANCH   2   5
HETATM    5  C   UNL     1     -43.662  54.547 -54.368  1.00  0.00     0.156 C 
BRANCH   5   6
HETATM    6  C   UNL     1     -43.337  55.131 -52.991  1.00  0.00     0.160 C 
BRANCH   6   7
HETATM    7  O   UNL     1     -44.129  56.314 -52.784  1.00  0.00    -0.392 OA
HETATM    8  H   UNL     1     -44.259  56.376 -51.819  1.00  0.00     0.210 HD
ENDBRANCH   6   7
BRANCH   6   9
HETATM    9  C   UNL     1     -41.852  55.459 -52.800  1.00  0.00     0.209 C 
BRANCH   9  10
HETATM   10  O   UNL     1     -41.128  54.578 -53.673  1.00  0.00    -0.349 OA
BRANCH  10  11
HETATM   11  C   UNL     1     -40.595  53.449 -53.116  1.00  0.00     0.069 A 
HETATM   12  C   UNL     1     -40.418  52.388 -54.010  1.00  0.00     0.043 A 
HETATM   13  C   UNL     1     -39.882  51.166 -53.583  1.00  0.00    -0.059 A 
HETATM   14  C   UNL     1     -39.692  50.029 -54.543  1.00  0.00     0.048 C 
HETATM   15  C   UNL     1     -39.537  51.012 -52.237  1.00  0.00     0.007 A 
HETATM   16  C   UNL     1     -39.718  52.065 -51.339  1.00  0.00     0.003 A 
HETATM   17  C   UNL     1     -40.245  53.284 -51.777  1.00  0.00     0.037 A 
ENDBRANCH  10  11
ENDBRANCH   9  10
ENDBRANCH   6   9
ENDBRANCH   5   6
ENDBRANCH   2   5
BRANCH   1  18
HETATM   18  C   UNL     1     -43.555  56.819 -57.338  1.00  0.00     0.075 A 
HETATM   19  C   UNL     1     -43.827  58.155 -56.974  1.00  0.00     0.158 A 
HETATM   20  N   UNL     1     -44.226  58.901 -58.002  1.00  0.00    -0.183 NA
HETATM   21  N   UNL     1     -44.114  58.075 -59.062  1.00  0.00    -0.268 N 
HETATM   22  C   UNL     1     -43.773  56.780 -58.711  1.00  0.00     0.052 A 
BRANCH  21  23
HETATM   23  C   UNL     1     -44.383  58.603 -60.399  1.00  0.00     0.106 C 
HETATM   24  C   UNL     1     -45.803  59.168 -60.463  1.00  0.00     0.034 C 
BRANCH  23  25
HETATM   25  C   UNL     1     -43.357  59.653 -60.873  1.00  0.00     0.022 C 
HETATM   26  C   UNL     1     -41.922  59.144 -60.831  1.00  0.00     0.007 C 
ENDBRANCH  23  25
ENDBRANCH  21  23
BRANCH  22  27
HETATM   27  C   UNL     1     -43.620  55.628 -59.707  1.00  0.00     0.038 A 
HETATM   28  C   UNL     1     -44.445  54.370 -59.553  1.00  0.00     0.011 A 
HETATM   29  C   UNL     1     -44.717  55.296 -60.689  1.00  0.00     0.011 A 
ENDBRANCH  22  27
ENDBRANCH   1  18
TORSDOF 10
ENDMDL
MODEL 3
REMARK VINA RESULT:      -7.4      1.668      2.731
REMARK  10 active torsions:
REMARK  status: ('A' for Active; 'I' for Inactive)
REMARK    1  A    between atoms: C_2  and  C_3 
REMARK    2  A    between atoms: C_3  and  N_4 
REMARK    3  A    between atoms: C_7  and  C_8 
REMARK       I    between atoms: C_8  and  N_9 
REMARK    4  A    between atoms: N_9  and  C_10 
REMARK    5  A    between atoms: C_10  and  C_11 
REMARK    6  A    between atoms: C_11  and  O_12 
REMARK    7  A    between atoms: C_11  and  C_13 
REMARK    8  A    between atoms: C_13  and  O_14 
REMARK    9  A    between atoms: O_14  and  C_15 
REMARK   10  A    between atoms: C_23  and  C_24 
ROOT
HETATM    1  C   UNL     1     -43.679  55.257 -53.761  1.00  0.00     0.255 C 
HETATM    2  N   UNL     1     -44.145  56.537 -53.610  1.00  0.00    -0.354 N 
HETATM    3  O   UNL     1     -43.995  54.536 -54.701  1.00  0.00    -0.268 OA
HETATM    4  H   UNL     1     -44.008  57.007 -52.723  1.00  0.00     0.162 HD
ENDROOT
BRANCH   2   5
HETATM    5  C   UNL     1     -44.958  57.200 -54.611  1.00  0.00     0.156 C 
BRANCH   5   6
HETATM    6  C   UNL     1     -44.617  58.683 -54.784  1.00  0.00     0.160 C 
BRANCH   6   7
HETATM    7  O   UNL     1     -45.806  59.397 -55.166  1.00  0.00    -0.392 OA
HETATM    8  H   UNL     1     -46.551  58.818 -54.914  1.00  0.00     0.210 HD
ENDBRANCH   6   7
BRANCH   6   9
HETATM    9  C   UNL     1     -43.505  58.938 -55.809  1.00  0.00     0.209 C 
BRANCH   9  10
HETATM   10  O   UNL     1     -42.964  57.652 -56.148  1.00  0.00    -0.349 OA
BRANCH  10  11
HETATM   11  C   UNL     1     -42.801  57.377 -57.478  1.00  0.00     0.069 A 
HETATM   12  C   UNL     1     -43.515  56.264 -57.933  1.00  0.00     0.043 A 
HETATM   13  C   UNL     1     -43.446  55.860 -59.273  1.00  0.00    -0.059 A 
HETATM   14  C   UNL     1     -44.214  54.668 -59.760  1.00  0.00     0.048 C 
HETATM   15  C   UNL     1     -42.634  56.580 -60.155  1.00  0.00     0.007 A 
HETATM   16  C   UNL     1     -41.914  57.687 -59.705  1.00  0.00     0.003 A 
HETATM   17  C   UNL     1     -41.997  58.088 -58.368  1.00  0.00     0.037 A 
ENDBRANCH  10  11
ENDBRANCH   9  10
ENDBRANCH   6   9
ENDBRANCH   5   6
ENDBRANCH   2   5
BRANCH   1  18
HETATM   18  C   UNL     1     -42.850  54.795 -52.672  1.00  0.00     0.075 A 
HETATM   19  C   UNL     1     -43.313  54.559 -51.360  1.00  0.00     0.158 A 
HETATM   20  N   UNL     1     -42.357  54.116 -50.546  1.00  0.00    -0.183 NA
HETATM   21  N   UNL     1     -41.290  53.962 -51.355  1.00  0.00    -0.268 N 
HETATM   22  C   UNL     1     -41.512  54.418 -52.643  1.00  0.00     0.052 A 
BRANCH  21  23
HETATM   23  C   UNL     1     -40.064  53.385 -50.803  1.00  0.00     0.106 C 
HETATM   24  C   UNL     1     -39.662  54.133 -49.530  1.00  0.00     0.034 C 
BRANCH  23  25
HETATM   25  C   UNL     1     -40.152  51.868 -50.538  1.00  0.00     0.022 C 
HETATM   26  C   UNL     1     -39.502  51.035 -51.636  1.00  0.00     0.007 C 
ENDBRANCH  23  25
ENDBRANCH  21  23
BRANCH  22  27
HETATM   27  C   UNL     1     -40.459  54.404 -53.755  1.00  0.00     0.038 A 
HETATM   28  C   UNL     1     -40.268  53.173 -54.611  1.00  0.00     0.011 A 
HETATM   29  C   UNL     1     -40.862  54.401 -55.209  1.00  0.00     0.011 A 
ENDBRANCH  22  27
ENDBRANCH   1  18
TORSDOF 10
ENDMDL
MODEL 4
REMARK VINA RESULT:      -7.4      2.823      7.279
REMARK  10 active torsions:
REMARK  status: ('A' for Active; 'I' for Inactive)
REMARK    1  A    between atoms: C_2  and  C_3 
REMARK    2  A    between atoms: C_3  and  N_4 
REMARK    3  A    between atoms: C_7  and  C_8 
REMARK       I    between atoms: C_8  and  N_9 
REMARK    4  A    between atoms: N_9  and  C_10 
REMARK    5  A    between atoms: C_10  and  C_11 
REMARK    6  A    between atoms: C_11  and  O_12 
REMARK    7  A    between atoms: C_11  and  C_13 
REMARK    8  A    between atoms: C_13  and  O_14 
REMARK    9  A    between atoms: O_14  and  C_15 
REMARK   10  A    between atoms: C_23  and  C_24 
ROOT
HETATM    1  C   UNL     1     -43.500  57.789 -54.803  1.00  0.00     0.255 C 
HETATM    2  N   UNL     1     -42.616  57.238 -55.693  1.00  0.00    -0.354 N 
HETATM    3  O   UNL     1     -44.701  57.545 -54.812  1.00  0.00    -0.268 OA
HETATM    4  H   UNL     1     -41.683  57.626 -55.761  1.00  0.00     0.162 HD
ENDROOT
BRANCH   2   5
HETATM    5  C   UNL     1     -43.000  56.219 -56.652  1.00  0.00     0.156 C 
BRANCH   5   6
HETATM    6  C   UNL     1     -42.800  54.793 -56.134  1.00  0.00     0.160 C 
BRANCH   6   7
HETATM    7  O   UNL     1     -43.832  54.491 -55.178  1.00  0.00    -0.392 OA
HETATM    8  H   UNL     1     -44.411  55.277 -55.163  1.00  0.00     0.210 HD
ENDBRANCH   6   7
BRANCH   6   9
HETATM    9  C   UNL     1     -41.422  54.559 -55.503  1.00  0.00     0.209 C 
BRANCH   9  10
HETATM   10  O   UNL     1     -41.637  54.460 -54.087  1.00  0.00    -0.349 OA
BRANCH  10  11
HETATM   11  C   UNL     1     -40.933  53.498 -53.417  1.00  0.00     0.069 A 
HETATM   12  C   UNL     1     -40.643  52.357 -54.172  1.00  0.00     0.043 A 
HETATM   13  C   UNL     1     -39.928  51.287 -53.619  1.00  0.00    -0.059 A 
HETATM   14  C   UNL     1     -39.618  50.065 -54.431  1.00  0.00     0.048 C 
HETATM   15  C   UNL     1     -39.518  51.365 -52.285  1.00  0.00     0.007 A 
HETATM   16  C   UNL     1     -39.810  52.498 -51.525  1.00  0.00     0.003 A 
HETATM   17  C   UNL     1     -40.516  53.565 -52.088  1.00  0.00     0.037 A 
ENDBRANCH  10  11
ENDBRANCH   9  10
ENDBRANCH   6   9
ENDBRANCH   5   6
ENDBRANCH   2   5
BRANCH   1  18
HETATM   18  C   UNL     1     -42.911  58.754 -53.902  1.00  0.00     0.075 A 
HETATM   19  C   UNL     1     -42.488  60.046 -54.282  1.00  0.00     0.158 A 
HETATM   20  N   UNL     1     -42.000  60.750 -53.263  1.00  0.00    -0.183 NA
HETATM   21  N   UNL     1     -42.201  59.954 -52.195  1.00  0.00    -0.268 N 
HETATM   22  C   UNL     1     -42.693  58.704 -52.530  1.00  0.00     0.052 A 
BRANCH  21  23
HETATM   23  C   UNL     1     -41.866  60.461 -50.864  1.00  0.00     0.106 C 
HETATM   24  C   UNL     1     -43.145  60.774 -50.086  1.00  0.00     0.034 C 
BRANCH  23  25
HETATM   25  C   UNL     1     -40.949  59.523 -50.051  1.00  0.00     0.022 C 
HETATM   26  C   UNL     1     -39.483  59.633 -50.448  1.00  0.00     0.007 C 
ENDBRANCH  23  25
ENDBRANCH  21  23
BRANCH  22  27
HETATM   27  C   UNL     1     -42.972  57.588 -51.520  1.00  0.00     0.038 A 
HETATM   28  C   UNL     1     -44.391  57.271 -51.105  1.00  0.00     0.011 A 
HETATM   29  C   UNL     1     -43.634  56.300 -51.945  1.00  0.00     0.011 A 
ENDBRANCH  22  27
ENDBRANCH   1  18
TORSDOF 10
ENDMDL
MODEL 5
REMARK VINA RESULT:      -7.3      1.455      2.871
REMARK  10 active torsions:
REMARK  status: ('A' for Active; 'I' for Inactive)
REMARK    1  A    between atoms: C_2  and  C_3 
REMARK    2  A    between atoms: C_3  and  N_4 
REMARK    3  A    between atoms: C_7  and  C_8 
REMARK       I    between atoms: C_8  and  N_9 
REMARK    4  A    between atoms: N_9  and  C_10 
REMARK    5  A    between atoms: C_10  and  C_11 
REMARK    6  A    between atoms: C_11  and  O_12 
REMARK    7  A    between atoms: C_11  and  C_13 
REMARK    8  A    between atoms: C_13  and  O_14 
REMARK    9  A    between atoms: O_14  and  C_15 
REMARK   10  A    between atoms: C_23  and  C_24 
ROOT
HETATM    1  C   UNL     1     -41.639  56.339 -53.565  1.00  0.00     0.255 C 
HETATM    2  N   UNL     1     -42.729  56.658 -54.331  1.00  0.00    -0.354 N 
HETATM    3  O   UNL     1     -41.076  57.143 -52.830  1.00  0.00    -0.268 OA
HETATM    4  H   UNL     1     -43.023  56.015 -55.057  1.00  0.00     0.162 HD
ENDROOT
BRANCH   2   5
HETATM    5  C   UNL     1     -43.394  57.945 -54.253  1.00  0.00     0.156 C 
BRANCH   5   6
HETATM    6  C   UNL     1     -44.811  57.931 -54.833  1.00  0.00     0.160 C 
BRANCH   6   7
HETATM    7  O   UNL     1     -45.399  56.638 -54.605  1.00  0.00    -0.392 OA
HETATM    8  H   UNL     1     -46.062  56.773 -53.901  1.00  0.00     0.210 HD
ENDBRANCH   6   7
BRANCH   6   9
HETATM    9  C   UNL     1     -44.863  58.270 -56.327  1.00  0.00     0.209 C 
BRANCH   9  10
HETATM   10  O   UNL     1     -43.503  58.463 -56.746  1.00  0.00    -0.349 OA
BRANCH  10  11
HETATM   11  C   UNL     1     -43.115  57.847 -57.904  1.00  0.00     0.069 A 
HETATM   12  C   UNL     1     -43.802  56.663 -58.191  1.00  0.00     0.043 A 
HETATM   13  C   UNL     1     -43.513  55.921 -59.344  1.00  0.00    -0.059 A 
HETATM   14  C   UNL     1     -44.252  54.653 -59.651  1.00  0.00     0.048 C 
HETATM   15  C   UNL     1     -42.508  56.374 -60.205  1.00  0.00     0.007 A 
HETATM   16  C   UNL     1     -41.815  57.551 -59.920  1.00  0.00     0.003 A 
HETATM   17  C   UNL     1     -42.118  58.289 -58.772  1.00  0.00     0.037 A 
ENDBRANCH  10  11
ENDBRANCH   9  10
ENDBRANCH   6   9
ENDBRANCH   5   6
ENDBRANCH   2   5
BRANCH   1  18
HETATM   18  C   UNL     1     -41.150  54.993 -53.759  1.00  0.00     0.075 A 
HETATM   19  C   UNL     1     -40.325  54.589 -54.831  1.00  0.00     0.158 A 
HETATM   20  N   UNL     1     -39.994  53.302 -54.773  1.00  0.00    -0.183 NA
HETATM   21  N   UNL     1     -40.517  52.886 -53.603  1.00  0.00    -0.268 N 
HETATM   22  C   UNL     1     -41.284  53.853 -52.975  1.00  0.00     0.052 A 
BRANCH  21  23
HETATM   23  C   UNL     1     -40.257  51.517 -53.160  1.00  0.00     0.106 C 
HETATM   24  C   UNL     1     -39.789  50.665 -54.342  1.00  0.00     0.034 C 
BRANCH  23  25
HETATM   25  C   UNL     1     -39.257  51.419 -51.989  1.00  0.00     0.022 C 
HETATM   26  C   UNL     1     -39.620  50.330 -50.987  1.00  0.00     0.007 C 
ENDBRANCH  23  25
ENDBRANCH  21  23
BRANCH  22  27
HETATM   27  C   UNL     1     -42.030  53.638 -51.655  1.00  0.00     0.038 A 
HETATM   28  C   UNL     1     -41.345  53.913 -50.336  1.00  0.00     0.011 A 
HETATM   29  C   UNL     1     -42.446  54.806 -50.795  1.00  0.00     0.011 A 
ENDBRANCH  22  27
ENDBRANCH   1  18
TORSDOF 10
ENDMDL
MODEL 6
REMARK VINA RESULT:      -7.2      2.536      5.028
REMARK  10 active torsions:
REMARK  status: ('A' for Active; 'I' for Inactive)
REMARK    1  A    between atoms: C_2  and  C_3 
REMARK    2  A    between atoms: C_3  and  N_4 
REMARK    3  A    between atoms: C_7  and  C_8 
REMARK       I    between atoms: C_8  and  N_9 
REMARK    4  A    between atoms: N_9  and  C_10 
REMARK    5  A    between atoms: C_10  and  C_11 
REMARK    6  A    between atoms: C_11  and  O_12 
REMARK    7  A    between atoms: C_11  and  C_13 
REMARK    8  A    between atoms: C_13  and  O_14 
REMARK    9  A    between atoms: O_14  and  C_15 
REMARK   10  A    between atoms: C_23  and  C_24 
ROOT
HETATM    1  C   UNL     1     -42.299  54.930 -55.153  1.00  0.00     0.255 C 
HETATM    2  N   UNL     1     -41.779  56.190 -55.292  1.00  0.00    -0.354 N 
HETATM    3  O   UNL     1     -43.258  54.526 -55.802  1.00  0.00    -0.268 OA
HETATM    4  H   UNL     1     -41.123  56.528 -54.598  1.00  0.00     0.162 HD
ENDROOT
BRANCH   2   5
HETATM    5  C   UNL     1     -42.237  57.122 -56.304  1.00  0.00     0.156 C 
BRANCH   5   6
HETATM    6  C   UNL     1     -43.320  58.080 -55.800  1.00  0.00     0.160 C 
BRANCH   6   7
HETATM    7  O   UNL     1     -44.250  58.339 -56.866  1.00  0.00    -0.392 OA
HETATM    8  H   UNL     1     -45.135  58.306 -56.454  1.00  0.00     0.210 HD
ENDBRANCH   6   7
BRANCH   6   9
HETATM    9  C   UNL     1     -42.763  59.403 -55.262  1.00  0.00     0.209 C 
BRANCH   9  10
HETATM   10  O   UNL     1     -41.435  59.122 -54.793  1.00  0.00    -0.349 OA
BRANCH  10  11
HETATM   11  C   UNL     1     -41.216  59.227 -53.447  1.00  0.00     0.069 A 
HETATM   12  C   UNL     1     -42.252  59.839 -52.735  1.00  0.00     0.043 A 
HETATM   13  C   UNL     1     -42.169  60.016 -51.348  1.00  0.00    -0.059 A 
HETATM   14  C   UNL     1     -43.281  60.673 -50.586  1.00  0.00     0.048 C 
HETATM   15  C   UNL     1     -41.020  59.584 -50.678  1.00  0.00     0.007 A 
HETATM   16  C   UNL     1     -39.980  58.978 -51.385  1.00  0.00     0.003 A 
HETATM   17  C   UNL     1     -40.077  58.797 -52.768  1.00  0.00     0.037 A 
ENDBRANCH  10  11
ENDBRANCH   9  10
ENDBRANCH   6   9
ENDBRANCH   5   6
ENDBRANCH   2   5
BRANCH   1  18
HETATM   18  C   UNL     1     -41.676  54.141 -54.115  1.00  0.00     0.075 A 
HETATM   19  C   UNL     1     -40.603  53.249 -54.326  1.00  0.00     0.158 A 
HETATM   20  N   UNL     1     -40.194  52.658 -53.206  1.00  0.00    -0.183 NA
HETATM   21  N   UNL     1     -40.934  53.244 -52.243  1.00  0.00    -0.268 N 
HETATM   22  C   UNL     1     -41.895  54.106 -52.743  1.00  0.00     0.052 A 
BRANCH  21  23
HETATM   23  C   UNL     1     -40.674  52.898 -50.846  1.00  0.00     0.106 C 
HETATM   24  C   UNL     1     -40.081  51.491 -50.756  1.00  0.00     0.034 C 
BRANCH  23  25
HETATM   25  C   UNL     1     -39.778  53.914 -50.108  1.00  0.00     0.022 C 
HETATM   26  C   UNL     1     -40.301  54.273 -48.723  1.00  0.00     0.007 C 
ENDBRANCH  23  25
ENDBRANCH  21  23
BRANCH  22  27
HETATM   27  C   UNL     1     -42.900  54.871 -51.877  1.00  0.00     0.038 A 
HETATM   28  C   UNL     1     -42.495  56.155 -51.191  1.00  0.00     0.011 A 
HETATM   29  C   UNL     1     -43.462  56.198 -52.324  1.00  0.00     0.011 A 
ENDBRANCH  22  27
ENDBRANCH   1  18
TORSDOF 10
ENDMDL
MODEL 7
REMARK VINA RESULT:      -6.9      2.697      7.115
REMARK  10 active torsions:
REMARK  status: ('A' for Active; 'I' for Inactive)
REMARK    1  A    between atoms: C_2  and  C_3 
REMARK    2  A    between atoms: C_3  and  N_4 
REMARK    3  A    between atoms: C_7  and  C_8 
REMARK       I    between atoms: C_8  and  N_9 
REMARK    4  A    between atoms: N_9  and  C_10 
REMARK    5  A    between atoms: C_10  and  C_11 
REMARK    6  A    between atoms: C_11  and  O_12 
REMARK    7  A    between atoms: C_11  and  C_13 
REMARK    8  A    between atoms: C_13  and  O_14 
REMARK    9  A    between atoms: O_14  and  C_15 
REMARK   10  A    between atoms: C_23  and  C_24 
ROOT
HETATM    1  C   UNL     1     -42.578  57.557 -54.318  1.00  0.00     0.255 C 
HETATM    2  N   UNL     1     -43.755  57.647 -53.622  1.00  0.00    -0.354 N 
HETATM    3  O   UNL     1     -41.522  58.032 -53.915  1.00  0.00    -0.268 OA
HETATM    4  H   UNL     1     -44.621  57.412 -54.092  1.00  0.00     0.162 HD
ENDROOT
BRANCH   2   5
HETATM    5  C   UNL     1     -43.836  58.206 -52.286  1.00  0.00     0.156 C 
BRANCH   5   6
HETATM    6  C   UNL     1     -44.631  57.334 -51.311  1.00  0.00     0.160 C 
BRANCH   6   7
HETATM    7  O   UNL     1     -45.048  58.138 -50.194  1.00  0.00    -0.392 OA
HETATM    8  H   UNL     1     -44.509  57.836 -49.439  1.00  0.00     0.210 HD
ENDBRANCH   6   7
BRANCH   6   9
HETATM    9  C   UNL     1     -43.852  56.112 -50.810  1.00  0.00     0.209 C 
BRANCH   9  10
HETATM   10  O   UNL     1     -42.461  56.414 -50.998  1.00  0.00    -0.349 OA
BRANCH  10  11
HETATM   11  C   UNL     1     -41.598  55.355 -51.068  1.00  0.00     0.069 A 
HETATM   12  C   UNL     1     -41.604  54.679 -52.293  1.00  0.00     0.043 A 
HETATM   13  C   UNL     1     -40.773  53.573 -52.512  1.00  0.00    -0.059 A 
HETATM   14  C   UNL     1     -40.780  52.851 -53.826  1.00  0.00     0.048 C 
HETATM   15  C   UNL     1     -39.940  53.138 -51.477  1.00  0.00     0.007 A 
HETATM   16  C   UNL     1     -39.935  53.804 -50.250  1.00  0.00     0.003 A 
HETATM   17  C   UNL     1     -40.761  54.913 -50.045  1.00  0.00     0.037 A 
ENDBRANCH  10  11
ENDBRANCH   9  10
ENDBRANCH   6   9
ENDBRANCH   5   6
ENDBRANCH   2   5
BRANCH   1  18
HETATM   18  C   UNL     1     -42.700  56.928 -55.613  1.00  0.00     0.075 A 
HETATM   19  C   UNL     1     -42.660  55.534 -55.831  1.00  0.00     0.158 A 
HETATM   20  N   UNL     1     -42.817  55.205 -57.111  1.00  0.00    -0.183 NA
HETATM   21  N   UNL     1     -43.066  56.383 -57.718  1.00  0.00    -0.268 N 
HETATM   22  C   UNL     1     -42.945  57.470 -56.870  1.00  0.00     0.052 A 
BRANCH  21  23
HETATM   23  C   UNL     1     -43.391  56.386 -59.145  1.00  0.00     0.106 C 
HETATM   24  C   UNL     1     -42.152  56.758 -59.962  1.00  0.00     0.034 C 
BRANCH  23  25
HETATM   25  C   UNL     1     -43.998  55.061 -59.649  1.00  0.00     0.022 C 
HETATM   26  C   UNL     1     -45.352  55.246 -60.323  1.00  0.00     0.007 C 
ENDBRANCH  23  25
ENDBRANCH  21  23
BRANCH  22  27
HETATM   27  C   UNL     1     -43.130  58.926 -57.304  1.00  0.00     0.038 A 
HETATM   28  C   UNL     1     -44.514  59.529 -57.386  1.00  0.00     0.011 A 
HETATM   29  C   UNL     1     -43.575  59.983 -56.322  1.00  0.00     0.011 A 
ENDBRANCH  22  27
ENDBRANCH   1  18
TORSDOF 10
ENDMDL
MODEL 8
REMARK VINA RESULT:      -6.9      3.378      7.837
REMARK  10 active torsions:
REMARK  status: ('A' for Active; 'I' for Inactive)
REMARK    1  A    between atoms: C_2  and  C_3 
REMARK    2  A    between atoms: C_3  and  N_4 
REMARK    3  A    between atoms: C_7  and  C_8 
REMARK       I    between atoms: C_8  and  N_9 
REMARK    4  A    between atoms: N_9  and  C_10 
REMARK    5  A    between atoms: C_10  and  C_11 
REMARK    6  A    between atoms: C_11  and  O_12 
REMARK    7  A    between atoms: C_11  and  C_13 
REMARK    8  A    between atoms: C_13  and  O_14 
REMARK    9  A    between atoms: O_14  and  C_15 
REMARK   10  A    between atoms: C_23  and  C_24 
ROOT
HETATM    1  C   UNL     1     -43.879  56.782 -52.109  1.00  0.00     0.255 C 
HETATM    2  N   UNL     1     -44.356  56.529 -53.368  1.00  0.00    -0.354 N 
HETATM    3  O   UNL     1     -43.092  56.042 -51.528  1.00  0.00    -0.268 OA
HETATM    4  H   UNL     1     -45.144  57.066 -53.710  1.00  0.00     0.162 HD
ENDROOT
BRANCH   2   5
HETATM    5  C   UNL     1     -43.882  55.424 -54.180  1.00  0.00     0.156 C 
BRANCH   5   6
HETATM    6  C   UNL     1     -42.968  55.864 -55.327  1.00  0.00     0.160 C 
BRANCH   6   7
HETATM    7  O   UNL     1     -43.253  55.062 -56.487  1.00  0.00    -0.392 OA
HETATM    8  H   UNL     1     -44.195  54.817 -56.411  1.00  0.00     0.210 HD
ENDBRANCH   6   7
BRANCH   6   9
HETATM    9  C   UNL     1     -41.476  55.776 -54.988  1.00  0.00     0.209 C 
BRANCH   9  10
HETATM   10  O   UNL     1     -41.065  54.439 -55.312  1.00  0.00    -0.349 OA
BRANCH  10  11
HETATM   11  C   UNL     1     -40.662  53.643 -54.274  1.00  0.00     0.069 A 
HETATM   12  C   UNL     1     -40.320  52.338 -54.642  1.00  0.00     0.043 A 
HETATM   13  C   UNL     1     -39.889  51.408 -53.687  1.00  0.00    -0.059 A 
HETATM   14  C   UNL     1     -39.522  50.009 -54.083  1.00  0.00     0.048 C 
HETATM   15  C   UNL     1     -39.819  51.799 -52.346  1.00  0.00     0.007 A 
HETATM   16  C   UNL     1     -40.166  53.098 -51.973  1.00  0.00     0.003 A 
HETATM   17  C   UNL     1     -40.585  54.022 -52.935  1.00  0.00     0.037 A 
ENDBRANCH  10  11
ENDBRANCH   9  10
ENDBRANCH   6   9
ENDBRANCH   5   6
ENDBRANCH   2   5
BRANCH   1  18
HETATM   18  C   UNL     1     -44.446  57.954 -51.483  1.00  0.00     0.075 A 
HETATM   19  C   UNL     1     -45.648  57.962 -50.743  1.00  0.00     0.158 A 
HETATM   20  N   UNL     1     -45.945  59.162 -50.251  1.00  0.00    -0.183 NA
HETATM   21  N   UNL     1     -44.880  59.919 -50.582  1.00  0.00    -0.268 N 
HETATM   22  C   UNL     1     -43.968  59.257 -51.385  1.00  0.00     0.052 A 
BRANCH  21  23
HETATM   23  C   UNL     1     -44.821  61.301 -50.105  1.00  0.00     0.106 C 
HETATM   24  C   UNL     1     -46.144  62.012 -50.398  1.00  0.00     0.034 C 
BRANCH  23  25
HETATM   25  C   UNL     1     -44.452  61.431 -48.613  1.00  0.00     0.022 C 
HETATM   26  C   UNL     1     -45.666  61.644 -47.716  1.00  0.00     0.007 C 
ENDBRANCH  23  25
ENDBRANCH  21  23
BRANCH  22  27
HETATM   27  C   UNL     1     -42.691  59.890 -51.943  1.00  0.00     0.038 A 
HETATM   28  C   UNL     1     -41.373  59.712 -51.224  1.00  0.00     0.011 A 
HETATM   29  C   UNL     1     -41.593  59.040 -52.536  1.00  0.00     0.011 A 
ENDBRANCH  22  27
ENDBRANCH   1  18
TORSDOF 10
ENDMDL
MODEL 9
REMARK VINA RESULT:      -6.8      2.546      4.666
REMARK  10 active torsions:
REMARK  status: ('A' for Active; 'I' for Inactive)
REMARK    1  A    between atoms: C_2  and  C_3 
REMARK    2  A    between atoms: C_3  and  N_4 
REMARK    3  A    between atoms: C_7  and  C_8 
REMARK       I    between atoms: C_8  and  N_9 
REMARK    4  A    between atoms: N_9  and  C_10 
REMARK    5  A    between atoms: C_10  and  C_11 
REMARK    6  A    between atoms: C_11  and  O_12 
REMARK    7  A    between atoms: C_11  and  C_13 
REMARK    8  A    between atoms: C_13  and  O_14 
REMARK    9  A    between atoms: O_14  and  C_15 
REMARK   10  A    between atoms: C_23  and  C_24 
ROOT
HETATM    1  C   UNL     1     -43.652  55.138 -53.813  1.00  0.00     0.255 C 
HETATM    2  N   UNL     1     -44.059  56.443 -53.711  1.00  0.00    -0.354 N 
HETATM    3  O   UNL     1     -43.987  54.401 -54.733  1.00  0.00    -0.268 OA
HETATM    4  H   UNL     1     -43.914  56.935 -52.838  1.00  0.00     0.162 HD
ENDROOT
BRANCH   2   5
HETATM    5  C   UNL     1     -44.827  57.108 -54.747  1.00  0.00     0.156 C 
BRANCH   5   6
HETATM    6  C   UNL     1     -43.980  58.024 -55.634  1.00  0.00     0.160 C 
BRANCH   6   7
HETATM    7  O   UNL     1     -43.679  57.339 -56.863  1.00  0.00    -0.392 OA
HETATM    8  H   UNL     1     -42.707  57.244 -56.877  1.00  0.00     0.210 HD
ENDBRANCH   6   7
BRANCH   6   9
HETATM    9  C   UNL     1     -42.681  58.492 -54.968  1.00  0.00     0.209 C 
BRANCH   9  10
HETATM   10  O   UNL     1     -42.971  59.762 -54.363  1.00  0.00    -0.349 OA
BRANCH  10  11
HETATM   11  C   UNL     1     -42.674  59.901 -53.036  1.00  0.00     0.069 A 
HETATM   12  C   UNL     1     -41.384  59.492 -52.683  1.00  0.00     0.043 A 
HETATM   13  C   UNL     1     -40.937  59.576 -51.357  1.00  0.00    -0.059 A 
HETATM   14  C   UNL     1     -39.553  59.138 -50.981  1.00  0.00     0.048 C 
HETATM   15  C   UNL     1     -41.810  60.063 -50.379  1.00  0.00     0.007 A 
HETATM   16  C   UNL     1     -43.100  60.466 -50.725  1.00  0.00     0.003 A 
HETATM   17  C   UNL     1     -43.533  60.388 -52.052  1.00  0.00     0.037 A 
ENDBRANCH  10  11
ENDBRANCH   9  10
ENDBRANCH   6   9
ENDBRANCH   5   6
ENDBRANCH   2   5
BRANCH   1  18
HETATM   18  C   UNL     1     -42.860  54.675 -52.696  1.00  0.00     0.075 A 
HETATM   19  C   UNL     1     -43.367  54.442 -51.400  1.00  0.00     0.158 A 
HETATM   20  N   UNL     1     -42.441  53.998 -50.554  1.00  0.00    -0.183 NA
HETATM   21  N   UNL     1     -41.348  53.840 -51.326  1.00  0.00    -0.268 N 
HETATM   22  C   UNL     1     -41.525  54.295 -52.622  1.00  0.00     0.052 A 
BRANCH  21  23
HETATM   23  C   UNL     1     -40.142  53.262 -50.733  1.00  0.00     0.106 C 
HETATM   24  C   UNL     1     -39.768  54.024 -49.461  1.00  0.00     0.034 C 
BRANCH  23  25
HETATM   25  C   UNL     1     -40.250  51.749 -50.449  1.00  0.00     0.022 C 
HETATM   26  C   UNL     1     -39.537  50.896 -51.491  1.00  0.00     0.007 C 
ENDBRANCH  23  25
ENDBRANCH  21  23
BRANCH  22  27
HETATM   27  C   UNL     1     -40.436  54.278 -53.698  1.00  0.00     0.038 A 
HETATM   28  C   UNL     1     -40.228  53.050 -54.554  1.00  0.00     0.011 A 
HETATM   29  C   UNL     1     -40.789  54.288 -55.165  1.00  0.00     0.011 A 
ENDBRANCH  22  27
ENDBRANCH   1  18
TORSDOF 10
ENDMDL
MODEL 10
REMARK VINA RESULT:      -6.8      2.446      7.534
REMARK  10 active torsions:
REMARK  status: ('A' for Active; 'I' for Inactive)
REMARK    1  A    between atoms: C_2  and  C_3 
REMARK    2  A    between atoms: C_3  and  N_4 
REMARK    3  A    between atoms: C_7  and  C_8 
REMARK       I    between atoms: C_8  and  N_9 
REMARK    4  A    between atoms: N_9  and  C_10 
REMARK    5  A    between atoms: C_10  and  C_11 
REMARK    6  A    between atoms: C_11  and  O_12 
REMARK    7  A    between atoms: C_11  and  C_13 
REMARK    8  A    between atoms: C_13  and  O_14 
REMARK    9  A    between atoms: O_14  and  C_15 
REMARK   10  A    between atoms: C_23  and  C_24 
ROOT
HETATM    1  C   UNL     1     -44.125  57.861 -53.223  1.00  0.00     0.255 C 
HETATM    2  N   UNL     1     -42.809  57.932 -52.849  1.00  0.00    -0.354 N 
HETATM    3  O   UNL     1     -45.040  57.690 -52.425  1.00  0.00    -0.268 OA
HETATM    4  H   UNL     1     -42.093  57.876 -53.564  1.00  0.00     0.162 HD
ENDROOT
BRANCH   2   5
HETATM    5  C   UNL     1     -42.385  57.930 -51.462  1.00  0.00     0.156 C 
BRANCH   5   6
HETATM    6  C   UNL     1     -42.101  56.528 -50.916  1.00  0.00     0.160 C 
BRANCH   6   7
HETATM    7  O   UNL     1     -41.407  56.644 -49.661  1.00  0.00    -0.392 OA
HETATM    8  H   UNL     1     -41.983  57.193 -49.095  1.00  0.00     0.210 HD
ENDBRANCH   6   7
BRANCH   6   9
HETATM    9  C   UNL     1     -41.292  55.650 -51.878  1.00  0.00     0.209 C 
BRANCH   9  10
HETATM   10  O   UNL     1     -41.004  54.434 -51.171  1.00  0.00    -0.349 OA
BRANCH  10  11
HETATM   11  C   UNL     1     -40.572  53.370 -51.914  1.00  0.00     0.069 A 
HETATM   12  C   UNL     1     -40.204  52.249 -51.163  1.00  0.00     0.043 A 
HETATM   13  C   UNL     1     -39.741  51.082 -51.786  1.00  0.00    -0.059 A 
HETATM   14  C   UNL     1     -39.348  49.881 -50.980  1.00  0.00     0.048 C 
HETATM   15  C   UNL     1     -39.634  51.057 -53.180  1.00  0.00     0.007 A 
HETATM   16  C   UNL     1     -39.994  52.176 -53.933  1.00  0.00     0.003 A 
HETATM   17  C   UNL     1     -40.464  53.331 -53.303  1.00  0.00     0.037 A 
ENDBRANCH  10  11
ENDBRANCH   9  10
ENDBRANCH   6   9
ENDBRANCH   5   6
ENDBRANCH   2   5
BRANCH   1  18
HETATM   18  C   UNL     1     -44.342  57.921 -54.650  1.00  0.00     0.075 A 
HETATM   19  C   UNL     1     -45.159  58.875 -55.294  1.00  0.00     0.158 A 
HETATM   20  N   UNL     1     -45.177  58.731 -56.617  1.00  0.00    -0.183 NA
HETATM   21  N   UNL     1     -44.286  57.746 -56.847  1.00  0.00    -0.268 N 
HETATM   22  C   UNL     1     -43.795  57.173 -55.687  1.00  0.00     0.052 A 
BRANCH  21  23
HETATM   23  C   UNL     1     -43.974  57.387 -58.230  1.00  0.00     0.106 C 
HETATM   24  C   UNL     1     -45.266  57.159 -59.016  1.00  0.00     0.034 C 
BRANCH  23  25
HETATM   25  C   UNL     1     -43.071  58.409 -58.952  1.00  0.00     0.022 C 
HETATM   26  C   UNL     1     -41.969  58.964 -58.058  1.00  0.00     0.007 C 
ENDBRANCH  23  25
ENDBRANCH  21  23
BRANCH  22  27
HETATM   27  C   UNL     1     -42.803  56.007 -55.654  1.00  0.00     0.038 A 
HETATM   28  C   UNL     1     -43.209  54.676 -55.064  1.00  0.00     0.011 A 
HETATM   29  C   UNL     1     -42.995  54.796 -56.534  1.00  0.00     0.011 A 
ENDBRANCH  22  27
ENDBRANCH   1  18
TORSDOF 10
ENDMDL
