MODEL 1
REMARK VINA RESULT:      -9.1      0.000      0.000
REMARK  8 active torsions:
REMARK  status: ('A' for Active; 'I' for Inactive)
REMARK    1  A    between atoms: C_4  and  C_5 
REMARK    2  A    between atoms: C_5  and  C_6 
REMARK    3  A    between atoms: C_6  and  C_7 
REMARK    4  A    between atoms: C_7  and  N_8 
REMARK    5  A    between atoms: C_17  and  C_18 
REMARK    6  A    between atoms: C_18  and  N_19 
REMARK    7  A    between atoms: C_23  and  O_24 
REMARK    8  A    between atoms: C_23  and  C_25 
ROOT
HETATM    1  N   UNL     1     -41.662  56.188 -51.813  1.00  0.00    -0.065 N 
HETATM    2  H   UNL     1     -40.764  55.911 -51.398  1.00  0.00     0.280 HD
HETATM    3  C   UNL     1     -41.481  57.649 -52.177  1.00  0.00     0.276 C 
HETATM    4  C   UNL     1     -42.621  58.277 -52.932  1.00  0.00     0.001 A 
HETATM    5  C   UNL     1     -43.885  58.374 -52.348  1.00  0.00     0.076 A 
HETATM    6  O   UNL     1     -44.111  57.929 -51.077  1.00  0.00    -0.349 OA
HETATM    7  C   UNL     1     -44.067  56.499 -50.995  1.00  0.00     0.203 C 
HETATM    8  C   UNL     1     -42.656  56.003 -50.665  1.00  0.00     0.261 C 
HETATM    9  C   UNL     1     -42.434  58.823 -54.216  1.00  0.00     0.020 A 
HETATM   10  C   UNL     1     -43.492  59.448 -54.907  1.00  0.00    -0.032 A 
HETATM   11  C   UNL     1     -44.748  59.524 -54.290  1.00  0.00     0.011 A 
HETATM   12  C   UNL     1     -44.937  59.004 -53.008  1.00  0.00     0.038 A 
ENDROOT
BRANCH  10  13
HETATM   13  C   UNL     1     -43.269  60.024 -56.287  1.00  0.00     0.273 C 
BRANCH  13  14
HETATM   14  N   UNL     1     -42.582  59.097 -57.277  1.00  0.00    -0.067 N 
HETATM   15  H   UNL     1     -41.574  59.138 -57.067  1.00  0.00     0.280 HD
HETATM   16  C   UNL     1     -43.006  57.654 -57.134  1.00  0.00     0.238 C 
HETATM   17  C   UNL     1     -42.276  56.799 -58.154  1.00  0.00     0.071 C 
HETATM   18  C   UNL     1     -42.589  57.243 -59.597  1.00  0.00     0.089 C 
HETATM   19  C   UNL     1     -42.118  58.706 -59.709  1.00  0.00     0.071 C 
HETATM   20  C   UNL     1     -42.770  59.624 -58.685  1.00  0.00     0.238 C 
BRANCH  18  21
HETATM   21  O   UNL     1     -41.732  56.480 -60.448  1.00  0.00    -0.385 OA
HETATM   22  H   UNL     1     -41.375  55.711 -59.966  1.00  0.00     0.211 HD
ENDBRANCH  18  21
BRANCH  18  23
HETATM   23  C   UNL     1     -44.034  56.962 -59.995  1.00  0.00    -0.006 A 
HETATM   24  C   UNL     1     -44.975  57.965 -60.221  1.00  0.00     0.126 A 
HETATM   25  N   UNL     1     -46.279  57.748 -60.492  1.00  0.00    -0.272 NA
HETATM   26  C   UNL     1     -46.679  56.470 -60.641  1.00  0.00     0.116 A 
HETATM   27  C   UNL     1     -45.823  55.394 -60.509  1.00  0.00     0.020 A 
HETATM   28  C   UNL     1     -44.491  55.647 -60.188  1.00  0.00     0.013 A 
ENDBRANCH  18  23
ENDBRANCH  13  14
ENDBRANCH  10  13
BRANCH   1  29
HETATM   29  C   UNL     1     -41.912  55.232 -52.961  1.00  0.00     0.236 C 
BRANCH  29  30
HETATM   30  C   UNL     1     -41.223  53.879 -52.801  1.00  0.00     0.039 C 
BRANCH  30  31
HETATM   31  C   UNL     1     -40.976  53.087 -54.098  1.00  0.00     0.040 C 
HETATM   32  C   UNL     1     -40.104  53.863 -55.086  1.00  0.00     0.017 C 
BRANCH  31  33
HETATM   33  C   UNL     1     -40.392  51.755 -53.754  1.00  0.00     0.057 A 
HETATM   34  O   UNL     1     -40.151  51.547 -52.423  1.00  0.00    -0.319 OA
HETATM   35  C   UNL     1     -39.637  50.289 -52.303  1.00  0.00     0.049 A 
HETATM   36  C   UNL     1     -39.323  49.817 -50.939  1.00  0.00     0.076 C 
HETATM   37  C   UNL     1     -39.527  49.701 -53.544  1.00  0.00     0.035 A 
HETATM   38  C   UNL     1     -40.008  50.647 -54.480  1.00  0.00     0.035 A 
ENDBRANCH  31  33
ENDBRANCH  30  31
ENDBRANCH  29  30
ENDBRANCH   1  29
TORSDOF 8
ENDMDL
MODEL 2
REMARK VINA RESULT:      -8.9      1.616      5.178
REMARK  8 active torsions:
REMARK  status: ('A' for Active; 'I' for Inactive)
REMARK    1  A    between atoms: C_4  and  C_5 
REMARK    2  A    between atoms: C_5  and  C_6 
REMARK    3  A    between atoms: C_6  and  C_7 
REMARK    4  A    between atoms: C_7  and  N_8 
REMARK    5  A    between atoms: C_17  and  C_18 
REMARK    6  A    between atoms: C_18  and  N_19 
REMARK    7  A    between atoms: C_23  and  O_24 
REMARK    8  A    between atoms: C_23  and  C_25 
ROOT
HETATM    1  N   UNL     1     -41.262  53.450 -50.379  1.00  0.00    -0.065 N 
HETATM    2  H   UNL     1     -41.813  53.235 -49.539  1.00  0.00     0.280 HD
HETATM    3  C   UNL     1     -42.276  53.475 -51.506  1.00  0.00     0.276 C 
HETATM    4  C   UNL     1     -41.745  53.901 -52.848  1.00  0.00     0.001 A 
HETATM    5  C   UNL     1     -40.757  53.151 -53.487  1.00  0.00     0.076 A 
HETATM    6  O   UNL     1     -40.269  52.004 -52.927  1.00  0.00    -0.349 OA
HETATM    7  C   UNL     1     -39.466  52.273 -51.771  1.00  0.00     0.203 C 
HETATM    8  C   UNL     1     -40.308  52.260 -50.492  1.00  0.00     0.261 C 
HETATM    9  C   UNL     1     -42.261  55.031 -53.511  1.00  0.00     0.020 A 
HETATM   10  C   UNL     1     -41.793  55.407 -54.788  1.00  0.00    -0.032 A 
HETATM   11  C   UNL     1     -40.798  54.631 -55.397  1.00  0.00     0.011 A 
HETATM   12  C   UNL     1     -40.296  53.497 -54.754  1.00  0.00     0.038 A 
ENDROOT
BRANCH  10  13
HETATM   13  C   UNL     1     -42.358  56.626 -55.480  1.00  0.00     0.273 C 
BRANCH  13  14
HETATM   14  N   UNL     1     -42.128  56.688 -56.981  1.00  0.00    -0.067 N 
HETATM   15  H   UNL     1     -41.173  56.340 -57.147  1.00  0.00     0.280 HD
HETATM   16  C   UNL     1     -43.066  55.798 -57.764  1.00  0.00     0.238 C 
HETATM   17  C   UNL     1     -42.771  55.918 -59.248  1.00  0.00     0.071 C 
HETATM   18  C   UNL     1     -42.960  57.362 -59.751  1.00  0.00     0.089 C 
HETATM   19  C   UNL     1     -41.969  58.231 -58.951  1.00  0.00     0.071 C 
HETATM   20  C   UNL     1     -42.168  58.129 -57.446  1.00  0.00     0.238 C 
BRANCH  18  21
HETATM   21  O   UNL     1     -42.504  57.381 -61.105  1.00  0.00    -0.385 OA
HETATM   22  H   UNL     1     -41.686  57.907 -61.178  1.00  0.00     0.211 HD
ENDBRANCH  18  21
BRANCH  18  23
HETATM   23  C   UNL     1     -44.419  57.804 -59.732  1.00  0.00    -0.006 A 
HETATM   24  C   UNL     1     -45.489  56.912 -59.673  1.00  0.00     0.126 A 
HETATM   25  N   UNL     1     -46.789  57.266 -59.739  1.00  0.00    -0.272 NA
HETATM   26  C   UNL     1     -47.074  58.583 -59.776  1.00  0.00     0.116 A 
HETATM   27  C   UNL     1     -46.101  59.563 -59.769  1.00  0.00     0.020 A 
HETATM   28  C   UNL     1     -44.765  59.166 -59.743  1.00  0.00     0.013 A 
ENDBRANCH  18  23
ENDBRANCH  13  14
ENDBRANCH  10  13
BRANCH   1  29
HETATM   29  C   UNL     1     -40.541  54.751 -50.091  1.00  0.00     0.236 C 
BRANCH  29  30
HETATM   30  C   UNL     1     -41.447  55.855 -49.550  1.00  0.00     0.039 C 
BRANCH  30  31
HETATM   31  C   UNL     1     -41.455  57.175 -50.344  1.00  0.00     0.040 C 
HETATM   32  C   UNL     1     -40.291  57.256 -51.332  1.00  0.00     0.017 C 
BRANCH  31  33
HETATM   33  C   UNL     1     -42.780  57.331 -51.017  1.00  0.00     0.057 A 
HETATM   34  O   UNL     1     -42.818  58.253 -52.028  1.00  0.00    -0.319 OA
HETATM   35  C   UNL     1     -44.089  58.248 -52.524  1.00  0.00     0.049 A 
HETATM   36  C   UNL     1     -44.373  59.149 -53.659  1.00  0.00     0.076 C 
HETATM   37  C   UNL     1     -44.866  57.349 -51.827  1.00  0.00     0.035 A 
HETATM   38  C   UNL     1     -44.025  56.762 -50.853  1.00  0.00     0.035 A 
ENDBRANCH  31  33
ENDBRANCH  30  31
ENDBRANCH  29  30
ENDBRANCH   1  29
TORSDOF 8
ENDMDL
MODEL 3
REMARK VINA RESULT:      -8.8      2.638      5.654
REMARK  8 active torsions:
REMARK  status: ('A' for Active; 'I' for Inactive)
REMARK    1  A    between atoms: C_4  and  C_5 
REMARK    2  A    between atoms: C_5  and  C_6 
REMARK    3  A    between atoms: C_6  and  C_7 
REMARK    4  A    between atoms: C_7  and  N_8 
REMARK    5  A    between atoms: C_17  and  C_18 
REMARK    6  A    between atoms: C_18  and  N_19 
REMARK    7  A    between atoms: C_23  and  O_24 
REMARK    8  A    between atoms: C_23  and  C_25 
ROOT
HETATM    1  N   UNL     1     -42.055  56.305 -50.049  1.00  0.00    -0.065 N 
HETATM    2  H   UNL     1     -42.225  56.734 -49.130  1.00  0.00     0.280 HD
HETATM    3  C   UNL     1     -43.367  56.461 -50.793  1.00  0.00     0.276 C 
HETATM    4  C   UNL     1     -43.352  56.026 -52.233  1.00  0.00     0.001 A 
HETATM    5  C   UNL     1     -43.092  54.696 -52.566  1.00  0.00     0.076 A 
HETATM    6  O   UNL     1     -42.872  53.756 -51.599  1.00  0.00    -0.349 OA
HETATM    7  C   UNL     1     -41.612  53.949 -50.943  1.00  0.00     0.203 C 
HETATM    8  C   UNL     1     -41.758  54.844 -49.709  1.00  0.00     0.261 C 
HETATM    9  C   UNL     1     -43.646  56.930 -53.271  1.00  0.00     0.020 A 
HETATM   10  C   UNL     1     -43.673  56.514 -54.619  1.00  0.00    -0.032 A 
HETATM   11  C   UNL     1     -43.404  55.171 -54.915  1.00  0.00     0.011 A 
HETATM   12  C   UNL     1     -43.132  54.264 -53.889  1.00  0.00     0.038 A 
ENDROOT
BRANCH  10  13
HETATM   13  C   UNL     1     -43.987  57.503 -55.718  1.00  0.00     0.273 C 
BRANCH  13  14
HETATM   14  N   UNL     1     -44.220  56.897 -57.092  1.00  0.00    -0.067 N 
HETATM   15  H   UNL     1     -44.621  55.960 -56.937  1.00  0.00     0.280 HD
HETATM   16  C   UNL     1     -45.215  57.672 -57.924  1.00  0.00     0.238 C 
HETATM   17  C   UNL     1     -45.390  57.003 -59.275  1.00  0.00     0.071 C 
HETATM   18  C   UNL     1     -44.063  56.945 -60.058  1.00  0.00     0.089 C 
HETATM   19  C   UNL     1     -43.088  56.124 -59.191  1.00  0.00     0.071 C 
HETATM   20  C   UNL     1     -42.893  56.704 -57.798  1.00  0.00     0.238 C 
BRANCH  18  21
HETATM   21  O   UNL     1     -44.317  56.161 -61.225  1.00  0.00    -0.385 OA
HETATM   22  H   UNL     1     -45.243  56.276 -61.513  1.00  0.00     0.211 HD
ENDBRANCH  18  21
BRANCH  18  23
HETATM   23  C   UNL     1     -43.583  58.322 -60.501  1.00  0.00    -0.006 A 
HETATM   24  C   UNL     1     -42.238  58.652 -60.654  1.00  0.00     0.126 A 
HETATM   25  N   UNL     1     -41.779  59.884 -60.962  1.00  0.00    -0.272 NA
HETATM   26  C   UNL     1     -42.691  60.839 -61.226  1.00  0.00     0.116 A 
HETATM   27  C   UNL     1     -44.052  60.614 -61.174  1.00  0.00     0.020 A 
HETATM   28  C   UNL     1     -44.497  59.344 -60.812  1.00  0.00     0.013 A 
ENDBRANCH  18  23
ENDBRANCH  13  14
ENDBRANCH  10  13
BRANCH   1  29
HETATM   29  C   UNL     1     -40.856  57.023 -50.636  1.00  0.00     0.236 C 
BRANCH  29  30
HETATM   30  C   UNL     1     -40.881  58.537 -50.433  1.00  0.00     0.039 C 
BRANCH  30  31
HETATM   31  C   UNL     1     -40.854  59.392 -51.713  1.00  0.00     0.040 C 
HETATM   32  C   UNL     1     -40.299  58.617 -52.909  1.00  0.00     0.017 C 
BRANCH  31  33
HETATM   33  C   UNL     1     -42.225  59.926 -51.972  1.00  0.00     0.057 A 
HETATM   34  O   UNL     1     -42.486  60.266 -53.272  1.00  0.00    -0.319 OA
HETATM   35  C   UNL     1     -43.773  60.715 -53.316  1.00  0.00     0.049 A 
HETATM   36  C   UNL     1     -44.302  61.115 -54.635  1.00  0.00     0.076 C 
HETATM   37  C   UNL     1     -44.329  60.686 -52.056  1.00  0.00     0.035 A 
HETATM   38  C   UNL     1     -43.331  60.183 -51.188  1.00  0.00     0.035 A 
ENDBRANCH  31  33
ENDBRANCH  30  31
ENDBRANCH  29  30
ENDBRANCH   1  29
TORSDOF 8
ENDMDL
MODEL 4
REMARK VINA RESULT:      -8.8      2.028      5.870
REMARK  8 active torsions:
REMARK  status: ('A' for Active; 'I' for Inactive)
REMARK    1  A    between atoms: C_4  and  C_5 
REMARK    2  A    between atoms: C_5  and  C_6 
REMARK    3  A    between atoms: C_6  and  C_7 
REMARK    4  A    between atoms: C_7  and  N_8 
REMARK    5  A    between atoms: C_17  and  C_18 
REMARK    6  A    between atoms: C_18  and  N_19 
REMARK    7  A    between atoms: C_23  and  O_24 
REMARK    8  A    between atoms: C_23  and  C_25 
ROOT
HETATM    1  N   UNL     1     -41.592  55.352 -49.768  1.00  0.00    -0.065 N 
HETATM    2  H   UNL     1     -42.102  55.631 -48.921  1.00  0.00     0.280 HD
HETATM    3  C   UNL     1     -42.571  54.483 -50.534  1.00  0.00     0.276 C 
HETATM    4  C   UNL     1     -42.116  54.041 -51.898  1.00  0.00     0.001 A 
HETATM    5  C   UNL     1     -40.984  53.236 -52.039  1.00  0.00     0.076 A 
HETATM    6  O   UNL     1     -40.281  52.811 -50.948  1.00  0.00    -0.349 OA
HETATM    7  C   UNL     1     -39.569  53.885 -50.319  1.00  0.00     0.203 C 
HETATM    8  C   UNL     1     -40.412  54.545 -49.224  1.00  0.00     0.261 C 
HETATM    9  C   UNL     1     -42.842  54.382 -53.056  1.00  0.00     0.020 A 
HETATM   10  C   UNL     1     -42.440  53.934 -54.331  1.00  0.00    -0.032 A 
HETATM   11  C   UNL     1     -41.296  53.130 -54.433  1.00  0.00     0.011 A 
HETATM   12  C   UNL     1     -40.583  52.769 -53.288  1.00  0.00     0.038 A 
ENDROOT
BRANCH  10  13
HETATM   13  C   UNL     1     -43.231  54.316 -55.561  1.00  0.00     0.273 C 
BRANCH  13  14
HETATM   14  N   UNL     1     -42.694  55.506 -56.338  1.00  0.00    -0.067 N 
HETATM   15  H   UNL     1     -41.667  55.465 -56.266  1.00  0.00     0.280 HD
HETATM   16  C   UNL     1     -43.037  55.461 -57.809  1.00  0.00     0.238 C 
HETATM   17  C   UNL     1     -42.465  56.680 -58.509  1.00  0.00     0.071 C 
HETATM   18  C   UNL     1     -43.036  57.989 -57.931  1.00  0.00     0.089 C 
HETATM   19  C   UNL     1     -42.642  58.010 -56.441  1.00  0.00     0.071 C 
HETATM   20  C   UNL     1     -43.138  56.793 -55.674  1.00  0.00     0.238 C 
BRANCH  18  21
HETATM   21  O   UNL     1     -42.313  59.054 -58.551  1.00  0.00    -0.385 OA
HETATM   22  H   UNL     1     -41.435  59.151 -58.137  1.00  0.00     0.211 HD
ENDBRANCH  18  21
BRANCH  18  23
HETATM   23  C   UNL     1     -44.518  58.170 -58.243  1.00  0.00    -0.006 A 
HETATM   24  C   UNL     1     -45.085  57.851 -59.476  1.00  0.00     0.126 A 
HETATM   25  N   UNL     1     -46.373  58.078 -59.811  1.00  0.00    -0.272 NA
HETATM   26  C   UNL     1     -47.187  58.568 -58.855  1.00  0.00     0.116 A 
HETATM   27  C   UNL     1     -46.755  58.859 -57.576  1.00  0.00     0.020 A 
HETATM   28  C   UNL     1     -45.411  58.653 -57.271  1.00  0.00     0.013 A 
ENDBRANCH  18  23
ENDBRANCH  13  14
ENDBRANCH  10  13
BRANCH   1  29
HETATM   29  C   UNL     1     -41.159  56.637 -50.444  1.00  0.00     0.236 C 
BRANCH  29  30
HETATM   30  C   UNL     1     -42.314  57.460 -51.010  1.00  0.00     0.039 C 
BRANCH  30  31
HETATM   31  C   UNL     1     -41.944  58.499 -52.085  1.00  0.00     0.040 C 
HETATM   32  C   UNL     1     -40.928  57.950 -53.086  1.00  0.00     0.017 C 
BRANCH  31  33
HETATM   33  C   UNL     1     -43.192  58.979 -52.751  1.00  0.00     0.057 A 
HETATM   34  O   UNL     1     -43.039  60.063 -53.570  1.00  0.00    -0.319 OA
HETATM   35  C   UNL     1     -44.268  60.345 -54.093  1.00  0.00     0.049 A 
HETATM   36  C   UNL     1     -44.353  61.470 -55.045  1.00  0.00     0.076 C 
HETATM   37  C   UNL     1     -45.206  59.466 -53.598  1.00  0.00     0.035 A 
HETATM   38  C   UNL     1     -44.515  58.588 -52.730  1.00  0.00     0.035 A 
ENDBRANCH  31  33
ENDBRANCH  30  31
ENDBRANCH  29  30
ENDBRANCH   1  29
TORSDOF 8
ENDMDL
MODEL 5
REMARK VINA RESULT:      -8.7      2.289      5.250
REMARK  8 active torsions:
REMARK  status: ('A' for Active; 'I' for Inactive)
REMARK    1  A    between atoms: C_4  and  C_5 
REMARK    2  A    between atoms: C_5  and  C_6 
REMARK    3  A    between atoms: C_6  and  C_7 
REMARK    4  A    between atoms: C_7  and  N_8 
REMARK    5  A    between atoms: C_17  and  C_18 
REMARK    6  A    between atoms: C_18  and  N_19 
REMARK    7  A    between atoms: C_23  and  O_24 
REMARK    8  A    between atoms: C_23  and  C_25 
ROOT
HETATM    1  N   UNL     1     -42.593  54.503 -50.461  1.00  0.00    -0.065 N 
HETATM    2  H   UNL     1     -43.304  54.329 -49.739  1.00  0.00     0.280 HD
HETATM    3  C   UNL     1     -43.114  53.789 -51.693  1.00  0.00     0.276 C 
HETATM    4  C   UNL     1     -42.315  53.996 -52.950  1.00  0.00     0.001 A 
HETATM    5  C   UNL     1     -40.988  53.568 -53.021  1.00  0.00     0.076 A 
HETATM    6  O   UNL     1     -40.394  52.933 -51.967  1.00  0.00    -0.349 OA
HETATM    7  C   UNL     1     -40.159  53.823 -50.869  1.00  0.00     0.203 C 
HETATM    8  C   UNL     1     -41.341  53.829 -49.895  1.00  0.00     0.261 C 
HETATM    9  C   UNL     1     -42.892  54.575 -54.096  1.00  0.00     0.020 A 
HETATM   10  C   UNL     1     -42.156  54.731 -55.288  1.00  0.00    -0.032 A 
HETATM   11  C   UNL     1     -40.825  54.293 -55.321  1.00  0.00     0.011 A 
HETATM   12  C   UNL     1     -40.251  53.698 -54.195  1.00  0.00     0.038 A 
ENDROOT
BRANCH  10  13
HETATM   13  C   UNL     1     -42.795  55.360 -56.505  1.00  0.00     0.273 C 
BRANCH  13  14
HETATM   14  N   UNL     1     -42.714  56.876 -56.573  1.00  0.00    -0.067 N 
HETATM   15  H   UNL     1     -41.902  57.154 -56.002  1.00  0.00     0.280 HD
HETATM   16  C   UNL     1     -42.470  57.397 -57.971  1.00  0.00     0.238 C 
HETATM   17  C   UNL     1     -42.402  58.913 -57.951  1.00  0.00     0.071 C 
HETATM   18  C   UNL     1     -43.716  59.535 -57.437  1.00  0.00     0.089 C 
HETATM   19  C   UNL     1     -43.913  59.003 -56.004  1.00  0.00     0.071 C 
HETATM   20  C   UNL     1     -43.944  57.484 -55.930  1.00  0.00     0.238 C 
BRANCH  18  21
HETATM   21  O   UNL     1     -43.476  60.938 -57.314  1.00  0.00    -0.385 OA
HETATM   22  H   UNL     1     -42.525  61.107 -57.177  1.00  0.00     0.211 HD
ENDBRANCH  18  21
BRANCH  18  23
HETATM   23  C   UNL     1     -44.878  59.331 -58.403  1.00  0.00    -0.006 A 
HETATM   24  C   UNL     1     -44.751  59.439 -59.787  1.00  0.00     0.126 A 
HETATM   25  N   UNL     1     -45.776  59.347 -60.661  1.00  0.00    -0.272 NA
HETATM   26  C   UNL     1     -46.991  59.044 -60.166  1.00  0.00     0.116 A 
HETATM   27  C   UNL     1     -47.226  58.846 -58.819  1.00  0.00     0.020 A 
HETATM   28  C   UNL     1     -46.158  58.988 -57.936  1.00  0.00     0.013 A 
ENDBRANCH  18  23
ENDBRANCH  13  14
ENDBRANCH  10  13
BRANCH   1  29
HETATM   29  C   UNL     1     -42.451  56.008 -50.562  1.00  0.00     0.236 C 
BRANCH  29  30
HETATM   30  C   UNL     1     -43.727  56.722 -51.001  1.00  0.00     0.039 C 
BRANCH  30  31
HETATM   31  C   UNL     1     -43.604  57.631 -52.238  1.00  0.00     0.040 C 
HETATM   32  C   UNL     1     -44.574  58.811 -52.180  1.00  0.00     0.017 C 
BRANCH  31  33
HETATM   33  C   UNL     1     -42.184  58.072 -52.380  1.00  0.00     0.057 A 
HETATM   34  O   UNL     1     -41.654  58.702 -51.288  1.00  0.00    -0.319 OA
HETATM   35  C   UNL     1     -40.363  59.016 -51.597  1.00  0.00     0.049 A 
HETATM   36  C   UNL     1     -39.562  59.683 -50.550  1.00  0.00     0.076 C 
HETATM   37  C   UNL     1     -40.071  58.614 -52.882  1.00  0.00     0.035 A 
HETATM   38  C   UNL     1     -41.245  58.010 -53.389  1.00  0.00     0.035 A 
ENDBRANCH  31  33
ENDBRANCH  30  31
ENDBRANCH  29  30
ENDBRANCH   1  29
TORSDOF 8
ENDMDL
MODEL 6
REMARK VINA RESULT:      -8.5      2.070      8.109
REMARK  8 active torsions:
REMARK  status: ('A' for Active; 'I' for Inactive)
REMARK    1  A    between atoms: C_4  and  C_5 
REMARK    2  A    between atoms: C_5  and  C_6 
REMARK    3  A    between atoms: C_6  and  C_7 
REMARK    4  A    between atoms: C_7  and  N_8 
REMARK    5  A    between atoms: C_17  and  C_18 
REMARK    6  A    between atoms: C_18  and  N_19 
REMARK    7  A    between atoms: C_23  and  O_24 
REMARK    8  A    between atoms: C_23  and  C_25 
ROOT
HETATM    1  N   UNL     1     -42.695  60.994 -58.014  1.00  0.00    -0.065 N 
HETATM    2  H   UNL     1     -42.315  61.808 -57.514  1.00  0.00     0.280 HD
HETATM    3  C   UNL     1     -41.771  59.850 -57.645  1.00  0.00     0.276 C 
HETATM    4  C   UNL     1     -42.183  58.494 -58.148  1.00  0.00     0.001 A 
HETATM    5  C   UNL     1     -42.267  58.246 -59.519  1.00  0.00     0.076 A 
HETATM    6  O   UNL     1     -41.955  59.213 -60.432  1.00  0.00    -0.349 OA
HETATM    7  C   UNL     1     -42.931  60.262 -60.455  1.00  0.00     0.203 C 
HETATM    8  C   UNL     1     -42.560  61.389 -59.486  1.00  0.00     0.261 C 
HETATM    9  C   UNL     1     -42.444  57.434 -57.260  1.00  0.00     0.020 A 
HETATM   10  C   UNL     1     -42.790  56.151 -57.731  1.00  0.00    -0.032 A 
HETATM   11  C   UNL     1     -42.868  55.940 -59.115  1.00  0.00     0.011 A 
HETATM   12  C   UNL     1     -42.590  56.981 -60.003  1.00  0.00     0.038 A 
ENDROOT
BRANCH  10  13
HETATM   13  C   UNL     1     -43.071  55.029 -56.759  1.00  0.00     0.273 C 
BRANCH  13  14
HETATM   14  N   UNL     1     -42.688  55.307 -55.315  1.00  0.00    -0.067 N 
HETATM   15  H   UNL     1     -43.107  56.215 -55.069  1.00  0.00     0.280 HD
HETATM   16  C   UNL     1     -43.239  54.287 -54.345  1.00  0.00     0.238 C 
HETATM   17  C   UNL     1     -42.813  54.637 -52.931  1.00  0.00     0.071 C 
HETATM   18  C   UNL     1     -41.278  54.646 -52.785  1.00  0.00     0.089 C 
HETATM   19  C   UNL     1     -40.759  55.715 -53.767  1.00  0.00     0.071 C 
HETATM   20  C   UNL     1     -41.184  55.463 -55.205  1.00  0.00     0.238 C 
BRANCH  18  21
HETATM   21  O   UNL     1     -41.001  55.139 -51.473  1.00  0.00    -0.385 OA
HETATM   22  H   UNL     1     -41.547  54.670 -50.815  1.00  0.00     0.211 HD
ENDBRANCH  18  21
BRANCH  18  23
HETATM   23  C   UNL     1     -40.669  53.254 -52.913  1.00  0.00    -0.006 A 
HETATM   24  C   UNL     1     -40.635  52.539 -54.109  1.00  0.00     0.126 A 
HETATM   25  N   UNL     1     -40.181  51.275 -54.236  1.00  0.00    -0.272 NA
HETATM   26  C   UNL     1     -39.640  50.696 -53.146  1.00  0.00     0.116 A 
HETATM   27  C   UNL     1     -39.554  51.330 -51.922  1.00  0.00     0.020 A 
HETATM   28  C   UNL     1     -40.070  52.620 -51.810  1.00  0.00     0.013 A 
ENDBRANCH  18  23
ENDBRANCH  13  14
ENDBRANCH  10  13
BRANCH   1  29
HETATM   29  C   UNL     1     -44.140  60.864 -57.575  1.00  0.00     0.236 C 
BRANCH  29  30
HETATM   30  C   UNL     1     -44.337  60.951 -56.063  1.00  0.00     0.039 C 
BRANCH  30  31
HETATM   31  C   UNL     1     -45.142  59.807 -55.418  1.00  0.00     0.040 C 
HETATM   32  C   UNL     1     -45.589  58.769 -56.448  1.00  0.00     0.017 C 
BRANCH  31  33
HETATM   33  C   UNL     1     -44.333  59.200 -54.319  1.00  0.00     0.057 A 
HETATM   34  O   UNL     1     -45.054  58.636 -53.303  1.00  0.00    -0.319 OA
HETATM   35  C   UNL     1     -44.157  58.129 -52.410  1.00  0.00     0.049 A 
HETATM   36  C   UNL     1     -44.702  57.433 -51.227  1.00  0.00     0.076 C 
HETATM   37  C   UNL     1     -42.870  58.383 -52.834  1.00  0.00     0.035 A 
HETATM   38  C   UNL     1     -42.983  59.077 -54.061  1.00  0.00     0.035 A 
ENDBRANCH  31  33
ENDBRANCH  30  31
ENDBRANCH  29  30
ENDBRANCH   1  29
TORSDOF 8
ENDMDL
MODEL 7
REMARK VINA RESULT:      -8.5      1.575      2.394
REMARK  8 active torsions:
REMARK  status: ('A' for Active; 'I' for Inactive)
REMARK    1  A    between atoms: C_4  and  C_5 
REMARK    2  A    between atoms: C_5  and  C_6 
REMARK    3  A    between atoms: C_6  and  C_7 
REMARK    4  A    between atoms: C_7  and  N_8 
REMARK    5  A    between atoms: C_17  and  C_18 
REMARK    6  A    between atoms: C_18  and  N_19 
REMARK    7  A    between atoms: C_23  and  O_24 
REMARK    8  A    between atoms: C_23  and  C_25 
ROOT
HETATM    1  N   UNL     1     -40.735  58.190 -51.194  1.00  0.00    -0.065 N 
HETATM    2  H   UNL     1     -39.835  57.710 -51.071  1.00  0.00     0.280 HD
HETATM    3  C   UNL     1     -40.613  58.896 -52.531  1.00  0.00     0.276 C 
HETATM    4  C   UNL     1     -41.860  59.580 -53.020  1.00  0.00     0.001 A 
HETATM    5  C   UNL     1     -42.421  60.631 -52.292  1.00  0.00     0.076 A 
HETATM    6  O   UNL     1     -41.841  61.079 -51.139  1.00  0.00    -0.349 OA
HETATM    7  C   UNL     1     -41.970  60.131 -50.072  1.00  0.00     0.203 C 
HETATM    8  C   UNL     1     -40.773  59.177 -50.026  1.00  0.00     0.261 C 
HETATM    9  C   UNL     1     -42.462  59.216 -54.239  1.00  0.00     0.020 A 
HETATM   10  C   UNL     1     -43.607  59.884 -54.720  1.00  0.00    -0.032 A 
HETATM   11  C   UNL     1     -44.144  60.933 -53.960  1.00  0.00     0.011 A 
HETATM   12  C   UNL     1     -43.540  61.314 -52.760  1.00  0.00     0.038 A 
ENDROOT
BRANCH  10  13
HETATM   13  C   UNL     1     -44.240  59.473 -56.029  1.00  0.00     0.273 C 
BRANCH  13  14
HETATM   14  N   UNL     1     -43.367  58.621 -56.935  1.00  0.00    -0.067 N 
HETATM   15  H   UNL     1     -42.409  58.679 -56.561  1.00  0.00     0.280 HD
HETATM   16  C   UNL     1     -43.754  57.160 -56.933  1.00  0.00     0.238 C 
HETATM   17  C   UNL     1     -42.837  56.382 -57.859  1.00  0.00     0.071 C 
HETATM   18  C   UNL     1     -42.927  56.893 -59.311  1.00  0.00     0.089 C 
HETATM   19  C   UNL     1     -42.499  58.373 -59.274  1.00  0.00     0.071 C 
HETATM   20  C   UNL     1     -43.341  59.216 -58.329  1.00  0.00     0.238 C 
BRANCH  18  21
HETATM   21  O   UNL     1     -41.915  56.202 -60.045  1.00  0.00    -0.385 OA
HETATM   22  H   UNL     1     -42.270  55.894 -60.900  1.00  0.00     0.211 HD
ENDBRANCH  18  21
BRANCH  18  23
HETATM   23  C   UNL     1     -44.276  56.593 -59.955  1.00  0.00    -0.006 A 
HETATM   24  C   UNL     1     -44.536  55.432 -60.682  1.00  0.00     0.126 A 
HETATM   25  N   UNL     1     -45.690  55.176 -61.334  1.00  0.00    -0.272 NA
HETATM   26  C   UNL     1     -46.691  56.068 -61.199  1.00  0.00     0.116 A 
HETATM   27  C   UNL     1     -46.575  57.221 -60.448  1.00  0.00     0.020 A 
HETATM   28  C   UNL     1     -45.358  57.479 -59.820  1.00  0.00     0.013 A 
ENDBRANCH  18  23
ENDBRANCH  13  14
ENDBRANCH  10  13
BRANCH   1  29
HETATM   29  C   UNL     1     -41.804  57.122 -51.090  1.00  0.00     0.236 C 
BRANCH  29  30
HETATM   30  C   UNL     1     -41.743  56.074 -52.199  1.00  0.00     0.039 C 
BRANCH  30  31
HETATM   31  C   UNL     1     -41.117  54.719 -51.818  1.00  0.00     0.040 C 
HETATM   32  C   UNL     1     -42.041  53.894 -50.922  1.00  0.00     0.017 C 
BRANCH  31  33
HETATM   33  C   UNL     1     -40.739  53.988 -53.065  1.00  0.00     0.057 A 
HETATM   34  O   UNL     1     -40.557  52.640 -52.921  1.00  0.00    -0.319 OA
HETATM   35  C   UNL     1     -40.233  52.148 -54.151  1.00  0.00     0.049 A 
HETATM   36  C   UNL     1     -40.017  50.691 -54.259  1.00  0.00     0.076 C 
HETATM   37  C   UNL     1     -40.183  53.171 -55.073  1.00  0.00     0.035 A 
HETATM   38  C   UNL     1     -40.504  54.357 -54.374  1.00  0.00     0.035 A 
ENDBRANCH  31  33
ENDBRANCH  30  31
ENDBRANCH  29  30
ENDBRANCH   1  29
TORSDOF 8
ENDMDL
MODEL 8
REMARK VINA RESULT:      -8.3      2.281      7.438
REMARK  8 active torsions:
REMARK  status: ('A' for Active; 'I' for Inactive)
REMARK    1  A    between atoms: C_4  and  C_5 
REMARK    2  A    between atoms: C_5  and  C_6 
REMARK    3  A    between atoms: C_6  and  C_7 
REMARK    4  A    between atoms: C_7  and  N_8 
REMARK    5  A    between atoms: C_17  and  C_18 
REMARK    6  A    between atoms: C_18  and  N_19 
REMARK    7  A    between atoms: C_23  and  O_24 
REMARK    8  A    between atoms: C_23  and  C_25 
ROOT
HETATM    1  N   UNL     1     -44.926  61.968 -54.834  1.00  0.00    -0.065 N 
HETATM    2  H   UNL     1     -45.586  62.311 -55.543  1.00  0.00     0.280 HD
HETATM    3  C   UNL     1     -45.683  60.879 -54.099  1.00  0.00     0.276 C 
HETATM    4  C   UNL     1     -44.888  60.111 -53.078  1.00  0.00     0.001 A 
HETATM    5  C   UNL     1     -44.351  60.763 -51.967  1.00  0.00     0.076 A 
HETATM    6  O   UNL     1     -44.553  62.098 -51.766  1.00  0.00    -0.349 OA
HETATM    7  C   UNL     1     -43.834  62.897 -52.714  1.00  0.00     0.203 C 
HETATM    8  C   UNL     1     -44.686  63.195 -53.951  1.00  0.00     0.261 C 
HETATM    9  C   UNL     1     -44.709  58.719 -53.189  1.00  0.00     0.020 A 
HETATM   10  C   UNL     1     -43.999  57.992 -52.211  1.00  0.00    -0.032 A 
HETATM   11  C   UNL     1     -43.472  58.681 -51.110  1.00  0.00     0.011 A 
HETATM   12  C   UNL     1     -43.663  60.058 -50.982  1.00  0.00     0.038 A 
ENDROOT
BRANCH  10  13
HETATM   13  C   UNL     1     -43.815  56.499 -52.352  1.00  0.00     0.273 C 
BRANCH  13  14
HETATM   14  N   UNL     1     -42.899  56.059 -53.482  1.00  0.00    -0.067 N 
HETATM   15  H   UNL     1     -43.053  56.717 -54.259  1.00  0.00     0.280 HD
HETATM   16  C   UNL     1     -41.433  56.134 -53.123  1.00  0.00     0.238 C 
HETATM   17  C   UNL     1     -40.590  55.680 -54.300  1.00  0.00     0.071 C 
HETATM   18  C   UNL     1     -40.905  54.225 -54.699  1.00  0.00     0.089 C 
HETATM   19  C   UNL     1     -42.397  54.197 -55.084  1.00  0.00     0.071 C 
HETATM   20  C   UNL     1     -43.311  54.685 -53.969  1.00  0.00     0.238 C 
BRANCH  18  21
HETATM   21  O   UNL     1     -40.177  53.969 -55.901  1.00  0.00    -0.385 OA
HETATM   22  H   UNL     1     -40.298  53.042 -56.178  1.00  0.00     0.211 HD
ENDBRANCH  18  21
BRANCH  18  23
HETATM   23  C   UNL     1     -40.457  53.219 -53.645  1.00  0.00    -0.006 A 
HETATM   24  C   UNL     1     -40.384  53.515 -52.285  1.00  0.00     0.126 A 
HETATM   25  N   UNL     1     -39.912  52.675 -51.340  1.00  0.00    -0.272 NA
HETATM   26  C   UNL     1     -39.570  51.431 -51.728  1.00  0.00     0.116 A 
HETATM   27  C   UNL     1     -39.664  50.999 -53.036  1.00  0.00     0.020 A 
HETATM   28  C   UNL     1     -40.115  51.902 -53.998  1.00  0.00     0.013 A 
ENDBRANCH  18  23
ENDBRANCH  13  14
ENDBRANCH  10  13
BRANCH   1  29
HETATM   29  C   UNL     1     -43.683  61.537 -55.586  1.00  0.00     0.236 C 
BRANCH  29  30
HETATM   30  C   UNL     1     -43.890  60.312 -56.473  1.00  0.00     0.039 C 
BRANCH  30  31
HETATM   31  C   UNL     1     -42.658  59.412 -56.684  1.00  0.00     0.040 C 
HETATM   32  C   UNL     1     -41.946  59.098 -55.367  1.00  0.00     0.017 C 
BRANCH  31  33
HETATM   33  C   UNL     1     -43.075  58.175 -57.411  1.00  0.00     0.057 A 
HETATM   34  O   UNL     1     -44.082  58.342 -58.321  1.00  0.00    -0.319 OA
HETATM   35  C   UNL     1     -44.314  57.122 -58.886  1.00  0.00     0.049 A 
HETATM   36  C   UNL     1     -45.350  57.052 -59.936  1.00  0.00     0.076 C 
HETATM   37  C   UNL     1     -43.481  56.176 -58.330  1.00  0.00     0.035 A 
HETATM   38  C   UNL     1     -42.686  56.852 -57.376  1.00  0.00     0.035 A 
ENDBRANCH  31  33
ENDBRANCH  30  31
ENDBRANCH  29  30
ENDBRANCH   1  29
TORSDOF 8
ENDMDL
MODEL 9
REMARK VINA RESULT:      -8.3      2.233      8.138
REMARK  8 active torsions:
REMARK  status: ('A' for Active; 'I' for Inactive)
REMARK    1  A    between atoms: C_4  and  C_5 
REMARK    2  A    between atoms: C_5  and  C_6 
REMARK    3  A    between atoms: C_6  and  C_7 
REMARK    4  A    between atoms: C_7  and  N_8 
REMARK    5  A    between atoms: C_17  and  C_18 
REMARK    6  A    between atoms: C_18  and  N_19 
REMARK    7  A    between atoms: C_23  and  O_24 
REMARK    8  A    between atoms: C_23  and  C_25 
ROOT
HETATM    1  N   UNL     1     -45.159  60.745 -57.881  1.00  0.00    -0.065 N 
HETATM    2  H   UNL     1     -45.608  60.838 -58.801  1.00  0.00     0.280 HD
HETATM    3  C   UNL     1     -45.914  59.620 -57.199  1.00  0.00     0.276 C 
HETATM    4  C   UNL     1     -45.367  59.187 -55.866  1.00  0.00     0.001 A 
HETATM    5  C   UNL     1     -45.330  60.080 -54.794  1.00  0.00     0.076 A 
HETATM    6  O   UNL     1     -45.810  61.352 -54.919  1.00  0.00    -0.349 OA
HETATM    7  C   UNL     1     -44.974  62.160 -55.757  1.00  0.00     0.203 C 
HETATM    8  C   UNL     1     -45.425  62.098 -57.219  1.00  0.00     0.261 C 
HETATM    9  C   UNL     1     -44.927  57.867 -55.653  1.00  0.00     0.020 A 
HETATM   10  C   UNL     1     -44.453  57.447 -54.392  1.00  0.00    -0.032 A 
HETATM   11  C   UNL     1     -44.428  58.373 -53.340  1.00  0.00     0.011 A 
HETATM   12  C   UNL     1     -44.882  59.678 -53.538  1.00  0.00     0.038 A 
ENDROOT
BRANCH  10  13
HETATM   13  C   UNL     1     -43.982  56.026 -54.186  1.00  0.00     0.273 C 
BRANCH  13  14
HETATM   14  N   UNL     1     -43.244  55.767 -52.883  1.00  0.00    -0.067 N 
HETATM   15  H   UNL     1     -43.609  56.445 -52.198  1.00  0.00     0.280 HD
HETATM   16  C   UNL     1     -43.497  54.388 -52.320  1.00  0.00     0.238 C 
HETATM   17  C   UNL     1     -42.727  54.211 -51.024  1.00  0.00     0.071 C 
HETATM   18  C   UNL     1     -41.208  54.362 -51.239  1.00  0.00     0.089 C 
HETATM   19  C   UNL     1     -40.990  55.786 -51.787  1.00  0.00     0.071 C 
HETATM   20  C   UNL     1     -41.769  56.062 -53.064  1.00  0.00     0.238 C 
BRANCH  18  21
HETATM   21  O   UNL     1     -40.612  54.336 -49.942  1.00  0.00    -0.385 OA
HETATM   22  H   UNL     1     -39.697  54.002 -49.997  1.00  0.00     0.211 HD
ENDBRANCH  18  21
BRANCH  18  23
HETATM   23  C   UNL     1     -40.617  53.221 -52.061  1.00  0.00    -0.006 A 
HETATM   24  C   UNL     1     -39.993  52.111 -51.493  1.00  0.00     0.126 A 
HETATM   25  N   UNL     1     -39.387  51.129 -52.192  1.00  0.00    -0.272 NA
HETATM   26  C   UNL     1     -39.467  51.182 -53.536  1.00  0.00     0.116 A 
HETATM   27  C   UNL     1     -40.118  52.196 -54.211  1.00  0.00     0.020 A 
HETATM   28  C   UNL     1     -40.699  53.219 -53.464  1.00  0.00     0.013 A 
ENDBRANCH  18  23
ENDBRANCH  13  14
ENDBRANCH  10  13
BRANCH   1  29
HETATM   29  C   UNL     1     -43.688  60.506 -58.150  1.00  0.00     0.236 C 
BRANCH  29  30
HETATM   30  C   UNL     1     -43.416  59.594 -59.345  1.00  0.00     0.039 C 
BRANCH  30  31
HETATM   31  C   UNL     1     -42.576  58.336 -59.061  1.00  0.00     0.040 C 
HETATM   32  C   UNL     1     -42.078  58.294 -57.616  1.00  0.00     0.017 C 
BRANCH  31  33
HETATM   33  C   UNL     1     -43.372  57.125 -59.420  1.00  0.00     0.057 A 
HETATM   34  O   UNL     1     -44.702  57.346 -59.653  1.00  0.00    -0.319 OA
HETATM   35  C   UNL     1     -45.256  56.141 -59.976  1.00  0.00     0.049 A 
HETATM   36  C   UNL     1     -46.695  56.128 -60.305  1.00  0.00     0.076 C 
HETATM   37  C   UNL     1     -44.299  55.151 -59.928  1.00  0.00     0.035 A 
HETATM   38  C   UNL     1     -43.086  55.783 -59.566  1.00  0.00     0.035 A 
ENDBRANCH  31  33
ENDBRANCH  30  31
ENDBRANCH  29  30
ENDBRANCH   1  29
TORSDOF 8
ENDMDL
MODEL 10
REMARK VINA RESULT:      -8.2      2.688      8.880
REMARK  8 active torsions:
REMARK  status: ('A' for Active; 'I' for Inactive)
REMARK    1  A    between atoms: C_4  and  C_5 
REMARK    2  A    between atoms: C_5  and  C_6 
REMARK    3  A    between atoms: C_6  and  C_7 
REMARK    4  A    between atoms: C_7  and  N_8 
REMARK    5  A    between atoms: C_17  and  C_18 
REMARK    6  A    between atoms: C_18  and  N_19 
REMARK    7  A    between atoms: C_23  and  O_24 
REMARK    8  A    between atoms: C_23  and  C_25 
ROOT
HETATM    1  N   UNL     1     -45.382  58.336 -60.743  1.00  0.00    -0.065 N 
HETATM    2  H   UNL     1     -45.352  57.932 -61.687  1.00  0.00     0.280 HD
HETATM    3  C   UNL     1     -45.077  57.173 -59.818  1.00  0.00     0.276 C 
HETATM    4  C   UNL     1     -44.930  57.523 -58.363  1.00  0.00     0.001 A 
HETATM    5  C   UNL     1     -46.004  58.063 -57.654  1.00  0.00     0.076 A 
HETATM    6  O   UNL     1     -47.216  58.262 -58.252  1.00  0.00    -0.349 OA
HETATM    7  C   UNL     1     -47.172  59.330 -59.207  1.00  0.00     0.203 C 
HETATM    8  C   UNL     1     -46.830  58.812 -60.607  1.00  0.00     0.261 C 
HETATM    9  C   UNL     1     -43.730  57.271 -57.669  1.00  0.00     0.020 A 
HETATM   10  C   UNL     1     -43.604  57.560 -56.295  1.00  0.00    -0.032 A 
HETATM   11  C   UNL     1     -44.704  58.104 -55.617  1.00  0.00     0.011 A 
HETATM   12  C   UNL     1     -45.904  58.337 -56.292  1.00  0.00     0.038 A 
ENDROOT
BRANCH  10  13
HETATM   13  C   UNL     1     -42.306  57.286 -55.572  1.00  0.00     0.273 C 
BRANCH  13  14
HETATM   14  N   UNL     1     -41.893  55.825 -55.505  1.00  0.00    -0.067 N 
HETATM   15  H   UNL     1     -41.759  55.512 -56.478  1.00  0.00     0.280 HD
HETATM   16  C   UNL     1     -40.582  55.608 -54.786  1.00  0.00     0.238 C 
HETATM   17  C   UNL     1     -40.244  54.129 -54.765  1.00  0.00     0.071 C 
HETATM   18  C   UNL     1     -41.324  53.308 -54.034  1.00  0.00     0.089 C 
HETATM   19  C   UNL     1     -42.636  53.533 -54.812  1.00  0.00     0.071 C 
HETATM   20  C   UNL     1     -43.022  55.000 -54.921  1.00  0.00     0.238 C 
BRANCH  18  21
HETATM   21  O   UNL     1     -40.981  51.934 -54.218  1.00  0.00    -0.385 OA
HETATM   22  H   UNL     1     -41.501  51.372 -53.613  1.00  0.00     0.211 HD
ENDBRANCH  18  21
BRANCH  18  23
HETATM   23  C   UNL     1     -41.366  53.595 -52.537  1.00  0.00    -0.006 A 
HETATM   24  C   UNL     1     -42.525  53.974 -51.862  1.00  0.00     0.126 A 
HETATM   25  N   UNL     1     -42.577  54.317 -50.558  1.00  0.00    -0.272 NA
HETATM   26  C   UNL     1     -41.444  54.199 -49.838  1.00  0.00     0.116 A 
HETATM   27  C   UNL     1     -40.250  53.768 -50.381  1.00  0.00     0.020 A 
HETATM   28  C   UNL     1     -40.216  53.461 -51.740  1.00  0.00     0.013 A 
ENDBRANCH  18  23
ENDBRANCH  13  14
ENDBRANCH  10  13
BRANCH   1  29
HETATM   29  C   UNL     1     -44.389  59.480 -60.739  1.00  0.00     0.236 C 
BRANCH  29  30
HETATM   30  C   UNL     1     -42.930  59.034 -60.821  1.00  0.00     0.039 C 
BRANCH  30  31
HETATM   31  C   UNL     1     -41.905  60.129 -61.169  1.00  0.00     0.040 C 
HETATM   32  C   UNL     1     -42.391  61.027 -62.307  1.00  0.00     0.017 C 
BRANCH  31  33
HETATM   33  C   UNL     1     -41.581  60.905 -59.935  1.00  0.00     0.057 A 
HETATM   34  O   UNL     1     -42.117  60.414 -58.776  1.00  0.00    -0.319 OA
HETATM   35  C   UNL     1     -41.707  61.236 -57.767  1.00  0.00     0.049 A 
HETATM   36  C   UNL     1     -42.137  60.889 -56.398  1.00  0.00     0.076 C 
HETATM   37  C   UNL     1     -40.935  62.259 -58.273  1.00  0.00     0.035 A 
HETATM   38  C   UNL     1     -40.857  62.050 -59.670  1.00  0.00     0.035 A 
ENDBRANCH  31  33
ENDBRANCH  30  31
ENDBRANCH  29  30
ENDBRANCH   1  29
TORSDOF 8
ENDMDL
