MODEL 1
REMARK VINA RESULT:      -7.7      0.000      0.000
REMARK  7 active torsions:
REMARK  status: ('A' for Active; 'I' for Inactive)
REMARK    1  A    between atoms: C_2  and  N_3 
REMARK    2  A    between atoms: N_3  and  C_4 
REMARK    3  A    between atoms: C_4  and  N_5 
REMARK    4  A    between atoms: N_5  and  N_6 
REMARK    5  A    between atoms: N_6  and  C_7 
REMARK    6  A    between atoms: N_8  and  C_9 
REMARK    7  A    between atoms: C_9  and  C_10 
ROOT
HETATM    1  C   UNL     1     -42.036  59.730 -54.205  1.00  0.00     0.204 C 
HETATM    2  N   UNL     1     -41.805  59.019 -53.047  1.00  0.00    -0.283 N 
HETATM    3  C   UNL     1     -41.463  57.683 -53.111  1.00  0.00     0.259 C 
HETATM    4  O   UNL     1     -40.873  57.114 -52.196  1.00  0.00    -0.267 OA
HETATM    5  C   UNL     1     -41.821  56.962 -54.361  1.00  0.00     0.049 C 
HETATM    6  C   UNL     1     -42.155  57.756 -55.397  1.00  0.00     0.083 C 
HETATM    7  C   UNL     1     -42.506  57.134 -56.702  1.00  0.00    -0.000 A 
HETATM    8  C   UNL     1     -42.790  55.762 -56.773  1.00  0.00    -0.044 A 
HETATM    9  C   UNL     1     -43.171  55.176 -57.991  1.00  0.00     0.008 A 
HETATM   10  C   UNL     1     -43.252  55.947 -59.148  1.00  0.00     0.001 A 
HETATM   11  C   UNL     1     -42.965  57.308 -59.092  1.00  0.00     0.001 A 
HETATM   12  C   UNL     1     -42.599  57.895 -57.878  1.00  0.00     0.014 A 
HETATM   13  C   UNL     1     -42.778  54.940 -55.515  1.00  0.00     0.054 C 
HETATM   14  C   UNL     1     -41.747  55.425 -54.447  1.00  0.00    -0.002 C 
HETATM   15  C   UNL     1     -40.293  55.050 -54.858  1.00  0.00     0.015 C 
HETATM   16  C   UNL     1     -40.021  53.545 -54.903  1.00  0.00     0.001 C 
HETATM   17  C   UNL     1     -40.416  52.852 -53.605  1.00  0.00     0.000 C 
HETATM   18  C   UNL     1     -41.854  53.159 -53.203  1.00  0.00     0.001 C 
HETATM   19  C   UNL     1     -42.101  54.670 -53.128  1.00  0.00     0.015 C 
HETATM   20  N   UNL     1     -42.170  59.127 -55.351  1.00  0.00    -0.217 NA
ENDROOT
BRANCH   1  21
HETATM   21  N   UNL     1     -42.099  61.113 -54.163  1.00  0.00    -0.171 NA
HETATM   22  H   UNL     1     -41.256  61.638 -54.386  1.00  0.00     0.156 HD
BRANCH  21  23
HETATM   23  N   UNL     1     -43.241  61.666 -54.784  1.00  0.00    -0.291 N 
HETATM   24  H   UNL     1     -43.187  61.603 -55.801  1.00  0.00     0.183 HD
BRANCH  23  25
HETATM   25  C   UNL     1     -44.472  61.516 -54.195  1.00  0.00     0.182 C 
HETATM   26  S   UNL     1     -45.129  62.510 -53.023  1.00  0.00    -0.040 SA
BRANCH  25  27
HETATM   27  N   UNL     1     -45.245  60.495 -54.677  1.00  0.00    -0.367 N 
HETATM   28  H   UNL     1     -45.947  60.180 -54.016  1.00  0.00     0.161 HD
BRANCH  27  29
HETATM   29  C   UNL     1     -45.464  60.141 -56.071  1.00  0.00     0.117 C 
HETATM   30  C   UNL     1     -45.748  58.656 -56.223  1.00  0.00     0.026 C 
ENDBRANCH  27  29
ENDBRANCH  25  27
ENDBRANCH  23  25
ENDBRANCH  21  23
ENDBRANCH   1  21
BRANCH   2  31
HETATM   31  C   UNL     1     -41.761  59.651 -51.732  1.00  0.00     0.173 C 
BRANCH  31  32
HETATM   32  C   UNL     1     -43.095  59.862 -51.041  1.00  0.00    -0.040 A 
HETATM   33  C   UNL     1     -44.239  59.101 -51.316  1.00  0.00     0.009 A 
HETATM   34  C   UNL     1     -45.446  59.370 -50.667  1.00  0.00     0.001 A 
HETATM   35  C   UNL     1     -45.530  60.407 -49.741  1.00  0.00     0.000 A 
HETATM   36  C   UNL     1     -44.404  61.177 -49.461  1.00  0.00     0.001 A 
HETATM   37  C   UNL     1     -43.196  60.906 -50.105  1.00  0.00     0.009 A 
ENDBRANCH  31  32
ENDBRANCH   2  31
TORSDOF 7
ENDMDL
MODEL 2
REMARK VINA RESULT:      -7.7      3.148      6.456
REMARK  7 active torsions:
REMARK  status: ('A' for Active; 'I' for Inactive)
REMARK    1  A    between atoms: C_2  and  N_3 
REMARK    2  A    between atoms: N_3  and  C_4 
REMARK    3  A    between atoms: C_4  and  N_5 
REMARK    4  A    between atoms: N_5  and  N_6 
REMARK    5  A    between atoms: N_6  and  C_7 
REMARK    6  A    between atoms: N_8  and  C_9 
REMARK    7  A    between atoms: C_9  and  C_10 
ROOT
HETATM    1  C   UNL     1     -42.447  56.868 -56.732  1.00  0.00     0.204 C 
HETATM    2  N   UNL     1     -42.840  58.113 -56.290  1.00  0.00    -0.283 N 
HETATM    3  C   UNL     1     -42.409  58.581 -55.065  1.00  0.00     0.259 C 
HETATM    4  O   UNL     1     -42.382  59.779 -54.794  1.00  0.00    -0.267 OA
HETATM    5  C   UNL     1     -41.948  57.562 -54.085  1.00  0.00     0.049 C 
HETATM    6  C   UNL     1     -41.714  56.341 -54.606  1.00  0.00     0.083 C 
HETATM    7  C   UNL     1     -41.225  55.254 -53.715  1.00  0.00    -0.000 A 
HETATM    8  C   UNL     1     -41.304  55.399 -52.322  1.00  0.00    -0.044 A 
HETATM    9  C   UNL     1     -40.891  54.360 -51.474  1.00  0.00     0.008 A 
HETATM   10  C   UNL     1     -40.379  53.179 -52.006  1.00  0.00     0.001 A 
HETATM   11  C   UNL     1     -40.288  53.026 -53.386  1.00  0.00     0.001 A 
HETATM   12  C   UNL     1     -40.711  54.055 -54.232  1.00  0.00     0.014 A 
HETATM   13  C   UNL     1     -41.925  56.640 -51.744  1.00  0.00     0.054 C 
HETATM   14  C   UNL     1     -41.708  57.923 -52.606  1.00  0.00    -0.002 C 
HETATM   15  C   UNL     1     -40.247  58.443 -52.484  1.00  0.00     0.015 C 
HETATM   16  C   UNL     1     -39.869  58.934 -51.085  1.00  0.00     0.001 C 
HETATM   17  C   UNL     1     -40.860  59.961 -50.551  1.00  0.00     0.000 C 
HETATM   18  C   UNL     1     -42.298  59.459 -50.610  1.00  0.00     0.001 C 
HETATM   19  C   UNL     1     -42.672  59.004 -52.024  1.00  0.00     0.015 C 
HETATM   20  N   UNL     1     -41.869  56.020 -55.931  1.00  0.00    -0.217 NA
ENDROOT
BRANCH   1  21
HETATM   21  N   UNL     1     -42.639  56.516 -58.057  1.00  0.00    -0.171 NA
HETATM   22  H   UNL     1     -41.818  56.310 -58.622  1.00  0.00     0.156 HD
BRANCH  21  23
HETATM   23  N   UNL     1     -43.672  55.576 -58.269  1.00  0.00    -0.291 N 
HETATM   24  H   UNL     1     -43.964  55.131 -57.399  1.00  0.00     0.183 HD
BRANCH  23  25
HETATM   25  C   UNL     1     -44.634  55.828 -59.216  1.00  0.00     0.182 C 
HETATM   26  S   UNL     1     -44.789  55.056 -60.690  1.00  0.00    -0.040 SA
BRANCH  25  27
HETATM   27  N   UNL     1     -45.585  56.749 -58.871  1.00  0.00    -0.367 N 
HETATM   28  H   UNL     1     -45.241  57.458 -58.232  1.00  0.00     0.161 HD
BRANCH  27  29
HETATM   29  C   UNL     1     -46.801  57.073 -59.601  1.00  0.00     0.117 C 
HETATM   30  C   UNL     1     -46.688  58.423 -60.287  1.00  0.00     0.026 C 
ENDBRANCH  27  29
ENDBRANCH  25  27
ENDBRANCH  23  25
ENDBRANCH  21  23
ENDBRANCH   1  21
BRANCH   2  31
HETATM   31  C   UNL     1     -43.590  59.044 -57.127  1.00  0.00     0.173 C 
BRANCH  31  32
HETATM   32  C   UNL     1     -42.790  59.818 -58.157  1.00  0.00    -0.040 A 
HETATM   33  C   UNL     1     -41.798  60.752 -57.827  1.00  0.00     0.009 A 
HETATM   34  C   UNL     1     -41.121  61.455 -58.826  1.00  0.00     0.001 A 
HETATM   35  C   UNL     1     -41.431  61.242 -60.168  1.00  0.00     0.000 A 
HETATM   36  C   UNL     1     -42.418  60.322 -60.513  1.00  0.00     0.001 A 
HETATM   37  C   UNL     1     -43.091  59.615 -59.516  1.00  0.00     0.009 A 
ENDBRANCH  31  32
ENDBRANCH   2  31
TORSDOF 7
ENDMDL
MODEL 3
REMARK VINA RESULT:      -7.5      1.232      1.678
REMARK  7 active torsions:
REMARK  status: ('A' for Active; 'I' for Inactive)
REMARK    1  A    between atoms: C_2  and  N_3 
REMARK    2  A    between atoms: N_3  and  C_4 
REMARK    3  A    between atoms: C_4  and  N_5 
REMARK    4  A    between atoms: N_5  and  N_6 
REMARK    5  A    between atoms: N_6  and  C_7 
REMARK    6  A    between atoms: N_8  and  C_9 
REMARK    7  A    between atoms: C_9  and  C_10 
ROOT
HETATM    1  C   UNL     1     -42.016  59.794 -54.254  1.00  0.00     0.204 C 
HETATM    2  N   UNL     1     -41.783  59.081 -53.098  1.00  0.00    -0.283 N 
HETATM    3  C   UNL     1     -41.453  57.742 -53.164  1.00  0.00     0.259 C 
HETATM    4  O   UNL     1     -40.861  57.168 -52.254  1.00  0.00    -0.267 OA
HETATM    5  C   UNL     1     -41.827  57.024 -54.411  1.00  0.00     0.049 C 
HETATM    6  C   UNL     1     -42.161  57.821 -55.446  1.00  0.00     0.083 C 
HETATM    7  C   UNL     1     -42.527  57.201 -56.748  1.00  0.00    -0.000 A 
HETATM    8  C   UNL     1     -42.823  55.832 -56.817  1.00  0.00    -0.044 A 
HETATM    9  C   UNL     1     -43.218  55.250 -58.032  1.00  0.00     0.008 A 
HETATM   10  C   UNL     1     -43.301  56.021 -59.188  1.00  0.00     0.001 A 
HETATM   11  C   UNL     1     -43.002  57.379 -59.135  1.00  0.00     0.001 A 
HETATM   12  C   UNL     1     -42.621  57.963 -57.924  1.00  0.00     0.014 A 
HETATM   13  C   UNL     1     -42.809  55.010 -55.559  1.00  0.00     0.054 C 
HETATM   14  C   UNL     1     -41.766  55.486 -54.499  1.00  0.00    -0.002 C 
HETATM   15  C   UNL     1     -40.319  55.099 -54.920  1.00  0.00     0.015 C 
HETATM   16  C   UNL     1     -40.060  53.592 -54.966  1.00  0.00     0.001 C 
HETATM   17  C   UNL     1     -40.452  52.902 -53.665  1.00  0.00     0.000 C 
HETATM   18  C   UNL     1     -41.884  53.221 -53.253  1.00  0.00     0.001 C 
HETATM   19  C   UNL     1     -42.118  54.734 -53.177  1.00  0.00     0.015 C 
HETATM   20  N   UNL     1     -42.164  59.191 -55.399  1.00  0.00    -0.217 NA
ENDROOT
BRANCH   1  21
HETATM   21  N   UNL     1     -42.067  61.177 -54.212  1.00  0.00    -0.171 NA
HETATM   22  H   UNL     1     -41.297  61.697 -54.627  1.00  0.00     0.156 HD
BRANCH  21  23
HETATM   23  N   UNL     1     -43.321  61.728 -54.560  1.00  0.00    -0.291 N 
HETATM   24  H   UNL     1     -43.819  62.080 -53.743  1.00  0.00     0.183 HD
BRANCH  23  25
HETATM   25  C   UNL     1     -43.455  62.416 -55.740  1.00  0.00     0.182 C 
HETATM   26  S   UNL     1     -43.478  64.078 -55.913  1.00  0.00    -0.040 SA
BRANCH  25  27
HETATM   27  N   UNL     1     -43.501  61.652 -56.875  1.00  0.00    -0.367 N 
HETATM   28  H   UNL     1     -44.326  61.066 -56.928  1.00  0.00     0.161 HD
BRANCH  27  29
HETATM   29  C   UNL     1     -42.797  61.894 -58.126  1.00  0.00     0.117 C 
HETATM   30  C   UNL     1     -41.333  61.503 -58.017  1.00  0.00     0.026 C 
ENDBRANCH  27  29
ENDBRANCH  25  27
ENDBRANCH  23  25
ENDBRANCH  21  23
ENDBRANCH   1  21
BRANCH   2  31
HETATM   31  C   UNL     1     -41.725  59.712 -51.783  1.00  0.00     0.173 C 
BRANCH  31  32
HETATM   32  C   UNL     1     -43.052  59.949 -51.090  1.00  0.00    -0.040 A 
HETATM   33  C   UNL     1     -43.269  60.975 -50.160  1.00  0.00     0.009 A 
HETATM   34  C   UNL     1     -44.509  61.116 -49.532  1.00  0.00     0.001 A 
HETATM   35  C   UNL     1     -45.546  60.231 -49.818  1.00  0.00     0.000 A 
HETATM   36  C   UNL     1     -45.346  59.203 -50.734  1.00  0.00     0.001 A 
HETATM   37  C   UNL     1     -44.109  59.063 -51.366  1.00  0.00     0.009 A 
ENDBRANCH  31  32
ENDBRANCH   2  31
TORSDOF 7
ENDMDL
MODEL 4
REMARK VINA RESULT:      -7.3     17.314     20.393
REMARK  7 active torsions:
REMARK  status: ('A' for Active; 'I' for Inactive)
REMARK    1  A    between atoms: C_2  and  N_3 
REMARK    2  A    between atoms: N_3  and  C_4 
REMARK    3  A    between atoms: C_4  and  N_5 
REMARK    4  A    between atoms: N_5  and  N_6 
REMARK    5  A    between atoms: N_6  and  C_7 
REMARK    6  A    between atoms: N_8  and  C_9 
REMARK    7  A    between atoms: C_9  and  C_10 
ROOT
HETATM    1  C   UNL     1     -34.999  41.349 -53.372  1.00  0.00     0.204 C 
HETATM    2  N   UNL     1     -33.878  40.985 -52.656  1.00  0.00    -0.283 N 
HETATM    3  C   UNL     1     -32.810  40.390 -53.297  1.00  0.00     0.259 C 
HETATM    4  O   UNL     1     -31.674  40.408 -52.830  1.00  0.00    -0.267 OA
HETATM    5  C   UNL     1     -33.093  39.741 -54.604  1.00  0.00     0.049 C 
HETATM    6  C   UNL     1     -34.278  40.072 -55.156  1.00  0.00     0.083 C 
HETATM    7  C   UNL     1     -34.647  39.497 -56.478  1.00  0.00    -0.000 A 
HETATM    8  C   UNL     1     -33.935  38.403 -56.991  1.00  0.00    -0.044 A 
HETATM    9  C   UNL     1     -34.308  37.822 -58.214  1.00  0.00     0.008 A 
HETATM   10  C   UNL     1     -35.377  38.339 -58.942  1.00  0.00     0.001 A 
HETATM   11  C   UNL     1     -36.086  39.429 -58.447  1.00  0.00     0.001 A 
HETATM   12  C   UNL     1     -35.724  40.000 -57.223  1.00  0.00     0.014 A 
HETATM   13  C   UNL     1     -32.829  37.793 -56.176  1.00  0.00     0.054 C 
HETATM   14  C   UNL     1     -32.062  38.815 -55.278  1.00  0.00    -0.002 C 
HETATM   15  C   UNL     1     -31.115  39.710 -56.128  1.00  0.00     0.015 C 
HETATM   16  C   UNL     1     -29.967  38.952 -56.798  1.00  0.00     0.001 C 
HETATM   17  C   UNL     1     -29.176  38.112 -55.804  1.00  0.00     0.000 C 
HETATM   18  C   UNL     1     -30.073  37.186 -54.990  1.00  0.00     0.001 C 
HETATM   19  C   UNL     1     -31.196  37.965 -54.297  1.00  0.00     0.015 C 
HETATM   20  N   UNL     1     -35.179  40.940 -54.595  1.00  0.00    -0.217 NA
ENDROOT
BRANCH   1  21
HETATM   21  N   UNL     1     -35.939  42.188 -52.799  1.00  0.00    -0.171 NA
HETATM   22  H   UNL     1     -35.711  43.177 -52.716  1.00  0.00     0.156 HD
BRANCH  21  23
HETATM   23  N   UNL     1     -37.259  41.992 -53.263  1.00  0.00    -0.291 N 
HETATM   24  H   UNL     1     -37.292  41.883 -54.277  1.00  0.00     0.183 HD
BRANCH  23  25
HETATM   25  C   UNL     1     -38.140  41.257 -52.509  1.00  0.00     0.182 C 
HETATM   26  S   UNL     1     -37.826  39.779 -51.793  1.00  0.00    -0.040 SA
BRANCH  25  27
HETATM   27  N   UNL     1     -39.357  41.837 -52.275  1.00  0.00    -0.367 N 
HETATM   28  H   UNL     1     -39.287  42.803 -51.973  1.00  0.00     0.161 HD
BRANCH  27  29
HETATM   29  C   UNL     1     -40.647  41.415 -52.800  1.00  0.00     0.117 C 
HETATM   30  C   UNL     1     -40.657  41.438 -54.318  1.00  0.00     0.026 C 
ENDBRANCH  27  29
ENDBRANCH  25  27
ENDBRANCH  23  25
ENDBRANCH  21  23
ENDBRANCH   1  21
BRANCH   2  31
HETATM   31  C   UNL     1     -33.697  41.331 -51.250  1.00  0.00     0.173 C 
BRANCH  31  32
HETATM   32  C   UNL     1     -33.647  40.174 -50.272  1.00  0.00    -0.040 A 
HETATM   33  C   UNL     1     -34.701  39.268 -50.088  1.00  0.00     0.009 A 
HETATM   34  C   UNL     1     -34.601  38.242 -49.145  1.00  0.00     0.001 A 
HETATM   35  C   UNL     1     -33.453  38.111 -48.367  1.00  0.00     0.000 A 
HETATM   36  C   UNL     1     -32.399  39.006 -48.533  1.00  0.00     0.001 A 
HETATM   37  C   UNL     1     -32.495  40.028 -49.478  1.00  0.00     0.009 A 
ENDBRANCH  31  32
ENDBRANCH   2  31
TORSDOF 7
ENDMDL
MODEL 5
REMARK VINA RESULT:      -7.2      2.930      6.317
REMARK  7 active torsions:
REMARK  status: ('A' for Active; 'I' for Inactive)
REMARK    1  A    between atoms: C_2  and  N_3 
REMARK    2  A    between atoms: N_3  and  C_4 
REMARK    3  A    between atoms: C_4  and  N_5 
REMARK    4  A    between atoms: N_5  and  N_6 
REMARK    5  A    between atoms: N_6  and  C_7 
REMARK    6  A    between atoms: N_8  and  C_9 
REMARK    7  A    between atoms: C_9  and  C_10 
ROOT
HETATM    1  C   UNL     1     -43.209  59.146 -56.916  1.00  0.00     0.204 C 
HETATM    2  N   UNL     1     -42.921  57.952 -57.543  1.00  0.00    -0.283 N 
HETATM    3  C   UNL     1     -42.647  56.825 -56.794  1.00  0.00     0.259 C 
HETATM    4  O   UNL     1     -42.776  55.691 -57.246  1.00  0.00    -0.267 OA
HETATM    5  C   UNL     1     -42.208  57.047 -55.391  1.00  0.00     0.049 C 
HETATM    6  C   UNL     1     -42.423  58.292 -54.920  1.00  0.00     0.083 C 
HETATM    7  C   UNL     1     -42.043  58.611 -53.517  1.00  0.00    -0.000 A 
HETATM    8  C   UNL     1     -41.201  57.747 -52.803  1.00  0.00    -0.044 A 
HETATM    9  C   UNL     1     -40.797  58.065 -51.497  1.00  0.00     0.008 A 
HETATM   10  C   UNL     1     -41.244  59.234 -50.887  1.00  0.00     0.001 A 
HETATM   11  C   UNL     1     -42.086  60.097 -51.582  1.00  0.00     0.001 A 
HETATM   12  C   UNL     1     -42.479  59.788 -52.887  1.00  0.00     0.014 A 
HETATM   13  C   UNL     1     -40.654  56.522 -53.482  1.00  0.00     0.054 C 
HETATM   14  C   UNL     1     -41.612  55.903 -54.547  1.00  0.00    -0.002 C 
HETATM   15  C   UNL     1     -42.798  55.155 -53.871  1.00  0.00     0.015 C 
HETATM   16  C   UNL     1     -42.385  53.924 -53.062  1.00  0.00     0.001 C 
HETATM   17  C   UNL     1     -41.529  52.963 -53.876  1.00  0.00     0.000 C 
HETATM   18  C   UNL     1     -40.328  53.657 -54.510  1.00  0.00     0.001 C 
HETATM   19  C   UNL     1     -40.761  54.866 -55.345  1.00  0.00     0.015 C 
HETATM   20  N   UNL     1     -43.004  59.304 -55.640  1.00  0.00    -0.217 NA
ENDROOT
BRANCH   1  21
HETATM   21  N   UNL     1     -43.754  60.191 -57.643  1.00  0.00    -0.171 NA
HETATM   22  H   UNL     1     -44.745  60.389 -57.527  1.00  0.00     0.156 HD
BRANCH  21  23
HETATM   23  N   UNL     1     -42.979  61.372 -57.642  1.00  0.00    -0.291 N 
HETATM   24  H   UNL     1     -42.792  61.701 -56.695  1.00  0.00     0.183 HD
BRANCH  23  25
HETATM   25  C   UNL     1     -41.996  61.538 -58.586  1.00  0.00     0.182 C 
HETATM   26  S   UNL     1     -42.152  61.264 -60.228  1.00  0.00    -0.040 SA
BRANCH  25  27
HETATM   27  N   UNL     1     -40.808  62.042 -58.130  1.00  0.00    -0.367 N 
HETATM   28  H   UNL     1     -40.540  61.674 -57.224  1.00  0.00     0.161 HD
BRANCH  27  29
HETATM   29  C   UNL     1     -39.747  62.646 -58.922  1.00  0.00     0.117 C 
HETATM   30  C   UNL     1     -39.732  64.156 -58.761  1.00  0.00     0.026 C 
ENDBRANCH  27  29
ENDBRANCH  25  27
ENDBRANCH  23  25
ENDBRANCH  21  23
ENDBRANCH   1  21
BRANCH   2  31
HETATM   31  C   UNL     1     -43.031  57.776 -58.987  1.00  0.00     0.173 C 
BRANCH  31  32
HETATM   32  C   UNL     1     -44.298  57.109 -59.490  1.00  0.00    -0.040 A 
HETATM   33  C   UNL     1     -44.306  56.073 -60.434  1.00  0.00     0.009 A 
HETATM   34  C   UNL     1     -45.512  55.526 -60.879  1.00  0.00     0.001 A 
HETATM   35  C   UNL     1     -46.725  56.010 -60.394  1.00  0.00     0.000 A 
HETATM   36  C   UNL     1     -46.734  57.042 -59.460  1.00  0.00     0.001 A 
HETATM   37  C   UNL     1     -45.530  57.587 -59.011  1.00  0.00     0.009 A 
ENDBRANCH  31  32
ENDBRANCH   2  31
TORSDOF 7
ENDMDL
MODEL 6
REMARK VINA RESULT:      -7.1      3.227      6.591
REMARK  7 active torsions:
REMARK  status: ('A' for Active; 'I' for Inactive)
REMARK    1  A    between atoms: C_2  and  N_3 
REMARK    2  A    between atoms: N_3  and  C_4 
REMARK    3  A    between atoms: C_4  and  N_5 
REMARK    4  A    between atoms: N_5  and  N_6 
REMARK    5  A    between atoms: N_6  and  C_7 
REMARK    6  A    between atoms: N_8  and  C_9 
REMARK    7  A    between atoms: C_9  and  C_10 
ROOT
HETATM    1  C   UNL     1     -43.652  55.768 -53.707  1.00  0.00     0.204 C 
HETATM    2  N   UNL     1     -43.676  56.157 -52.385  1.00  0.00    -0.283 N 
HETATM    3  C   UNL     1     -43.869  57.484 -52.057  1.00  0.00     0.259 C 
HETATM    4  O   UNL     1     -44.289  57.832 -50.957  1.00  0.00    -0.267 OA
HETATM    5  C   UNL     1     -43.566  58.484 -53.115  1.00  0.00     0.049 C 
HETATM    6  C   UNL     1     -43.437  57.974 -54.356  1.00  0.00     0.083 C 
HETATM    7  C   UNL     1     -43.159  58.894 -55.492  1.00  0.00    -0.000 A 
HETATM    8  C   UNL     1     -42.730  60.206 -55.245  1.00  0.00    -0.044 A 
HETATM    9  C   UNL     1     -42.417  61.065 -56.310  1.00  0.00     0.008 A 
HETATM   10  C   UNL     1     -42.548  60.630 -57.627  1.00  0.00     0.001 A 
HETATM   11  C   UNL     1     -42.981  59.333 -57.886  1.00  0.00     0.001 A 
HETATM   12  C   UNL     1     -43.280  58.472 -56.826  1.00  0.00     0.014 A 
HETATM   13  C   UNL     1     -42.514  60.657 -53.828  1.00  0.00     0.054 C 
HETATM   14  C   UNL     1     -43.474  59.988 -52.793  1.00  0.00    -0.002 C 
HETATM   15  C   UNL     1     -44.911  60.577 -52.896  1.00  0.00     0.015 C 
HETATM   16  C   UNL     1     -45.013  62.055 -52.515  1.00  0.00     0.001 C 
HETATM   17  C   UNL     1     -44.406  62.339 -51.148  1.00  0.00     0.000 C 
HETATM   18  C   UNL     1     -42.977  61.818 -51.033  1.00  0.00     0.001 C 
HETATM   19  C   UNL     1     -42.897  60.329 -51.384  1.00  0.00     0.015 C 
HETATM   20  N   UNL     1     -43.573  56.645 -54.667  1.00  0.00    -0.217 NA
ENDROOT
BRANCH   1  21
HETATM   21  N   UNL     1     -43.743  54.425 -54.031  1.00  0.00    -0.171 NA
HETATM   22  H   UNL     1     -44.670  54.017 -54.127  1.00  0.00     0.156 HD
BRANCH  21  23
HETATM   23  N   UNL     1     -42.878  54.013 -55.070  1.00  0.00    -0.291 N 
HETATM   24  H   UNL     1     -43.059  54.521 -55.937  1.00  0.00     0.183 HD
BRANCH  23  25
HETATM   25  C   UNL     1     -41.578  53.682 -54.779  1.00  0.00     0.182 C 
HETATM   26  S   UNL     1     -40.271  54.723 -54.795  1.00  0.00    -0.040 SA
BRANCH  25  27
HETATM   27  N   UNL     1     -41.367  52.393 -54.372  1.00  0.00    -0.367 N 
HETATM   28  H   UNL     1     -42.139  51.773 -54.592  1.00  0.00     0.161 HD
BRANCH  27  29
HETATM   29  C   UNL     1     -40.088  51.759 -54.091  1.00  0.00     0.117 C 
HETATM   30  C   UNL     1     -40.151  50.261 -54.338  1.00  0.00     0.026 C 
ENDBRANCH  27  29
ENDBRANCH  25  27
ENDBRANCH  23  25
ENDBRANCH  21  23
ENDBRANCH   1  21
BRANCH   2  31
HETATM   31  C   UNL     1     -43.650  55.200 -51.283  1.00  0.00     0.173 C 
BRANCH  31  32
HETATM   32  C   UNL     1     -42.280  54.759 -50.806  1.00  0.00    -0.040 A 
HETATM   33  C   UNL     1     -41.700  53.528 -51.146  1.00  0.00     0.009 A 
HETATM   34  C   UNL     1     -40.447  53.170 -50.644  1.00  0.00     0.001 A 
HETATM   35  C   UNL     1     -39.759  54.029 -49.790  1.00  0.00     0.000 A 
HETATM   36  C   UNL     1     -40.324  55.252 -49.438  1.00  0.00     0.001 A 
HETATM   37  C   UNL     1     -41.574  55.615 -49.942  1.00  0.00     0.009 A 
ENDBRANCH  31  32
ENDBRANCH   2  31
TORSDOF 7
ENDMDL
MODEL 7
REMARK VINA RESULT:      -7.1      3.010      6.165
REMARK  7 active torsions:
REMARK  status: ('A' for Active; 'I' for Inactive)
REMARK    1  A    between atoms: C_2  and  N_3 
REMARK    2  A    between atoms: N_3  and  C_4 
REMARK    3  A    between atoms: C_4  and  N_5 
REMARK    4  A    between atoms: N_5  and  N_6 
REMARK    5  A    between atoms: N_6  and  C_7 
REMARK    6  A    between atoms: N_8  and  C_9 
REMARK    7  A    between atoms: C_9  and  C_10 
ROOT
HETATM    1  C   UNL     1     -43.294  56.012 -54.113  1.00  0.00     0.204 C 
HETATM    2  N   UNL     1     -43.824  57.093 -53.442  1.00  0.00    -0.283 N 
HETATM    3  C   UNL     1     -44.541  58.052 -54.130  1.00  0.00     0.259 C 
HETATM    4  O   UNL     1     -45.350  58.789 -53.573  1.00  0.00    -0.267 OA
HETATM    5  C   UNL     1     -44.307  58.135 -55.596  1.00  0.00     0.049 C 
HETATM    6  C   UNL     1     -43.664  57.077 -56.128  1.00  0.00     0.083 C 
HETATM    7  C   UNL     1     -43.403  57.050 -57.593  1.00  0.00    -0.000 A 
HETATM    8  C   UNL     1     -43.535  58.221 -58.352  1.00  0.00    -0.044 A 
HETATM    9  C   UNL     1     -43.243  58.217 -59.725  1.00  0.00     0.008 A 
HETATM   10  C   UNL     1     -42.837  57.042 -60.354  1.00  0.00     0.001 A 
HETATM   11  C   UNL     1     -42.710  55.871 -59.614  1.00  0.00     0.001 A 
HETATM   12  C   UNL     1     -42.988  55.877 -58.244  1.00  0.00     0.014 A 
HETATM   13  C   UNL     1     -43.899  59.508 -57.666  1.00  0.00     0.054 C 
HETATM   14  C   UNL     1     -44.827  59.327 -56.424  1.00  0.00    -0.002 C 
HETATM   15  C   UNL     1     -46.285  58.996 -56.854  1.00  0.00     0.015 C 
HETATM   16  C   UNL     1     -46.988  60.123 -57.614  1.00  0.00     0.001 C 
HETATM   17  C   UNL     1     -46.930  61.446 -56.860  1.00  0.00     0.000 C 
HETATM   18  C   UNL     1     -45.505  61.824 -56.469  1.00  0.00     0.001 C 
HETATM   19  C   UNL     1     -44.828  60.699 -55.679  1.00  0.00     0.015 C 
HETATM   20  N   UNL     1     -43.247  55.983 -55.414  1.00  0.00    -0.217 NA
ENDROOT
BRANCH   1  21
HETATM   21  N   UNL     1     -42.827  54.921 -53.400  1.00  0.00    -0.171 NA
HETATM   22  H   UNL     1     -43.453  54.129 -53.271  1.00  0.00     0.156 HD
BRANCH  21  23
HETATM   23  N   UNL     1     -41.522  54.507 -53.751  1.00  0.00    -0.291 N 
HETATM   24  H   UNL     1     -40.931  55.297 -54.010  1.00  0.00     0.183 HD
BRANCH  23  25
HETATM   25  C   UNL     1     -40.939  53.462 -53.079  1.00  0.00     0.182 C 
HETATM   26  S   UNL     1     -40.575  53.422 -51.447  1.00  0.00    -0.040 SA
BRANCH  25  27
HETATM   27  N   UNL     1     -40.707  52.332 -53.815  1.00  0.00    -0.367 N 
HETATM   28  H   UNL     1     -41.066  52.392 -54.761  1.00  0.00     0.161 HD
BRANCH  27  29
HETATM   29  C   UNL     1     -39.694  51.316 -53.571  1.00  0.00     0.117 C 
HETATM   30  C   UNL     1     -39.955  50.069 -54.398  1.00  0.00     0.026 C 
ENDBRANCH  27  29
ENDBRANCH  25  27
ENDBRANCH  23  25
ENDBRANCH  21  23
ENDBRANCH   1  21
BRANCH   2  31
HETATM   31  C   UNL     1     -43.791  57.209 -51.988  1.00  0.00     0.173 C 
BRANCH  31  32
HETATM   32  C   UNL     1     -42.706  58.097 -51.407  1.00  0.00    -0.040 A 
HETATM   33  C   UNL     1     -42.881  59.462 -51.143  1.00  0.00     0.009 A 
HETATM   34  C   UNL     1     -41.829  60.230 -50.638  1.00  0.00     0.001 A 
HETATM   35  C   UNL     1     -40.586  59.648 -50.400  1.00  0.00     0.000 A 
HETATM   36  C   UNL     1     -40.394  58.295 -50.663  1.00  0.00     0.001 A 
HETATM   37  C   UNL     1     -41.445  57.525 -51.162  1.00  0.00     0.009 A 
ENDBRANCH  31  32
ENDBRANCH   2  31
TORSDOF 7
ENDMDL
MODEL 8
REMARK VINA RESULT:      -6.9      1.439      2.046
REMARK  7 active torsions:
REMARK  status: ('A' for Active; 'I' for Inactive)
REMARK    1  A    between atoms: C_2  and  N_3 
REMARK    2  A    between atoms: N_3  and  C_4 
REMARK    3  A    between atoms: C_4  and  N_5 
REMARK    4  A    between atoms: N_5  and  N_6 
REMARK    5  A    between atoms: N_6  and  C_7 
REMARK    6  A    between atoms: N_8  and  C_9 
REMARK    7  A    between atoms: C_9  and  C_10 
ROOT
HETATM    1  C   UNL     1     -44.978  58.732 -54.076  1.00  0.00     0.204 C 
HETATM    2  N   UNL     1     -44.632  57.896 -53.036  1.00  0.00    -0.283 N 
HETATM    3  C   UNL     1     -43.660  56.932 -53.215  1.00  0.00     0.259 C 
HETATM    4  O   UNL     1     -43.039  56.446 -52.274  1.00  0.00    -0.267 OA
HETATM    5  C   UNL     1     -43.378  56.522 -54.616  1.00  0.00     0.049 C 
HETATM    6  C   UNL     1     -43.874  57.348 -55.559  1.00  0.00     0.083 C 
HETATM    7  C   UNL     1     -43.625  57.042 -56.994  1.00  0.00    -0.000 A 
HETATM    8  C   UNL     1     -43.164  55.773 -57.372  1.00  0.00    -0.044 A 
HETATM    9  C   UNL     1     -42.974  55.459 -58.727  1.00  0.00     0.008 A 
HETATM   10  C   UNL     1     -43.223  56.412 -59.711  1.00  0.00     0.001 A 
HETATM   11  C   UNL     1     -43.673  57.677 -59.349  1.00  0.00     0.001 A 
HETATM   12  C   UNL     1     -43.875  57.987 -58.001  1.00  0.00     0.014 A 
HETATM   13  C   UNL     1     -42.965  54.717 -56.320  1.00  0.00     0.054 C 
HETATM   14  C   UNL     1     -42.527  55.276 -54.930  1.00  0.00    -0.002 C 
HETATM   15  C   UNL     1     -41.036  55.720 -54.947  1.00  0.00     0.015 C 
HETATM   16  C   UNL     1     -40.042  54.577 -55.156  1.00  0.00     0.001 C 
HETATM   17  C   UNL     1     -40.260  53.438 -54.168  1.00  0.00     0.000 C 
HETATM   18  C   UNL     1     -41.703  52.945 -54.166  1.00  0.00     0.001 C 
HETATM   19  C   UNL     1     -42.684  54.097 -53.920  1.00  0.00     0.015 C 
HETATM   20  N   UNL     1     -44.583  58.491 -55.293  1.00  0.00    -0.217 NA
ENDROOT
BRANCH   1  21
HETATM   21  N   UNL     1     -45.733  59.866 -53.826  1.00  0.00    -0.171 NA
HETATM   22  H   UNL     1     -45.822  60.179 -52.862  1.00  0.00     0.156 HD
BRANCH  21  23
HETATM   23  N   UNL     1     -45.482  60.942 -54.707  1.00  0.00    -0.291 N 
HETATM   24  H   UNL     1     -46.306  61.180 -55.258  1.00  0.00     0.183 HD
BRANCH  23  25
HETATM   25  C   UNL     1     -44.657  61.965 -54.309  1.00  0.00     0.182 C 
HETATM   26  S   UNL     1     -44.883  62.948 -52.976  1.00  0.00    -0.040 SA
BRANCH  25  27
HETATM   27  N   UNL     1     -43.516  62.133 -55.045  1.00  0.00    -0.367 N 
HETATM   28  H   UNL     1     -42.683  62.223 -54.473  1.00  0.00     0.161 HD
BRANCH  27  29
HETATM   29  C   UNL     1     -43.307  61.773 -56.439  1.00  0.00     0.117 C 
HETATM   30  C   UNL     1     -42.145  60.807 -56.590  1.00  0.00     0.026 C 
ENDBRANCH  27  29
ENDBRANCH  25  27
ENDBRANCH  23  25
ENDBRANCH  21  23
ENDBRANCH   1  21
BRANCH   2  31
HETATM   31  C   UNL     1     -45.148  58.071 -51.682  1.00  0.00     0.173 C 
BRANCH  31  32
HETATM   32  C   UNL     1     -44.669  59.300 -50.932  1.00  0.00    -0.040 A 
HETATM   33  C   UNL     1     -45.504  60.098 -50.137  1.00  0.00     0.009 A 
HETATM   34  C   UNL     1     -45.004  61.236 -49.500  1.00  0.00     0.001 A 
HETATM   35  C   UNL     1     -43.668  61.599 -49.655  1.00  0.00     0.000 A 
HETATM   36  C   UNL     1     -42.827  60.821 -50.446  1.00  0.00     0.001 A 
HETATM   37  C   UNL     1     -43.323  59.680 -51.079  1.00  0.00     0.009 A 
ENDBRANCH  31  32
ENDBRANCH   2  31
TORSDOF 7
ENDMDL
MODEL 9
REMARK VINA RESULT:      -6.9      2.984      5.463
REMARK  7 active torsions:
REMARK  status: ('A' for Active; 'I' for Inactive)
REMARK    1  A    between atoms: C_2  and  N_3 
REMARK    2  A    between atoms: N_3  and  C_4 
REMARK    3  A    between atoms: C_4  and  N_5 
REMARK    4  A    between atoms: N_5  and  N_6 
REMARK    5  A    between atoms: N_6  and  C_7 
REMARK    6  A    between atoms: N_8  and  C_9 
REMARK    7  A    between atoms: C_9  and  C_10 
ROOT
HETATM    1  C   UNL     1     -42.806  54.995 -54.618  1.00  0.00     0.204 C 
HETATM    2  N   UNL     1     -43.118  55.682 -53.464  1.00  0.00    -0.283 N 
HETATM    3  C   UNL     1     -42.384  55.473 -52.314  1.00  0.00     0.259 C 
HETATM    4  O   UNL     1     -42.338  56.301 -51.407  1.00  0.00    -0.267 OA
HETATM    5  C   UNL     1     -41.623  54.199 -52.230  1.00  0.00     0.049 C 
HETATM    6  C   UNL     1     -41.488  53.542 -53.400  1.00  0.00     0.083 C 
HETATM    7  C   UNL     1     -40.720  52.268 -53.430  1.00  0.00    -0.000 A 
HETATM    8  C   UNL     1     -40.414  51.603 -52.233  1.00  0.00    -0.044 A 
HETATM    9  C   UNL     1     -39.734  50.375 -52.255  1.00  0.00     0.008 A 
HETATM   10  C   UNL     1     -39.337  49.812 -53.465  1.00  0.00     0.001 A 
HETATM   11  C   UNL     1     -39.627  50.466 -54.659  1.00  0.00     0.001 A 
HETATM   12  C   UNL     1     -40.315  51.682 -54.640  1.00  0.00     0.014 A 
HETATM   13  C   UNL     1     -40.906  52.167 -50.930  1.00  0.00     0.054 C 
HETATM   14  C   UNL     1     -40.997  53.725 -50.904  1.00  0.00    -0.002 C 
HETATM   15  C   UNL     1     -39.585  54.370 -50.797  1.00  0.00     0.015 C 
HETATM   16  C   UNL     1     -38.856  54.073 -49.485  1.00  0.00     0.001 C 
HETATM   17  C   UNL     1     -39.705  54.415 -48.267  1.00  0.00     0.000 C 
HETATM   18  C   UNL     1     -41.078  53.754 -48.318  1.00  0.00     0.001 C 
HETATM   19  C   UNL     1     -41.809  54.090 -49.622  1.00  0.00     0.015 C 
HETATM   20  N   UNL     1     -41.989  53.981 -54.598  1.00  0.00    -0.217 NA
ENDROOT
BRANCH   1  21
HETATM   21  N   UNL     1     -43.343  55.401 -55.828  1.00  0.00    -0.171 NA
HETATM   22  H   UNL     1     -44.228  55.903 -55.814  1.00  0.00     0.156 HD
BRANCH  21  23
HETATM   23  N   UNL     1     -42.415  55.996 -56.711  1.00  0.00    -0.291 N 
HETATM   24  H   UNL     1     -41.654  55.359 -56.946  1.00  0.00     0.183 HD
BRANCH  23  25
HETATM   25  C   UNL     1     -42.860  56.853 -57.686  1.00  0.00     0.182 C 
HETATM   26  S   UNL     1     -43.906  58.138 -57.463  1.00  0.00    -0.040 SA
BRANCH  25  27
HETATM   27  N   UNL     1     -42.333  56.664 -58.934  1.00  0.00    -0.367 N 
HETATM   28  H   UNL     1     -41.319  56.634 -58.939  1.00  0.00     0.161 HD
BRANCH  27  29
HETATM   29  C   UNL     1     -43.002  56.096 -60.094  1.00  0.00     0.117 C 
HETATM   30  C   UNL     1     -44.004  55.031 -59.683  1.00  0.00     0.026 C 
ENDBRANCH  27  29
ENDBRANCH  25  27
ENDBRANCH  23  25
ENDBRANCH  21  23
ENDBRANCH   1  21
BRANCH   2  31
HETATM   31  C   UNL     1     -44.113  56.749 -53.430  1.00  0.00     0.173 C 
BRANCH  31  32
HETATM   32  C   UNL     1     -43.591  58.163 -53.595  1.00  0.00    -0.040 A 
HETATM   33  C   UNL     1     -42.313  58.465 -54.088  1.00  0.00     0.009 A 
HETATM   34  C   UNL     1     -41.882  59.791 -54.183  1.00  0.00     0.001 A 
HETATM   35  C   UNL     1     -42.716  60.832 -53.781  1.00  0.00     0.000 A 
HETATM   36  C   UNL     1     -43.985  60.549 -53.284  1.00  0.00     0.001 A 
HETATM   37  C   UNL     1     -44.420  59.226 -53.192  1.00  0.00     0.009 A 
ENDBRANCH  31  32
ENDBRANCH   2  31
TORSDOF 7
ENDMDL
MODEL 10
REMARK VINA RESULT:      -6.9      2.821      6.336
REMARK  7 active torsions:
REMARK  status: ('A' for Active; 'I' for Inactive)
REMARK    1  A    between atoms: C_2  and  N_3 
REMARK    2  A    between atoms: N_3  and  C_4 
REMARK    3  A    between atoms: C_4  and  N_5 
REMARK    4  A    between atoms: N_5  and  N_6 
REMARK    5  A    between atoms: N_6  and  C_7 
REMARK    6  A    between atoms: N_8  and  C_9 
REMARK    7  A    between atoms: C_9  and  C_10 
ROOT
HETATM    1  C   UNL     1     -43.831  56.656 -53.453  1.00  0.00     0.204 C 
HETATM    2  N   UNL     1     -43.644  55.690 -54.419  1.00  0.00    -0.283 N 
HETATM    3  C   UNL     1     -43.314  56.055 -55.709  1.00  0.00     0.259 C 
HETATM    4  O   UNL     1     -42.759  55.282 -56.486  1.00  0.00    -0.267 OA
HETATM    5  C   UNL     1     -43.640  57.448 -56.112  1.00  0.00     0.049 C 
HETATM    6  C   UNL     1     -43.933  58.279 -55.092  1.00  0.00     0.083 C 
HETATM    7  C   UNL     1     -44.249  59.703 -55.387  1.00  0.00    -0.000 A 
HETATM    8  C   UNL     1     -44.544  60.101 -56.699  1.00  0.00    -0.044 A 
HETATM    9  C   UNL     1     -44.892  61.432 -56.978  1.00  0.00     0.008 A 
HETATM   10  C   UNL     1     -44.929  62.379 -55.957  1.00  0.00     0.001 A 
HETATM   11  C   UNL     1     -44.630  61.998 -54.652  1.00  0.00     0.001 A 
HETATM   12  C   UNL     1     -44.296  60.671 -54.371  1.00  0.00     0.014 A 
HETATM   13  C   UNL     1     -44.580  59.070 -57.792  1.00  0.00     0.054 C 
HETATM   14  C   UNL     1     -43.579  57.890 -57.588  1.00  0.00    -0.002 C 
HETATM   15  C   UNL     1     -42.117  58.335 -57.881  1.00  0.00     0.015 C 
HETATM   16  C   UNL     1     -41.859  58.722 -59.339  1.00  0.00     0.001 C 
HETATM   17  C   UNL     1     -42.302  57.634 -60.309  1.00  0.00     0.000 C 
HETATM   18  C   UNL     1     -43.749  57.212 -60.079  1.00  0.00     0.001 C 
HETATM   19  C   UNL     1     -43.983  56.794 -58.623  1.00  0.00     0.015 C 
HETATM   20  N   UNL     1     -43.935  57.914 -53.771  1.00  0.00    -0.217 NA
ENDROOT
BRANCH   1  21
HETATM   21  N   UNL     1     -43.880  56.294 -52.118  1.00  0.00    -0.171 NA
HETATM   22  H   UNL     1     -43.591  55.352 -51.866  1.00  0.00     0.156 HD
BRANCH  21  23
HETATM   23  N   UNL     1     -43.356  57.259 -51.229  1.00  0.00    -0.291 N 
HETATM   24  H   UNL     1     -44.014  57.483 -50.482  1.00  0.00     0.183 HD
BRANCH  23  25
HETATM   25  C   UNL     1     -42.018  57.243 -50.924  1.00  0.00     0.182 C 
HETATM   26  S   UNL     1     -41.261  56.181 -49.878  1.00  0.00    -0.040 SA
BRANCH  25  27
HETATM   27  N   UNL     1     -41.239  58.141 -51.601  1.00  0.00    -0.367 N 
HETATM   28  H   UNL     1     -41.199  57.963 -52.599  1.00  0.00     0.161 HD
BRANCH  27  29
HETATM   29  C   UNL     1     -40.858  59.477 -51.168  1.00  0.00     0.117 C 
HETATM   30  C   UNL     1     -39.436  59.497 -50.633  1.00  0.00     0.026 C 
ENDBRANCH  27  29
ENDBRANCH  25  27
ENDBRANCH  23  25
ENDBRANCH  21  23
ENDBRANCH   1  21
BRANCH   2  31
HETATM   31  C   UNL     1     -43.635  54.263 -54.112  1.00  0.00     0.173 C 
BRANCH  31  32
HETATM   32  C   UNL     1     -42.293  53.661 -53.745  1.00  0.00    -0.040 A 
HETATM   33  C   UNL     1     -41.457  53.010 -54.663  1.00  0.00     0.009 A 
HETATM   34  C   UNL     1     -40.247  52.448 -54.251  1.00  0.00     0.001 A 
HETATM   35  C   UNL     1     -39.858  52.520 -52.915  1.00  0.00     0.000 A 
HETATM   36  C   UNL     1     -40.679  53.156 -51.989  1.00  0.00     0.001 A 
HETATM   37  C   UNL     1     -41.886  53.723 -52.400  1.00  0.00     0.009 A 
ENDBRANCH  31  32
ENDBRANCH   2  31
TORSDOF 7
ENDMDL
