MODEL 1
REMARK VINA RESULT:      -9.4      0.000      0.000
REMARK  7 active torsions:
REMARK  status: ('A' for Active; 'I' for Inactive)
REMARK    1  A    between atoms: C_8  and  C_9 
REMARK    2  A    between atoms: C_9  and  N_10 
REMARK    3  A    between atoms: C_14  and  C_15 
REMARK    4  A    between atoms: C_15  and  C_16 
REMARK    5  A    between atoms: C_16  and  C_17 
REMARK    6  A    between atoms: N_27  and  C_28 
REMARK    7  A    between atoms: C_28  and  C_29 
ROOT
HETATM    1  C   UNL     1     -41.594  54.494 -53.250  1.00  0.00     0.123 A 
HETATM    2  N   UNL     1     -41.833  54.174 -51.850  1.00  0.00    -0.324 N 
HETATM    3  C   UNL     1     -41.717  55.253 -51.007  1.00  0.00     0.326 A 
HETATM    4  O   UNL     1     -41.877  55.199 -49.804  1.00  0.00    -0.247 OA
HETATM    5  N   UNL     1     -41.447  56.352 -51.762  1.00  0.00    -0.268 N 
HETATM    6  C   UNL     1     -41.344  56.008 -53.079  1.00  0.00     0.257 A 
HETATM    7  O   UNL     1     -41.146  56.786 -54.002  1.00  0.00    -0.270 OA
HETATM    8  H   UNL     1     -41.965  53.242 -51.469  1.00  0.00     0.165 HD
ENDROOT
BRANCH   1   9
HETATM    9  C   UNL     1     -42.870  54.145 -54.095  1.00  0.00     0.027 C 
HETATM   10  C   UNL     1     -42.692  53.952 -55.611  1.00  0.00     0.035 C 
HETATM   11  C   UNL     1     -42.627  55.220 -56.452  1.00  0.00     0.235 C 
HETATM   12  N   UNL     1     -43.701  56.213 -56.090  1.00  0.00    -0.067 N 
HETATM   13  H   UNL     1     -44.574  55.882 -56.527  1.00  0.00     0.280 HD
HETATM   14  C   UNL     1     -43.989  56.402 -54.626  1.00  0.00     0.235 C 
HETATM   15  C   UNL     1     -44.083  55.077 -53.891  1.00  0.00     0.035 C 
BRANCH  12  16
HETATM   16  C   UNL     1     -43.415  57.574 -56.716  1.00  0.00     0.278 C 
BRANCH  16  17
HETATM   17  C   UNL     1     -44.041  57.778 -58.037  1.00  0.00     0.034 A 
HETATM   18  C   UNL     1     -43.418  57.820 -59.318  1.00  0.00     0.062 A 
HETATM   19  C   UNL     1     -41.983  57.639 -59.664  1.00  0.00     0.073 C 
HETATM   20  N   UNL     1     -44.307  58.040 -60.293  1.00  0.00    -0.176 NA
HETATM   21  N   UNL     1     -45.484  58.201 -59.658  1.00  0.00    -0.262 N 
HETATM   22  C   UNL     1     -46.661  58.556 -60.417  1.00  0.00     0.181 C 
HETATM   23  C   UNL     1     -45.366  58.010 -58.316  1.00  0.00     0.131 A 
HETATM   24 CL   UNL     1     -46.714  58.096 -57.282  1.00  0.00    -0.062 Cl
ENDBRANCH  16  17
ENDBRANCH  12  16
ENDBRANCH   1   9
BRANCH   1  25
HETATM   25  C   UNL     1     -40.265  53.866 -53.745  1.00  0.00     0.080 C 
BRANCH  25  26
HETATM   26  C   UNL     1     -40.098  52.395 -53.433  1.00  0.00    -0.052 A 
HETATM   27  C   UNL     1     -39.739  51.958 -52.152  1.00  0.00     0.049 A 
HETATM   28  C   UNL     1     -39.577  50.598 -51.898  1.00  0.00     0.116 A 
HETATM   29  F   UNL     1     -39.221  50.202 -50.669  1.00  0.00    -0.206 F 
HETATM   30  C   UNL     1     -39.774  49.652 -52.895  1.00  0.00     0.042 A 
HETATM   31  C   UNL     1     -40.144  50.072 -54.169  1.00  0.00     0.003 A 
HETATM   32  C   UNL     1     -40.306  51.434 -54.437  1.00  0.00     0.007 A 
ENDBRANCH  25  26
ENDBRANCH   1  25
BRANCH   5  33
HETATM   33  C   UNL     1     -41.329  57.699 -51.238  1.00  0.00     0.140 C 
BRANCH  33  34
HETATM   34  C   UNL     1     -42.484  58.626 -51.647  1.00  0.00    -0.004 C 
HETATM   35  C   UNL     1     -43.848  58.045 -51.270  1.00  0.00     0.011 C 
HETATM   36  C   UNL     1     -42.299  59.993 -50.983  1.00  0.00     0.011 C 
ENDBRANCH  33  34
ENDBRANCH   5  33
TORSDOF 7
ENDMDL
MODEL 2
REMARK VINA RESULT:      -9.2      1.030      1.507
REMARK  7 active torsions:
REMARK  status: ('A' for Active; 'I' for Inactive)
REMARK    1  A    between atoms: C_8  and  C_9 
REMARK    2  A    between atoms: C_9  and  N_10 
REMARK    3  A    between atoms: C_14  and  C_15 
REMARK    4  A    between atoms: C_15  and  C_16 
REMARK    5  A    between atoms: C_16  and  C_17 
REMARK    6  A    between atoms: N_27  and  C_28 
REMARK    7  A    between atoms: C_28  and  C_29 
ROOT
HETATM    1  C   UNL     1     -41.706  54.752 -53.362  1.00  0.00     0.123 A 
HETATM    2  N   UNL     1     -42.019  54.475 -51.968  1.00  0.00    -0.324 N 
HETATM    3  C   UNL     1     -42.024  55.592 -51.168  1.00  0.00     0.326 A 
HETATM    4  O   UNL     1     -42.261  55.576 -49.976  1.00  0.00    -0.247 OA
HETATM    5  N   UNL     1     -41.768  56.673 -51.952  1.00  0.00    -0.268 N 
HETATM    6  C   UNL     1     -41.558  56.283 -53.242  1.00  0.00     0.257 A 
HETATM    7  O   UNL     1     -41.344  57.034 -54.185  1.00  0.00    -0.270 OA
HETATM    8  H   UNL     1     -42.121  53.552 -51.556  1.00  0.00     0.165 HD
ENDROOT
BRANCH   1   9
HETATM    9  C   UNL     1     -42.899  54.291 -54.272  1.00  0.00     0.027 C 
HETATM   10  C   UNL     1     -42.662  54.240 -55.791  1.00  0.00     0.035 C 
HETATM   11  C   UNL     1     -42.760  55.565 -56.536  1.00  0.00     0.235 C 
HETATM   12  N   UNL     1     -43.974  56.365 -56.139  1.00  0.00    -0.067 N 
HETATM   13  H   UNL     1     -44.780  55.949 -56.627  1.00  0.00     0.280 HD
HETATM   14  C   UNL     1     -44.318  56.400 -54.676  1.00  0.00     0.235 C 
HETATM   15  C   UNL     1     -44.237  55.023 -54.042  1.00  0.00     0.035 C 
BRANCH  12  16
HETATM   16  C   UNL     1     -43.873  57.797 -56.656  1.00  0.00     0.278 C 
BRANCH  16  17
HETATM   17  C   UNL     1     -44.387  57.986 -58.027  1.00  0.00     0.034 A 
HETATM   18  C   UNL     1     -43.653  58.138 -59.238  1.00  0.00     0.062 A 
HETATM   19  C   UNL     1     -42.180  58.117 -59.445  1.00  0.00     0.073 C 
HETATM   20  N   UNL     1     -44.462  58.303 -60.290  1.00  0.00    -0.176 NA
HETATM   21  N   UNL     1     -45.705  58.320 -59.770  1.00  0.00    -0.262 N 
HETATM   22  C   UNL     1     -46.835  58.582 -60.632  1.00  0.00     0.181 C 
HETATM   23  C   UNL     1     -45.696  58.092 -58.428  1.00  0.00     0.131 A 
HETATM   24 CL   UNL     1     -47.138  58.002 -57.531  1.00  0.00    -0.062 Cl
ENDBRANCH  16  17
ENDBRANCH  12  16
ENDBRANCH   1   9
BRANCH   1  25
HETATM   25  C   UNL     1     -40.312  54.187 -53.742  1.00  0.00     0.080 C 
BRANCH  25  26
HETATM   26  C   UNL     1     -40.093  52.733 -53.388  1.00  0.00    -0.052 A 
HETATM   27  C   UNL     1     -40.209  51.723 -54.352  1.00  0.00     0.049 A 
HETATM   28  C   UNL     1     -40.017  50.391 -53.994  1.00  0.00     0.116 A 
HETATM   29  F   UNL     1     -40.145  49.440 -54.928  1.00  0.00    -0.206 F 
HETATM   30  C   UNL     1     -39.701  50.035 -52.690  1.00  0.00     0.042 A 
HETATM   31  C   UNL     1     -39.570  51.030 -51.725  1.00  0.00     0.003 A 
HETATM   32  C   UNL     1     -39.764  52.370 -52.071  1.00  0.00     0.007 A 
ENDBRANCH  25  26
ENDBRANCH   1  25
BRANCH   5  33
HETATM   33  C   UNL     1     -41.765  58.045 -51.481  1.00  0.00     0.140 C 
BRANCH  33  34
HETATM   34  C   UNL     1     -40.430  58.483 -50.860  1.00  0.00    -0.004 C 
HETATM   35  C   UNL     1     -39.478  59.076 -51.900  1.00  0.00     0.011 C 
HETATM   36  C   UNL     1     -40.695  59.507 -49.753  1.00  0.00     0.011 C 
ENDBRANCH  33  34
ENDBRANCH   5  33
TORSDOF 7
ENDMDL
MODEL 3
REMARK VINA RESULT:      -9.1      1.005      1.420
REMARK  7 active torsions:
REMARK  status: ('A' for Active; 'I' for Inactive)
REMARK    1  A    between atoms: C_8  and  C_9 
REMARK    2  A    between atoms: C_9  and  N_10 
REMARK    3  A    between atoms: C_14  and  C_15 
REMARK    4  A    between atoms: C_15  and  C_16 
REMARK    5  A    between atoms: C_16  and  C_17 
REMARK    6  A    between atoms: N_27  and  C_28 
REMARK    7  A    between atoms: C_28  and  C_29 
ROOT
HETATM    1  C   UNL     1     -41.506  54.332 -53.063  1.00  0.00     0.123 A 
HETATM    2  N   UNL     1     -41.779  53.993 -51.674  1.00  0.00    -0.324 N 
HETATM    3  C   UNL     1     -41.697  55.062 -50.816  1.00  0.00     0.326 A 
HETATM    4  O   UNL     1     -41.888  54.991 -49.617  1.00  0.00    -0.247 OA
HETATM    5  N   UNL     1     -41.418  56.172 -51.550  1.00  0.00    -0.268 N 
HETATM    6  C   UNL     1     -41.277  55.846 -52.867  1.00  0.00     0.257 A 
HETATM    7  O   UNL     1     -41.062  56.637 -53.776  1.00  0.00    -0.270 OA
HETATM    8  H   UNL     1     -41.911  53.054 -51.308  1.00  0.00     0.165 HD
ENDROOT
BRANCH   1   9
HETATM    9  C   UNL     1     -42.756  53.980 -53.946  1.00  0.00     0.027 C 
HETATM   10  C   UNL     1     -42.548  53.871 -55.466  1.00  0.00     0.035 C 
HETATM   11  C   UNL     1     -42.517  55.181 -56.242  1.00  0.00     0.235 C 
HETATM   12  N   UNL     1     -43.633  56.115 -55.849  1.00  0.00    -0.067 N 
HETATM   13  H   UNL     1     -44.486  55.775 -56.316  1.00  0.00     0.280 HD
HETATM   14  C   UNL     1     -43.949  56.219 -54.382  1.00  0.00     0.235 C 
HETATM   15  C   UNL     1     -44.005  54.856 -53.716  1.00  0.00     0.035 C 
BRANCH  12  16
HETATM   16  C   UNL     1     -43.388  57.516 -56.401  1.00  0.00     0.278 C 
BRANCH  16  17
HETATM   17  C   UNL     1     -44.416  57.982 -57.352  1.00  0.00     0.034 A 
HETATM   18  C   UNL     1     -45.334  59.062 -57.208  1.00  0.00     0.062 A 
HETATM   19  C   UNL     1     -45.479  60.020 -56.080  1.00  0.00     0.073 C 
HETATM   20  N   UNL     1     -46.132  59.179 -58.275  1.00  0.00    -0.176 NA
HETATM   21  N   UNL     1     -45.784  58.156 -59.080  1.00  0.00    -0.262 N 
HETATM   22  C   UNL     1     -46.526  57.922 -60.298  1.00  0.00     0.181 C 
HETATM   23  C   UNL     1     -44.736  57.448 -58.576  1.00  0.00     0.131 A 
HETATM   24 CL   UNL     1     -44.058  56.137 -59.421  1.00  0.00    -0.062 Cl
ENDBRANCH  16  17
ENDBRANCH  12  16
ENDBRANCH   1   9
BRANCH   1  25
HETATM   25  C   UNL     1     -40.158  53.723 -53.530  1.00  0.00     0.080 C 
BRANCH  25  26
HETATM   26  C   UNL     1     -40.002  52.241 -53.270  1.00  0.00    -0.052 A 
HETATM   27  C   UNL     1     -39.657  51.756 -52.002  1.00  0.00     0.049 A 
HETATM   28  C   UNL     1     -39.505  50.387 -51.796  1.00  0.00     0.116 A 
HETATM   29  F   UNL     1     -39.162  49.945 -50.579  1.00  0.00    -0.206 F 
HETATM   30  C   UNL     1     -39.697  49.478 -52.828  1.00  0.00     0.042 A 
HETATM   31  C   UNL     1     -40.053  49.947 -54.090  1.00  0.00     0.003 A 
HETATM   32  C   UNL     1     -40.205  51.318 -54.310  1.00  0.00     0.007 A 
ENDBRANCH  25  26
ENDBRANCH   1  25
BRANCH   5  33
HETATM   33  C   UNL     1     -41.328  57.514 -51.006  1.00  0.00     0.140 C 
BRANCH  33  34
HETATM   34  C   UNL     1     -42.437  58.457 -51.499  1.00  0.00    -0.004 C 
HETATM   35  C   UNL     1     -43.833  57.915 -51.188  1.00  0.00     0.011 C 
HETATM   36  C   UNL     1     -42.257  59.834 -50.854  1.00  0.00     0.011 C 
ENDBRANCH  33  34
ENDBRANCH   5  33
TORSDOF 7
ENDMDL
MODEL 4
REMARK VINA RESULT:      -9.0      1.297      1.844
REMARK  7 active torsions:
REMARK  status: ('A' for Active; 'I' for Inactive)
REMARK    1  A    between atoms: C_8  and  C_9 
REMARK    2  A    between atoms: C_9  and  N_10 
REMARK    3  A    between atoms: C_14  and  C_15 
REMARK    4  A    between atoms: C_15  and  C_16 
REMARK    5  A    between atoms: C_16  and  C_17 
REMARK    6  A    between atoms: N_27  and  C_28 
REMARK    7  A    between atoms: C_28  and  C_29 
ROOT
HETATM    1  C   UNL     1     -41.642  54.707 -53.410  1.00  0.00     0.123 A 
HETATM    2  N   UNL     1     -42.061  54.386 -52.054  1.00  0.00    -0.324 N 
HETATM    3  C   UNL     1     -42.110  55.474 -51.217  1.00  0.00     0.326 A 
HETATM    4  O   UNL     1     -42.434  55.420 -50.046  1.00  0.00    -0.247 OA
HETATM    5  N   UNL     1     -41.782  56.578 -51.940  1.00  0.00    -0.268 N 
HETATM    6  C   UNL     1     -41.482  56.231 -53.224  1.00  0.00     0.257 A 
HETATM    7  O   UNL     1     -41.189  57.012 -54.120  1.00  0.00    -0.270 OA
HETATM    8  H   UNL     1     -42.206  53.451 -51.684  1.00  0.00     0.165 HD
ENDROOT
BRANCH   1   9
HETATM    9  C   UNL     1     -42.771  54.298 -54.422  1.00  0.00     0.027 C 
HETATM   10  C   UNL     1     -42.519  54.556 -55.917  1.00  0.00     0.035 C 
HETATM   11  C   UNL     1     -42.758  55.978 -56.408  1.00  0.00     0.235 C 
HETATM   12  N   UNL     1     -44.055  56.556 -55.904  1.00  0.00    -0.067 N 
HETATM   13  H   UNL     1     -44.807  56.153 -56.482  1.00  0.00     0.280 HD
HETATM   14  C   UNL     1     -44.411  56.282 -54.469  1.00  0.00     0.235 C 
HETATM   15  C   UNL     1     -44.183  54.828 -54.097  1.00  0.00     0.035 C 
BRANCH  12  16
HETATM   16  C   UNL     1     -44.108  58.061 -56.146  1.00  0.00     0.278 C 
BRANCH  16  17
HETATM   17  C   UNL     1     -44.386  58.442 -57.545  1.00  0.00     0.034 A 
HETATM   18  C   UNL     1     -45.617  58.366 -58.259  1.00  0.00     0.062 A 
HETATM   19  C   UNL     1     -46.949  57.912 -57.776  1.00  0.00     0.073 C 
HETATM   20  N   UNL     1     -45.485  58.788 -59.521  1.00  0.00    -0.176 NA
HETATM   21  N   UNL     1     -44.176  59.080 -59.652  1.00  0.00    -0.262 N 
HETATM   22  C   UNL     1     -43.660  59.480 -60.941  1.00  0.00     0.181 C 
HETATM   23  C   UNL     1     -43.502  58.923 -58.480  1.00  0.00     0.131 A 
HETATM   24 CL   UNL     1     -41.844  59.281 -58.350  1.00  0.00    -0.062 Cl
ENDBRANCH  16  17
ENDBRANCH  12  16
ENDBRANCH   1   9
BRANCH   1  25
HETATM   25  C   UNL     1     -40.231  54.134 -53.707  1.00  0.00     0.080 C 
BRANCH  25  26
HETATM   26  C   UNL     1     -40.091  52.642 -53.500  1.00  0.00    -0.052 A 
HETATM   27  C   UNL     1     -39.717  52.111 -52.260  1.00  0.00     0.049 A 
HETATM   28  C   UNL     1     -39.581  50.733 -52.103  1.00  0.00     0.116 A 
HETATM   29  F   UNL     1     -39.210  50.246 -50.912  1.00  0.00    -0.206 F 
HETATM   30  C   UNL     1     -39.818  49.862 -53.158  1.00  0.00     0.042 A 
HETATM   31  C   UNL     1     -40.203  50.377 -54.393  1.00  0.00     0.003 A 
HETATM   32  C   UNL     1     -40.339  51.758 -54.563  1.00  0.00     0.007 A 
ENDBRANCH  25  26
ENDBRANCH   1  25
BRANCH   5  33
HETATM   33  C   UNL     1     -41.796  57.933 -51.419  1.00  0.00     0.140 C 
BRANCH  33  34
HETATM   34  C   UNL     1     -40.456  58.375 -50.811  1.00  0.00    -0.004 C 
HETATM   35  C   UNL     1     -39.553  59.054 -51.841  1.00  0.00     0.011 C 
HETATM   36  C   UNL     1     -40.718  59.327 -49.641  1.00  0.00     0.011 C 
ENDBRANCH  33  34
ENDBRANCH   5  33
TORSDOF 7
ENDMDL
MODEL 5
REMARK VINA RESULT:      -8.6      3.694      7.757
REMARK  7 active torsions:
REMARK  status: ('A' for Active; 'I' for Inactive)
REMARK    1  A    between atoms: C_8  and  C_9 
REMARK    2  A    between atoms: C_9  and  N_10 
REMARK    3  A    between atoms: C_14  and  C_15 
REMARK    4  A    between atoms: C_15  and  C_16 
REMARK    5  A    between atoms: C_16  and  C_17 
REMARK    6  A    between atoms: N_27  and  C_28 
REMARK    7  A    between atoms: C_28  and  C_29 
ROOT
HETATM    1  C   UNL     1     -42.968  57.902 -55.846  1.00  0.00     0.123 A 
HETATM    2  N   UNL     1     -41.661  58.158 -55.259  1.00  0.00    -0.324 N 
HETATM    3  C   UNL     1     -41.681  59.088 -54.247  1.00  0.00     0.326 A 
HETATM    4  O   UNL     1     -40.696  59.443 -53.629  1.00  0.00    -0.247 OA
HETATM    5  N   UNL     1     -42.970  59.477 -54.056  1.00  0.00    -0.268 N 
HETATM    6  C   UNL     1     -43.791  58.850 -54.947  1.00  0.00     0.257 A 
HETATM    7  O   UNL     1     -45.008  58.968 -54.995  1.00  0.00    -0.270 OA
HETATM    8  H   UNL     1     -40.777  57.796 -55.602  1.00  0.00     0.165 HD
ENDROOT
BRANCH   1   9
HETATM    9  C   UNL     1     -43.332  56.384 -55.680  1.00  0.00     0.027 C 
HETATM   10  C   UNL     1     -44.018  55.952 -54.372  1.00  0.00     0.035 C 
HETATM   11  C   UNL     1     -43.109  55.744 -53.168  1.00  0.00     0.235 C 
HETATM   12  N   UNL     1     -41.879  54.939 -53.501  1.00  0.00    -0.067 N 
HETATM   13  H   UNL     1     -42.169  53.952 -53.543  1.00  0.00     0.280 HD
HETATM   14  C   UNL     1     -41.194  55.250 -54.804  1.00  0.00     0.235 C 
HETATM   15  C   UNL     1     -42.184  55.388 -55.946  1.00  0.00     0.035 C 
BRANCH  12  16
HETATM   16  C   UNL     1     -40.854  55.022 -52.374  1.00  0.00     0.278 C 
BRANCH  16  17
HETATM   17  C   UNL     1     -40.594  53.737 -51.695  1.00  0.00     0.034 A 
HETATM   18  C   UNL     1     -40.688  53.431 -50.306  1.00  0.00     0.062 A 
HETATM   19  C   UNL     1     -41.101  54.313 -49.183  1.00  0.00     0.073 C 
HETATM   20  N   UNL     1     -40.361  52.159 -50.057  1.00  0.00    -0.176 NA
HETATM   21  N   UNL     1     -40.000  51.654 -51.252  1.00  0.00    -0.262 N 
HETATM   22  C   UNL     1     -39.487  50.305 -51.332  1.00  0.00     0.181 C 
HETATM   23  C   UNL     1     -40.167  52.559 -52.256  1.00  0.00     0.131 A 
HETATM   24 CL   UNL     1     -39.841  52.161 -53.877  1.00  0.00    -0.062 Cl
ENDBRANCH  16  17
ENDBRANCH  12  16
ENDBRANCH   1   9
BRANCH   1  25
HETATM   25  C   UNL     1     -43.049  58.460 -57.291  1.00  0.00     0.080 C 
BRANCH  25  26
HETATM   26  C   UNL     1     -43.780  57.577 -58.277  1.00  0.00    -0.052 A 
HETATM   27  C   UNL     1     -45.175  57.615 -58.395  1.00  0.00     0.049 A 
HETATM   28  C   UNL     1     -45.822  56.779 -59.302  1.00  0.00     0.116 A 
HETATM   29  F   UNL     1     -47.158  56.822 -59.390  1.00  0.00    -0.206 F 
HETATM   30  C   UNL     1     -45.108  55.903 -60.109  1.00  0.00     0.042 A 
HETATM   31  C   UNL     1     -43.720  55.865 -60.011  1.00  0.00     0.003 A 
HETATM   32  C   UNL     1     -43.060  56.696 -59.102  1.00  0.00     0.007 A 
ENDBRANCH  25  26
ENDBRANCH   1  25
BRANCH   5  33
HETATM   33  C   UNL     1     -43.404  60.395 -53.020  1.00  0.00     0.140 C 
BRANCH  33  34
HETATM   34  C   UNL     1     -43.494  59.756 -51.625  1.00  0.00    -0.004 C 
HETATM   35  C   UNL     1     -42.720  60.553 -50.575  1.00  0.00     0.011 C 
HETATM   36  C   UNL     1     -44.964  59.643 -51.213  1.00  0.00     0.011 C 
ENDBRANCH  33  34
ENDBRANCH   5  33
TORSDOF 7
ENDMDL
MODEL 6
REMARK VINA RESULT:      -8.3      3.703      7.108
REMARK  7 active torsions:
REMARK  status: ('A' for Active; 'I' for Inactive)
REMARK    1  A    between atoms: C_8  and  C_9 
REMARK    2  A    between atoms: C_9  and  N_10 
REMARK    3  A    between atoms: C_14  and  C_15 
REMARK    4  A    between atoms: C_15  and  C_16 
REMARK    5  A    between atoms: C_16  and  C_17 
REMARK    6  A    between atoms: N_27  and  C_28 
REMARK    7  A    between atoms: C_28  and  C_29 
ROOT
HETATM    1  C   UNL     1     -43.345  56.694 -51.981  1.00  0.00     0.123 A 
HETATM    2  N   UNL     1     -41.983  56.846 -52.473  1.00  0.00    -0.324 N 
HETATM    3  C   UNL     1     -41.482  58.117 -52.335  1.00  0.00     0.326 A 
HETATM    4  O   UNL     1     -40.367  58.452 -52.684  1.00  0.00    -0.247 OA
HETATM    5  N   UNL     1     -42.424  58.878 -51.715  1.00  0.00    -0.268 N 
HETATM    6  C   UNL     1     -43.547  58.140 -51.480  1.00  0.00     0.257 A 
HETATM    7  O   UNL     1     -44.550  58.539 -50.902  1.00  0.00    -0.270 OA
HETATM    8  H   UNL     1     -41.455  56.141 -52.979  1.00  0.00     0.165 HD
ENDROOT
BRANCH   1   9
HETATM    9  C   UNL     1     -43.376  55.611 -50.845  1.00  0.00     0.027 C 
HETATM   10  C   UNL     1     -42.278  55.670 -49.770  1.00  0.00     0.035 C 
HETATM   11  C   UNL     1     -40.931  55.066 -50.145  1.00  0.00     0.235 C 
HETATM   12  N   UNL     1     -41.063  53.716 -50.803  1.00  0.00    -0.067 N 
HETATM   13  H   UNL     1     -41.241  53.033 -50.052  1.00  0.00     0.280 HD
HETATM   14  C   UNL     1     -42.166  53.556 -51.812  1.00  0.00     0.235 C 
HETATM   15  C   UNL     1     -43.475  54.147 -51.320  1.00  0.00     0.035 C 
BRANCH  12  16
HETATM   16  C   UNL     1     -39.744  53.293 -51.443  1.00  0.00     0.278 C 
BRANCH  16  17
HETATM   17  C   UNL     1     -39.809  52.017 -52.181  1.00  0.00     0.034 A 
HETATM   18  C   UNL     1     -39.774  50.689 -51.665  1.00  0.00     0.062 A 
HETATM   19  C   UNL     1     -39.694  50.241 -50.249  1.00  0.00     0.073 C 
HETATM   20  N   UNL     1     -39.842  49.777 -52.641  1.00  0.00    -0.176 NA
HETATM   21  N   UNL     1     -39.860  50.493 -53.782  1.00  0.00    -0.262 N 
HETATM   22  C   UNL     1     -39.832  49.808 -55.054  1.00  0.00     0.181 C 
HETATM   23  C   UNL     1     -39.883  51.832 -53.540  1.00  0.00     0.131 A 
HETATM   24 CL   UNL     1     -39.967  52.965 -54.806  1.00  0.00    -0.062 Cl
ENDBRANCH  16  17
ENDBRANCH  12  16
ENDBRANCH   1   9
BRANCH   1  25
HETATM   25  C   UNL     1     -44.339  56.474 -53.150  1.00  0.00     0.080 C 
BRANCH  25  26
HETATM   26  C   UNL     1     -43.696  56.218 -54.496  1.00  0.00    -0.052 A 
HETATM   27  C   UNL     1     -43.379  57.269 -55.364  1.00  0.00     0.049 A 
HETATM   28  C   UNL     1     -42.802  57.002 -56.603  1.00  0.00     0.116 A 
HETATM   29  F   UNL     1     -42.519  58.022 -57.425  1.00  0.00    -0.206 F 
HETATM   30  C   UNL     1     -42.521  55.701 -57.001  1.00  0.00     0.042 A 
HETATM   31  C   UNL     1     -42.819  54.648 -56.141  1.00  0.00     0.003 A 
HETATM   32  C   UNL     1     -43.402  54.903 -54.897  1.00  0.00     0.007 A 
ENDBRANCH  25  26
ENDBRANCH   1  25
BRANCH   5  33
HETATM   33  C   UNL     1     -42.234  60.262 -51.326  1.00  0.00     0.140 C 
BRANCH  33  34
HETATM   34  C   UNL     1     -43.152  61.245 -52.069  1.00  0.00    -0.004 C 
HETATM   35  C   UNL     1     -43.106  62.648 -51.462  1.00  0.00     0.011 C 
HETATM   36  C   UNL     1     -42.748  61.302 -53.545  1.00  0.00     0.011 C 
ENDBRANCH  33  34
ENDBRANCH   5  33
TORSDOF 7
ENDMDL
MODEL 7
REMARK VINA RESULT:      -8.2     15.916     17.612
REMARK  7 active torsions:
REMARK  status: ('A' for Active; 'I' for Inactive)
REMARK    1  A    between atoms: C_8  and  C_9 
REMARK    2  A    between atoms: C_9  and  N_10 
REMARK    3  A    between atoms: C_14  and  C_15 
REMARK    4  A    between atoms: C_15  and  C_16 
REMARK    5  A    between atoms: C_16  and  C_17 
REMARK    6  A    between atoms: N_27  and  C_28 
REMARK    7  A    between atoms: C_28  and  C_29 
ROOT
HETATM    1  C   UNL     1     -35.795  41.201 -55.644  1.00  0.00     0.123 A 
HETATM    2  N   UNL     1     -35.864  39.753 -55.521  1.00  0.00    -0.324 N 
HETATM    3  C   UNL     1     -36.121  39.317 -54.244  1.00  0.00     0.326 A 
HETATM    4  O   UNL     1     -36.217  38.147 -53.929  1.00  0.00    -0.247 OA
HETATM    5  N   UNL     1     -36.284  40.409 -53.450  1.00  0.00    -0.268 N 
HETATM    6  C   UNL     1     -36.102  41.551 -54.173  1.00  0.00     0.257 A 
HETATM    7  O   UNL     1     -36.222  42.690 -53.742  1.00  0.00    -0.270 OA
HETATM    8  H   UNL     1     -35.641  39.084 -56.253  1.00  0.00     0.165 HD
ENDROOT
BRANCH   1   9
HETATM    9  C   UNL     1     -36.883  41.696 -56.662  1.00  0.00     0.027 C 
HETATM   10  C   UNL     1     -38.248  40.987 -56.650  1.00  0.00     0.035 C 
HETATM   11  C   UNL     1     -38.328  39.660 -57.392  1.00  0.00     0.235 C 
HETATM   12  N   UNL     1     -37.688  39.717 -58.755  1.00  0.00    -0.067 N 
HETATM   13  H   UNL     1     -38.357  40.189 -59.380  1.00  0.00     0.280 HD
HETATM   14  C   UNL     1     -36.385  40.461 -58.865  1.00  0.00     0.235 C 
HETATM   15  C   UNL     1     -36.429  41.790 -58.133  1.00  0.00     0.035 C 
BRANCH  12  16
HETATM   16  C   UNL     1     -37.504  38.315 -59.327  1.00  0.00     0.278 C 
BRANCH  16  17
HETATM   17  C   UNL     1     -38.055  38.137 -60.686  1.00  0.00     0.034 A 
HETATM   18  C   UNL     1     -37.365  38.149 -61.932  1.00  0.00     0.062 A 
HETATM   19  C   UNL     1     -35.910  38.312 -62.191  1.00  0.00     0.073 C 
HETATM   20  N   UNL     1     -38.200  37.968 -62.962  1.00  0.00    -0.176 NA
HETATM   21  N   UNL     1     -39.424  37.899 -62.405  1.00  0.00    -0.262 N 
HETATM   22  C   UNL     1     -40.589  37.802 -63.254  1.00  0.00     0.181 C 
HETATM   23  C   UNL     1     -39.368  37.956 -61.046  1.00  0.00     0.131 A 
HETATM   24 CL   UNL     1     -40.769  37.832 -60.090  1.00  0.00    -0.062 Cl
ENDBRANCH  16  17
ENDBRANCH  12  16
ENDBRANCH   1   9
BRANCH   1  25
HETATM   25  C   UNL     1     -34.343  41.667 -55.930  1.00  0.00     0.080 C 
BRANCH  25  26
HETATM   26  C   UNL     1     -33.282  40.605 -55.741  1.00  0.00    -0.052 A 
HETATM   27  C   UNL     1     -32.861  39.798 -56.805  1.00  0.00     0.049 A 
HETATM   28  C   UNL     1     -31.893  38.818 -56.596  1.00  0.00     0.116 A 
HETATM   29  F   UNL     1     -31.514  38.047 -57.624  1.00  0.00    -0.206 F 
HETATM   30  C   UNL     1     -31.322  38.625 -55.346  1.00  0.00     0.042 A 
HETATM   31  C   UNL     1     -31.722  39.430 -54.283  1.00  0.00     0.003 A 
HETATM   32  C   UNL     1     -32.695  40.414 -54.478  1.00  0.00     0.007 A 
ENDBRANCH  25  26
ENDBRANCH   1  25
BRANCH   5  33
HETATM   33  C   UNL     1     -36.644  40.355 -52.045  1.00  0.00     0.140 C 
BRANCH  33  34
HETATM   34  C   UNL     1     -35.461  40.049 -51.114  1.00  0.00    -0.004 C 
HETATM   35  C   UNL     1     -34.564  41.269 -50.903  1.00  0.00     0.011 C 
HETATM   36  C   UNL     1     -35.989  39.551 -49.767  1.00  0.00     0.011 C 
ENDBRANCH  33  34
ENDBRANCH   5  33
TORSDOF 7
ENDMDL
MODEL 8
REMARK VINA RESULT:      -8.1      3.494      8.433
REMARK  7 active torsions:
REMARK  status: ('A' for Active; 'I' for Inactive)
REMARK    1  A    between atoms: C_8  and  C_9 
REMARK    2  A    between atoms: C_9  and  N_10 
REMARK    3  A    between atoms: C_14  and  C_15 
REMARK    4  A    between atoms: C_15  and  C_16 
REMARK    5  A    between atoms: C_16  and  C_17 
REMARK    6  A    between atoms: N_27  and  C_28 
REMARK    7  A    between atoms: C_28  and  C_29 
ROOT
HETATM    1  C   UNL     1     -42.592  59.863 -53.315  1.00  0.00     0.123 A 
HETATM    2  N   UNL     1     -43.677  58.921 -53.083  1.00  0.00    -0.324 N 
HETATM    3  C   UNL     1     -44.184  58.365 -54.233  1.00  0.00     0.326 A 
HETATM    4  O   UNL     1     -45.093  57.558 -54.257  1.00  0.00    -0.247 OA
HETATM    5  N   UNL     1     -43.468  58.845 -55.285  1.00  0.00    -0.268 N 
HETATM    6  C   UNL     1     -42.527  59.732 -54.852  1.00  0.00     0.257 A 
HETATM    7  O   UNL     1     -41.706  60.299 -55.561  1.00  0.00    -0.270 OA
HETATM    8  H   UNL     1     -44.125  58.741 -52.189  1.00  0.00     0.165 HD
ENDROOT
BRANCH   1   9
HETATM    9  C   UNL     1     -41.299  59.371 -52.573  1.00  0.00     0.027 C 
HETATM   10  C   UNL     1     -40.411  58.341 -53.292  1.00  0.00     0.035 C 
HETATM   11  C   UNL     1     -40.863  56.889 -53.217  1.00  0.00     0.235 C 
HETATM   12  N   UNL     1     -41.263  56.476 -51.824  1.00  0.00    -0.067 N 
HETATM   13  H   UNL     1     -40.392  56.307 -51.300  1.00  0.00     0.280 HD
HETATM   14  C   UNL     1     -42.070  57.464 -51.026  1.00  0.00     0.235 C 
HETATM   15  C   UNL     1     -41.506  58.869 -51.129  1.00  0.00     0.035 C 
BRANCH  12  16
HETATM   16  C   UNL     1     -42.000  55.140 -51.844  1.00  0.00     0.278 C 
BRANCH  16  17
HETATM   17  C   UNL     1     -41.118  53.963 -51.970  1.00  0.00     0.034 A 
HETATM   18  C   UNL     1     -40.201  53.434 -51.017  1.00  0.00     0.062 A 
HETATM   19  C   UNL     1     -39.912  53.909 -49.637  1.00  0.00     0.073 C 
HETATM   20  N   UNL     1     -39.560  52.359 -51.490  1.00  0.00    -0.176 NA
HETATM   21  N   UNL     1     -40.005  52.220 -52.754  1.00  0.00    -0.262 N 
HETATM   22  C   UNL     1     -39.438  51.197 -53.602  1.00  0.00     0.181 C 
HETATM   23  C   UNL     1     -40.965  53.137 -53.057  1.00  0.00     0.131 A 
HETATM   24 CL   UNL     1     -41.740  53.148 -54.571  1.00  0.00    -0.062 Cl
ENDBRANCH  16  17
ENDBRANCH  12  16
ENDBRANCH   1   9
BRANCH   1  25
HETATM   25  C   UNL     1     -43.039  61.314 -53.000  1.00  0.00     0.080 C 
BRANCH  25  26
HETATM   26  C   UNL     1     -44.060  61.443 -51.891  1.00  0.00    -0.052 A 
HETATM   27  C   UNL     1     -43.678  61.429 -50.544  1.00  0.00     0.049 A 
HETATM   28  C   UNL     1     -44.642  61.533 -49.544  1.00  0.00     0.116 A 
HETATM   29  F   UNL     1     -44.257  61.505 -48.261  1.00  0.00    -0.206 F 
HETATM   30  C   UNL     1     -45.990  61.661 -49.854  1.00  0.00     0.042 A 
HETATM   31  C   UNL     1     -46.381  61.690 -51.190  1.00  0.00     0.003 A 
HETATM   32  C   UNL     1     -45.423  61.582 -52.202  1.00  0.00     0.007 A 
ENDBRANCH  25  26
ENDBRANCH   1  25
BRANCH   5  33
HETATM   33  C   UNL     1     -43.658  58.431 -56.662  1.00  0.00     0.140 C 
BRANCH  33  34
HETATM   34  C   UNL     1     -42.565  57.483 -57.180  1.00  0.00    -0.004 C 
HETATM   35  C   UNL     1     -42.869  56.021 -56.854  1.00  0.00     0.011 C 
HETATM   36  C   UNL     1     -42.414  57.659 -58.693  1.00  0.00     0.011 C 
ENDBRANCH  33  34
ENDBRANCH   5  33
TORSDOF 7
ENDMDL
MODEL 9
REMARK VINA RESULT:      -8.0      2.917      6.254
REMARK  7 active torsions:
REMARK  status: ('A' for Active; 'I' for Inactive)
REMARK    1  A    between atoms: C_8  and  C_9 
REMARK    2  A    between atoms: C_9  and  N_10 
REMARK    3  A    between atoms: C_14  and  C_15 
REMARK    4  A    between atoms: C_15  and  C_16 
REMARK    5  A    between atoms: C_16  and  C_17 
REMARK    6  A    between atoms: N_27  and  C_28 
REMARK    7  A    between atoms: C_28  and  C_29 
ROOT
HETATM    1  C   UNL     1     -41.784  55.947 -54.728  1.00  0.00     0.123 A 
HETATM    2  N   UNL     1     -41.668  57.323 -55.188  1.00  0.00    -0.324 N 
HETATM    3  C   UNL     1     -42.327  57.571 -56.368  1.00  0.00     0.326 A 
HETATM    4  O   UNL     1     -42.353  58.653 -56.920  1.00  0.00    -0.247 OA
HETATM    5  N   UNL     1     -42.954  56.425 -56.749  1.00  0.00    -0.268 N 
HETATM    6  C   UNL     1     -42.687  55.422 -55.864  1.00  0.00     0.257 A 
HETATM    7  O   UNL     1     -43.142  54.287 -55.920  1.00  0.00    -0.270 OA
HETATM    8  H   UNL     1     -41.078  58.038 -54.774  1.00  0.00     0.165 HD
ENDROOT
BRANCH   1   9
HETATM    9  C   UNL     1     -42.457  55.921 -53.309  1.00  0.00     0.027 C 
HETATM   10  C   UNL     1     -43.982  56.104 -53.238  1.00  0.00     0.035 C 
HETATM   11  C   UNL     1     -44.497  57.535 -53.325  1.00  0.00     0.235 C 
HETATM   12  N   UNL     1     -43.731  58.483 -52.438  1.00  0.00    -0.067 N 
HETATM   13  H   UNL     1     -44.078  58.340 -51.478  1.00  0.00     0.280 HD
HETATM   14  C   UNL     1     -42.237  58.316 -52.393  1.00  0.00     0.235 C 
HETATM   15  C   UNL     1     -41.833  56.859 -52.256  1.00  0.00     0.035 C 
BRANCH  12  16
HETATM   16  C   UNL     1     -44.056  59.932 -52.784  1.00  0.00     0.278 C 
BRANCH  16  17
HETATM   17  C   UNL     1     -44.459  60.757 -51.628  1.00  0.00     0.034 A 
HETATM   18  C   UNL     1     -43.662  61.204 -50.535  1.00  0.00     0.062 A 
HETATM   19  C   UNL     1     -42.212  60.986 -50.286  1.00  0.00     0.073 C 
HETATM   20  N   UNL     1     -44.377  61.924 -49.663  1.00  0.00    -0.176 NA
HETATM   21  N   UNL     1     -45.635  61.898 -50.144  1.00  0.00    -0.262 N 
HETATM   22  C   UNL     1     -46.703  62.507 -49.383  1.00  0.00     0.181 C 
HETATM   23  C   UNL     1     -45.709  61.245 -51.336  1.00  0.00     0.131 A 
HETATM   24 CL   UNL     1     -47.173  61.116 -52.192  1.00  0.00    -0.062 Cl
ENDBRANCH  16  17
ENDBRANCH  12  16
ENDBRANCH   1   9
BRANCH   1  25
HETATM   25  C   UNL     1     -40.427  55.205 -54.844  1.00  0.00     0.080 C 
BRANCH  25  26
HETATM   26  C   UNL     1     -40.350  53.893 -54.095  1.00  0.00    -0.052 A 
HETATM   27  C   UNL     1     -40.319  52.668 -54.772  1.00  0.00     0.049 A 
HETATM   28  C   UNL     1     -40.263  51.475 -54.055  1.00  0.00     0.116 A 
HETATM   29  F   UNL     1     -40.247  50.313 -54.722  1.00  0.00    -0.206 F 
HETATM   30  C   UNL     1     -40.229  51.470 -52.667  1.00  0.00     0.042 A 
HETATM   31  C   UNL     1     -40.246  52.682 -51.982  1.00  0.00     0.003 A 
HETATM   32  C   UNL     1     -40.305  53.885 -52.690  1.00  0.00     0.007 A 
ENDBRANCH  25  26
ENDBRANCH   1  25
BRANCH   5  33
HETATM   33  C   UNL     1     -43.816  56.310 -57.911  1.00  0.00     0.140 C 
BRANCH  33  34
HETATM   34  C   UNL     1     -43.158  55.596 -59.101  1.00  0.00    -0.004 C 
HETATM   35  C   UNL     1     -44.175  54.825 -59.943  1.00  0.00     0.011 C 
HETATM   36  C   UNL     1     -42.432  56.623 -59.973  1.00  0.00     0.011 C 
ENDBRANCH  33  34
ENDBRANCH   5  33
TORSDOF 7
ENDMDL
MODEL 10
REMARK VINA RESULT:      -8.0      2.265      3.110
REMARK  7 active torsions:
REMARK  status: ('A' for Active; 'I' for Inactive)
REMARK    1  A    between atoms: C_8  and  C_9 
REMARK    2  A    between atoms: C_9  and  N_10 
REMARK    3  A    between atoms: C_14  and  C_15 
REMARK    4  A    between atoms: C_15  and  C_16 
REMARK    5  A    between atoms: C_16  and  C_17 
REMARK    6  A    between atoms: N_27  and  C_28 
REMARK    7  A    between atoms: C_28  and  C_29 
ROOT
HETATM    1  C   UNL     1     -42.491  56.045 -52.367  1.00  0.00     0.123 A 
HETATM    2  N   UNL     1     -43.562  55.968 -51.385  1.00  0.00    -0.324 N 
HETATM    3  C   UNL     1     -44.316  57.114 -51.296  1.00  0.00     0.326 A 
HETATM    4  O   UNL     1     -45.255  57.255 -50.537  1.00  0.00    -0.247 OA
HETATM    5  N   UNL     1     -43.850  57.998 -52.218  1.00  0.00    -0.268 N 
HETATM    6  C   UNL     1     -42.781  57.471 -52.882  1.00  0.00     0.257 A 
HETATM    7  O   UNL     1     -42.174  58.015 -53.795  1.00  0.00    -0.270 OA
HETATM    8  H   UNL     1     -43.709  55.209 -50.727  1.00  0.00     0.165 HD
ENDROOT
BRANCH   1   9
HETATM    9  C   UNL     1     -42.685  54.921 -53.447  1.00  0.00     0.027 C 
HETATM   10  C   UNL     1     -41.539  54.683 -54.445  1.00  0.00     0.035 C 
HETATM   11  C   UNL     1     -41.462  55.640 -55.627  1.00  0.00     0.235 C 
HETATM   12  N   UNL     1     -42.800  55.861 -56.283  1.00  0.00    -0.067 N 
HETATM   13  H   UNL     1     -42.985  55.036 -56.871  1.00  0.00     0.280 HD
HETATM   14  C   UNL     1     -43.986  56.026 -55.373  1.00  0.00     0.235 C 
HETATM   15  C   UNL     1     -43.994  54.994 -54.260  1.00  0.00     0.035 C 
BRANCH  12  16
HETATM   16  C   UNL     1     -42.745  57.048 -57.241  1.00  0.00     0.278 C 
BRANCH  16  17
HETATM   17  C   UNL     1     -43.968  57.234 -58.047  1.00  0.00     0.034 A 
HETATM   18  C   UNL     1     -44.912  58.300 -57.996  1.00  0.00     0.062 A 
HETATM   19  C   UNL     1     -44.900  59.516 -57.140  1.00  0.00     0.073 C 
HETATM   20  N   UNL     1     -45.907  58.122 -58.871  1.00  0.00    -0.176 NA
HETATM   21  N   UNL     1     -45.653  56.930 -59.446  1.00  0.00    -0.262 N 
HETATM   22  C   UNL     1     -46.598  56.376 -60.387  1.00  0.00     0.181 C 
HETATM   23  C   UNL     1     -44.482  56.394 -59.005  1.00  0.00     0.131 A 
HETATM   24 CL   UNL     1     -43.892  54.919 -59.613  1.00  0.00    -0.062 Cl
ENDBRANCH  16  17
ENDBRANCH  12  16
ENDBRANCH   1   9
BRANCH   1  25
HETATM   25  C   UNL     1     -41.103  56.083 -51.677  1.00  0.00     0.080 C 
BRANCH  25  26
HETATM   26  C   UNL     1     -40.884  55.020 -50.623  1.00  0.00    -0.052 A 
HETATM   27  C   UNL     1     -40.598  53.695 -50.974  1.00  0.00     0.049 A 
HETATM   28  C   UNL     1     -40.416  52.734 -49.982  1.00  0.00     0.116 A 
HETATM   29  F   UNL     1     -40.156  51.469 -50.340  1.00  0.00    -0.206 F 
HETATM   30  C   UNL     1     -40.503  53.063 -48.636  1.00  0.00     0.042 A 
HETATM   31  C   UNL     1     -40.773  54.380 -48.274  1.00  0.00     0.003 A 
HETATM   32  C   UNL     1     -40.961  55.352 -49.260  1.00  0.00     0.007 A 
ENDBRANCH  25  26
ENDBRANCH   1  25
BRANCH   5  33
HETATM   33  C   UNL     1     -44.440  59.298 -52.479  1.00  0.00     0.140 C 
BRANCH  33  34
HETATM   34  C   UNL     1     -44.180  60.329 -51.370  1.00  0.00    -0.004 C 
HETATM   35  C   UNL     1     -42.687  60.562 -51.138  1.00  0.00     0.011 C 
HETATM   36  C   UNL     1     -44.863  61.650 -51.733  1.00  0.00     0.011 C 
ENDBRANCH  33  34
ENDBRANCH   5  33
TORSDOF 7
ENDMDL
