MODEL 1
REMARK VINA RESULT:      -9.4      0.000      0.000
REMARK  6 active torsions:
REMARK  status: ('A' for Active; 'I' for Inactive)
REMARK    1  A    between atoms: C_2  and  N_3 
REMARK    2  A    between atoms: C_11  and  C_12 
REMARK    3  A    between atoms: C_14  and  C_15 
REMARK    4  A    between atoms: C_15  and  O_16 
REMARK    5  A    between atoms: O_16  and  C_17 
REMARK    6  A    between atoms: C_19  and  C_20 
ROOT
HETATM    1  N   UNL     1     -47.725  57.980 -62.209  1.00  0.00    -0.067 N 
HETATM    2  H   UNL     1     -46.911  57.938 -62.836  1.00  0.00     0.280 HD
HETATM    3  C   UNL     1     -47.380  59.017 -61.141  1.00  0.00     0.281 C 
HETATM    4  C   UNL     1     -46.271  58.520 -60.278  1.00  0.00     0.018 A 
HETATM    5  C   UNL     1     -45.871  57.200 -60.178  1.00  0.00    -0.023 A 
HETATM    6  C   UNL     1     -44.747  57.066 -59.300  1.00  0.00     0.073 A 
HETATM    7  C   UNL     1     -44.352  58.279 -58.789  1.00  0.00     0.088 A 
HETATM    8  N   UNL     1     -43.276  58.434 -57.993  1.00  0.00    -0.357 N 
HETATM    9  C   UNL     1     -42.682  57.275 -57.354  1.00  0.00     0.243 C 
HETATM   10  N   UNL     1     -42.933  56.075 -58.114  1.00  0.00    -0.330 N 
HETATM   11  C   UNL     1     -43.995  55.878 -58.949  1.00  0.00     0.256 C 
HETATM   12  O   UNL     1     -44.270  54.767 -59.390  1.00  0.00    -0.267 OA
HETATM   13  S   UNL     1     -45.343  59.561 -59.303  1.00  0.00    -0.074 SA
HETATM   14  C   UNL     1     -46.533  56.117 -60.975  1.00  0.00     0.068 C 
HETATM   15  C   UNL     1     -47.866  56.586 -61.586  1.00  0.00     0.240 C 
HETATM   16  H   UNL     1     -43.178  59.287 -57.447  1.00  0.00     0.162 HD
HETATM   17  H   UNL     1     -42.433  55.239 -57.849  1.00  0.00     0.165 HD
ENDROOT
BRANCH   9  18
HETATM   18  C   UNL     1     -43.080  57.083 -55.926  1.00  0.00     0.095 A 
HETATM   19  O   UNL     1     -42.161  56.436 -55.143  1.00  0.00    -0.313 OA
HETATM   20  C   UNL     1     -42.682  56.346 -53.886  1.00  0.00     0.077 A 
HETATM   21  C   UNL     1     -43.931  56.930 -53.854  1.00  0.00     0.037 A 
HETATM   22  C   UNL     1     -44.186  57.408 -55.163  1.00  0.00     0.039 A 
BRANCH  20  23
HETATM   23  C   UNL     1     -41.842  55.670 -52.861  1.00  0.00     0.240 C 
BRANCH  23  24
HETATM   24  O   UNL     1     -40.865  54.917 -53.578  1.00  0.00    -0.345 OA
BRANCH  24  25
HETATM   25  C   UNL     1     -40.490  53.714 -53.048  1.00  0.00     0.070 A 
HETATM   26  C   UNL     1     -40.339  52.514 -53.746  1.00  0.00     0.052 A 
HETATM   27  C   UNL     1     -39.943  51.340 -53.076  1.00  0.00     0.050 A 
HETATM   28  C   UNL     1     -39.704  51.389 -51.694  1.00  0.00     0.016 A 
HETATM   29  C   UNL     1     -39.856  52.584 -50.995  1.00  0.00     0.004 A 
HETATM   30  C   UNL     1     -40.247  53.738 -51.672  1.00  0.00     0.037 A 
BRANCH  27  31
HETATM   31  C   UNL     1     -39.773  50.037 -53.819  1.00  0.00     0.417 C 
HETATM   32  F   UNL     1     -38.753  50.059 -54.722  1.00  0.00    -0.166 F 
HETATM   33  F   UNL     1     -39.511  48.993 -52.986  1.00  0.00    -0.166 F 
HETATM   34  F   UNL     1     -40.886  49.689 -54.521  1.00  0.00    -0.166 F 
ENDBRANCH  27  31
ENDBRANCH  24  25
ENDBRANCH  23  24
ENDBRANCH  20  23
ENDBRANCH   9  18
BRANCH   1  35
HETATM   35  C   UNL     1     -48.932  58.347 -63.035  1.00  0.00     0.231 C 
HETATM   36  C   UNL     1     -49.965  59.081 -62.200  1.00  0.00     0.034 C 
ENDBRANCH   1  35
TORSDOF 6
ENDMDL
MODEL 2
REMARK VINA RESULT:      -9.3      7.727     10.867
REMARK  6 active torsions:
REMARK  status: ('A' for Active; 'I' for Inactive)
REMARK    1  A    between atoms: C_2  and  N_3 
REMARK    2  A    between atoms: C_11  and  C_12 
REMARK    3  A    between atoms: C_14  and  C_15 
REMARK    4  A    between atoms: C_15  and  O_16 
REMARK    5  A    between atoms: O_16  and  C_17 
REMARK    6  A    between atoms: C_19  and  C_20 
ROOT
HETATM    1  N   UNL     1     -39.565  51.530 -52.566  1.00  0.00    -0.067 N 
HETATM    2  H   UNL     1     -38.657  51.988 -52.410  1.00  0.00     0.280 HD
HETATM    3  C   UNL     1     -40.306  52.400 -53.580  1.00  0.00     0.281 C 
HETATM    4  C   UNL     1     -40.653  53.717 -52.974  1.00  0.00     0.018 A 
HETATM    5  C   UNL     1     -40.673  53.989 -51.619  1.00  0.00    -0.023 A 
HETATM    6  C   UNL     1     -41.002  55.361 -51.372  1.00  0.00     0.073 A 
HETATM    7  C   UNL     1     -41.206  56.055 -52.541  1.00  0.00     0.088 A 
HETATM    8  N   UNL     1     -41.458  57.378 -52.584  1.00  0.00    -0.357 N 
HETATM    9  C   UNL     1     -41.871  58.071 -51.379  1.00  0.00     0.243 C 
HETATM   10  N   UNL     1     -41.380  57.401 -50.199  1.00  0.00    -0.330 N 
HETATM   11  C   UNL     1     -41.090  56.071 -50.111  1.00  0.00     0.256 C 
HETATM   12  O   UNL     1     -40.890  55.525 -49.031  1.00  0.00    -0.267 OA
HETATM   13  S   UNL     1     -41.064  55.071 -53.920  1.00  0.00    -0.074 SA
HETATM   14  C   UNL     1     -40.314  52.946 -50.604  1.00  0.00     0.068 C 
HETATM   15  C   UNL     1     -40.291  51.534 -51.216  1.00  0.00     0.240 C 
HETATM   16  H   UNL     1     -41.846  57.783 -53.433  1.00  0.00     0.162 HD
HETATM   17  H   UNL     1     -41.470  57.881 -49.316  1.00  0.00     0.165 HD
ENDROOT
BRANCH   9  18
HETATM   18  C   UNL     1     -43.343  58.307 -51.273  1.00  0.00     0.095 A 
HETATM   19  O   UNL     1     -43.714  59.606 -51.052  1.00  0.00    -0.313 OA
HETATM   20  C   UNL     1     -45.075  59.639 -50.982  1.00  0.00     0.077 A 
HETATM   21  C   UNL     1     -45.584  58.368 -51.153  1.00  0.00     0.037 A 
HETATM   22  C   UNL     1     -44.471  57.512 -51.346  1.00  0.00     0.039 A 
BRANCH  20  23
HETATM   23  C   UNL     1     -45.701  60.967 -50.742  1.00  0.00     0.240 C 
BRANCH  23  24
HETATM   24  O   UNL     1     -44.843  61.656 -49.834  1.00  0.00    -0.345 OA
BRANCH  24  25
HETATM   25  C   UNL     1     -45.161  61.597 -48.506  1.00  0.00     0.070 A 
HETATM   26  C   UNL     1     -45.717  60.505 -47.837  1.00  0.00     0.052 A 
HETATM   27  C   UNL     1     -45.997  60.575 -46.459  1.00  0.00     0.050 A 
HETATM   28  C   UNL     1     -45.713  61.761 -45.762  1.00  0.00     0.016 A 
HETATM   29  C   UNL     1     -45.160  62.852 -46.428  1.00  0.00     0.004 A 
HETATM   30  C   UNL     1     -44.887  62.767 -47.793  1.00  0.00     0.037 A 
BRANCH  27  31
HETATM   31  C   UNL     1     -46.595  59.401 -45.723  1.00  0.00     0.417 C 
HETATM   32  F   UNL     1     -47.883  59.608 -45.329  1.00  0.00    -0.166 F 
HETATM   33  F   UNL     1     -46.614  58.268 -46.478  1.00  0.00    -0.166 F 
HETATM   34  F   UNL     1     -45.905  59.088 -44.592  1.00  0.00    -0.166 F 
ENDBRANCH  27  31
ENDBRANCH  24  25
ENDBRANCH  23  24
ENDBRANCH  20  23
ENDBRANCH   9  18
BRANCH   1  35
HETATM   35  C   UNL     1     -39.302  50.128 -53.055  1.00  0.00     0.231 C 
HETATM   36  C   UNL     1     -39.959  49.886 -54.401  1.00  0.00     0.034 C 
ENDBRANCH   1  35
TORSDOF 6
ENDMDL
MODEL 3
REMARK VINA RESULT:      -9.2      7.081     10.591
REMARK  6 active torsions:
REMARK  status: ('A' for Active; 'I' for Inactive)
REMARK    1  A    between atoms: C_2  and  N_3 
REMARK    2  A    between atoms: C_11  and  C_12 
REMARK    3  A    between atoms: C_14  and  C_15 
REMARK    4  A    between atoms: C_15  and  O_16 
REMARK    5  A    between atoms: O_16  and  C_17 
REMARK    6  A    between atoms: C_19  and  C_20 
ROOT
HETATM    1  N   UNL     1     -40.342  51.878 -53.154  1.00  0.00    -0.067 N 
HETATM    2  H   UNL     1     -41.248  51.393 -53.117  1.00  0.00     0.280 HD
HETATM    3  C   UNL     1     -40.234  52.667 -51.849  1.00  0.00     0.281 C 
HETATM    4  C   UNL     1     -41.242  53.764 -51.825  1.00  0.00     0.018 A 
HETATM    5  C   UNL     1     -41.904  54.262 -52.932  1.00  0.00    -0.023 A 
HETATM    6  C   UNL     1     -42.841  55.280 -52.560  1.00  0.00     0.073 A 
HETATM    7  C   UNL     1     -42.847  55.496 -51.203  1.00  0.00     0.088 A 
HETATM    8  N   UNL     1     -43.688  56.352 -50.592  1.00  0.00    -0.357 N 
HETATM    9  C   UNL     1     -44.397  57.346 -51.375  1.00  0.00     0.243 C 
HETATM   10  N   UNL     1     -44.573  56.907 -52.738  1.00  0.00    -0.330 N 
HETATM   11  C   UNL     1     -43.762  56.027 -53.394  1.00  0.00     0.256 C 
HETATM   12  O   UNL     1     -43.835  55.865 -54.607  1.00  0.00    -0.267 OA
HETATM   13  S   UNL     1     -41.707  54.537 -50.382  1.00  0.00    -0.074 SA
HETATM   14  C   UNL     1     -41.668  53.704 -54.304  1.00  0.00     0.068 C 
HETATM   15  C   UNL     1     -40.405  52.826 -54.357  1.00  0.00     0.240 C 
HETATM   16  H   UNL     1     -43.485  56.659 -49.643  1.00  0.00     0.162 HD
HETATM   17  H   UNL     1     -45.190  57.445 -53.328  1.00  0.00     0.165 HD
ENDROOT
BRANCH   9  18
HETATM   18  C   UNL     1     -43.789  58.711 -51.339  1.00  0.00     0.095 A 
HETATM   19  O   UNL     1     -44.592  59.698 -50.833  1.00  0.00    -0.313 OA
HETATM   20  C   UNL     1     -43.888  60.864 -50.875  1.00  0.00     0.077 A 
HETATM   21  C   UNL     1     -42.636  60.636 -51.408  1.00  0.00     0.037 A 
HETATM   22  C   UNL     1     -42.569  59.252 -51.702  1.00  0.00     0.039 A 
BRANCH  20  23
HETATM   23  C   UNL     1     -44.578  62.081 -50.368  1.00  0.00     0.240 C 
BRANCH  23  24
HETATM   24  O   UNL     1     -44.148  62.251 -49.018  1.00  0.00    -0.345 OA
BRANCH  24  25
HETATM   25  C   UNL     1     -45.074  62.036 -48.036  1.00  0.00     0.070 A 
HETATM   26  C   UNL     1     -45.379  60.810 -47.442  1.00  0.00     0.052 A 
HETATM   27  C   UNL     1     -46.359  60.726 -46.433  1.00  0.00     0.050 A 
HETATM   28  C   UNL     1     -47.029  61.892 -46.032  1.00  0.00     0.016 A 
HETATM   29  C   UNL     1     -46.728  63.116 -46.625  1.00  0.00     0.004 A 
HETATM   30  C   UNL     1     -45.755  63.183 -47.621  1.00  0.00     0.037 A 
BRANCH  27  31
HETATM   31  C   UNL     1     -46.696  59.408 -45.781  1.00  0.00     0.417 C 
HETATM   32  F   UNL     1     -46.599  58.345 -46.628  1.00  0.00    -0.166 F 
HETATM   33  F   UNL     1     -45.878  59.122 -44.731  1.00  0.00    -0.166 F 
HETATM   34  F   UNL     1     -47.965  59.379 -45.289  1.00  0.00    -0.166 F 
ENDBRANCH  27  31
ENDBRANCH  24  25
ENDBRANCH  23  24
ENDBRANCH  20  23
ENDBRANCH   9  18
BRANCH   1  35
HETATM   35  C   UNL     1     -39.263  50.838 -53.318  1.00  0.00     0.231 C 
HETATM   36  C   UNL     1     -39.580  49.897 -54.465  1.00  0.00     0.034 C 
ENDBRANCH   1  35
TORSDOF 6
ENDMDL
MODEL 4
REMARK VINA RESULT:      -9.1      4.762      8.892
REMARK  6 active torsions:
REMARK  status: ('A' for Active; 'I' for Inactive)
REMARK    1  A    between atoms: C_2  and  N_3 
REMARK    2  A    between atoms: C_11  and  C_12 
REMARK    3  A    between atoms: C_14  and  C_15 
REMARK    4  A    between atoms: C_15  and  O_16 
REMARK    5  A    between atoms: O_16  and  C_17 
REMARK    6  A    between atoms: C_19  and  C_20 
ROOT
HETATM    1  N   UNL     1     -40.264  51.768 -52.972  1.00  0.00    -0.067 N 
HETATM    2  H   UNL     1     -41.128  51.313 -52.648  1.00  0.00     0.280 HD
HETATM    3  C   UNL     1     -39.916  52.812 -51.912  1.00  0.00     0.281 C 
HETATM    4  C   UNL     1     -40.931  53.902 -51.909  1.00  0.00     0.018 A 
HETATM    5  C   UNL     1     -41.822  54.164 -52.934  1.00  0.00    -0.023 A 
HETATM    6  C   UNL     1     -42.694  55.249 -52.596  1.00  0.00     0.073 A 
HETATM    7  C   UNL     1     -42.428  55.746 -51.343  1.00  0.00     0.088 A 
HETATM    8  N   UNL     1     -43.153  56.723 -50.763  1.00  0.00    -0.357 N 
HETATM    9  C   UNL     1     -44.038  57.539 -51.572  1.00  0.00     0.243 C 
HETATM   10  N   UNL     1     -44.476  56.825 -52.747  1.00  0.00    -0.330 N 
HETATM   11  C   UNL     1     -43.790  55.816 -53.358  1.00  0.00     0.256 C 
HETATM   12  O   UNL     1     -44.105  55.403 -54.469  1.00  0.00    -0.267 OA
HETATM   13  S   UNL     1     -41.115  54.968 -50.595  1.00  0.00    -0.074 SA
HETATM   14  C   UNL     1     -41.856  53.327 -54.177  1.00  0.00     0.068 C 
HETATM   15  C   UNL     1     -40.603  52.442 -54.307  1.00  0.00     0.240 C 
HETATM   16  H   UNL     1     -42.769  57.220 -49.962  1.00  0.00     0.162 HD
HETATM   17  H   UNL     1     -45.218  57.234 -53.295  1.00  0.00     0.165 HD
ENDROOT
BRANCH   9  18
HETATM   18  C   UNL     1     -43.479  58.873 -51.949  1.00  0.00     0.095 A 
HETATM   19  O   UNL     1     -43.424  59.126 -53.293  1.00  0.00    -0.313 OA
HETATM   20  C   UNL     1     -42.893  60.371 -53.456  1.00  0.00     0.077 A 
HETATM   21  C   UNL     1     -42.602  60.921 -52.225  1.00  0.00     0.037 A 
HETATM   22  C   UNL     1     -42.984  59.961 -51.255  1.00  0.00     0.039 A 
BRANCH  20  23
HETATM   23  C   UNL     1     -42.739  60.855 -54.854  1.00  0.00     0.240 C 
BRANCH  23  24
HETATM   24  O   UNL     1     -41.709  60.061 -55.441  1.00  0.00    -0.345 OA
BRANCH  24  25
HETATM   25  C   UNL     1     -41.980  59.478 -56.648  1.00  0.00     0.070 A 
HETATM   26  C   UNL     1     -42.375  58.155 -56.856  1.00  0.00     0.052 A 
HETATM   27  C   UNL     1     -42.626  57.678 -58.157  1.00  0.00     0.050 A 
HETATM   28  C   UNL     1     -42.470  58.549 -59.247  1.00  0.00     0.016 A 
HETATM   29  C   UNL     1     -42.073  59.868 -59.042  1.00  0.00     0.004 A 
HETATM   30  C   UNL     1     -41.830  60.326 -57.748  1.00  0.00     0.037 A 
BRANCH  27  31
HETATM   31  C   UNL     1     -43.057  56.252 -58.396  1.00  0.00     0.417 C 
HETATM   32  F   UNL     1     -42.850  55.437 -57.323  1.00  0.00    -0.166 F 
HETATM   33  F   UNL     1     -44.383  56.151 -58.690  1.00  0.00    -0.166 F 
HETATM   34  F   UNL     1     -42.395  55.674 -59.436  1.00  0.00    -0.166 F 
ENDBRANCH  27  31
ENDBRANCH  24  25
ENDBRANCH  23  24
ENDBRANCH  20  23
ENDBRANCH   9  18
BRANCH   1  35
HETATM   35  C   UNL     1     -39.210  50.702 -53.136  1.00  0.00     0.231 C 
HETATM   36  C   UNL     1     -39.452  49.881 -54.389  1.00  0.00     0.034 C 
ENDBRANCH   1  35
TORSDOF 6
ENDMDL
MODEL 5
REMARK VINA RESULT:      -8.9      2.047      2.486
REMARK  6 active torsions:
REMARK  status: ('A' for Active; 'I' for Inactive)
REMARK    1  A    between atoms: C_2  and  N_3 
REMARK    2  A    between atoms: C_11  and  C_12 
REMARK    3  A    between atoms: C_14  and  C_15 
REMARK    4  A    between atoms: C_15  and  O_16 
REMARK    5  A    between atoms: O_16  and  C_17 
REMARK    6  A    between atoms: C_19  and  C_20 
ROOT
HETATM    1  N   UNL     1     -47.963  57.966 -62.080  1.00  0.00    -0.067 N 
HETATM    2  H   UNL     1     -47.236  57.993 -62.806  1.00  0.00     0.280 HD
HETATM    3  C   UNL     1     -47.549  58.997 -61.030  1.00  0.00     0.281 C 
HETATM    4  C   UNL     1     -46.310  58.552 -60.332  1.00  0.00     0.018 A 
HETATM    5  C   UNL     1     -45.819  57.259 -60.327  1.00  0.00    -0.023 A 
HETATM    6  C   UNL     1     -44.586  57.177 -59.602  1.00  0.00     0.073 A 
HETATM    7  C   UNL     1     -44.204  58.400 -59.105  1.00  0.00     0.088 A 
HETATM    8  N   UNL     1     -43.047  58.605 -58.447  1.00  0.00    -0.357 N 
HETATM    9  C   UNL     1     -42.305  57.472 -57.927  1.00  0.00     0.243 C 
HETATM   10  N   UNL     1     -42.577  56.277 -58.689  1.00  0.00    -0.330 N 
HETATM   11  C   UNL     1     -43.723  56.032 -59.389  1.00  0.00     0.256 C 
HETATM   12  O   UNL     1     -43.983  54.917 -59.828  1.00  0.00    -0.267 OA
HETATM   13  S   UNL     1     -45.331  59.627 -59.447  1.00  0.00    -0.074 SA
HETATM   14  C   UNL     1     -46.510  56.154 -61.069  1.00  0.00     0.068 C 
HETATM   15  C   UNL     1     -47.936  56.551 -61.491  1.00  0.00     0.240 C 
HETATM   16  H   UNL     1     -42.933  59.449 -57.890  1.00  0.00     0.162 HD
HETATM   17  H   UNL     1     -41.997  55.469 -58.518  1.00  0.00     0.165 HD
ENDROOT
BRANCH   9  18
HETATM   18  C   UNL     1     -42.504  57.219 -56.467  1.00  0.00     0.095 A 
HETATM   19  O   UNL     1     -42.778  55.920 -56.130  1.00  0.00    -0.313 OA
HETATM   20  C   UNL     1     -42.930  55.870 -54.776  1.00  0.00     0.077 A 
HETATM   21  C   UNL     1     -42.759  57.129 -54.239  1.00  0.00     0.037 A 
HETATM   22  C   UNL     1     -42.479  57.995 -55.324  1.00  0.00     0.039 A 
BRANCH  20  23
HETATM   23  C   UNL     1     -43.239  54.539 -54.187  1.00  0.00     0.240 C 
BRANCH  23  24
HETATM   24  O   UNL     1     -42.168  53.676 -54.566  1.00  0.00    -0.345 OA
BRANCH  24  25
HETATM   25  C   UNL     1     -41.344  53.227 -53.572  1.00  0.00     0.070 A 
HETATM   26  C   UNL     1     -41.283  53.716 -52.266  1.00  0.00     0.052 A 
HETATM   27  C   UNL     1     -40.386  53.160 -51.333  1.00  0.00     0.050 A 
HETATM   28  C   UNL     1     -39.549  52.107 -51.733  1.00  0.00     0.016 A 
HETATM   29  C   UNL     1     -39.607  51.618 -53.036  1.00  0.00     0.004 A 
HETATM   30  C   UNL     1     -40.502  52.178 -53.947  1.00  0.00     0.037 A 
BRANCH  27  31
HETATM   31  C   UNL     1     -40.311  53.678 -49.918  1.00  0.00     0.417 C 
HETATM   32  F   UNL     1     -39.140  54.317 -49.636  1.00  0.00    -0.166 F 
HETATM   33  F   UNL     1     -41.299  54.572 -49.637  1.00  0.00    -0.166 F 
HETATM   34  F   UNL     1     -40.426  52.686 -48.993  1.00  0.00    -0.166 F 
ENDBRANCH  27  31
ENDBRANCH  24  25
ENDBRANCH  23  24
ENDBRANCH  20  23
ENDBRANCH   9  18
BRANCH   1  35
HETATM   35  C   UNL     1     -49.287  58.273 -62.734  1.00  0.00     0.231 C 
HETATM   36  C   UNL     1     -49.975  59.442 -62.054  1.00  0.00     0.034 C 
ENDBRANCH   1  35
TORSDOF 6
ENDMDL
MODEL 6
REMARK VINA RESULT:      -8.9      4.249      9.104
REMARK  6 active torsions:
REMARK  status: ('A' for Active; 'I' for Inactive)
REMARK    1  A    between atoms: C_2  and  N_3 
REMARK    2  A    between atoms: C_11  and  C_12 
REMARK    3  A    between atoms: C_14  and  C_15 
REMARK    4  A    between atoms: C_15  and  O_16 
REMARK    5  A    between atoms: O_16  and  C_17 
REMARK    6  A    between atoms: C_19  and  C_20 
ROOT
HETATM    1  N   UNL     1     -40.225  51.809 -52.069  1.00  0.00    -0.067 N 
HETATM    2  H   UNL     1     -41.116  51.307 -51.966  1.00  0.00     0.280 HD
HETATM    3  C   UNL     1     -40.376  53.102 -51.267  1.00  0.00     0.281 C 
HETATM    4  C   UNL     1     -41.381  53.994 -51.912  1.00  0.00     0.018 A 
HETATM    5  C   UNL     1     -41.824  53.882 -53.216  1.00  0.00    -0.023 A 
HETATM    6  C   UNL     1     -42.825  54.864 -53.509  1.00  0.00     0.073 A 
HETATM    7  C   UNL     1     -43.092  55.659 -52.420  1.00  0.00     0.088 A 
HETATM    8  N   UNL     1     -44.044  56.613 -52.413  1.00  0.00    -0.357 N 
HETATM    9  C   UNL     1     -44.600  57.083 -53.668  1.00  0.00     0.243 C 
HETATM   10  N   UNL     1     -44.508  56.069 -54.690  1.00  0.00    -0.330 N 
HETATM   11  C   UNL     1     -43.578  55.071 -54.730  1.00  0.00     0.256 C 
HETATM   12  O   UNL     1     -43.416  54.381 -55.731  1.00  0.00    -0.267 OA
HETATM   13  S   UNL     1     -42.121  55.279 -51.077  1.00  0.00    -0.074 SA
HETATM   14  C   UNL     1     -41.326  52.798 -54.125  1.00  0.00     0.068 C 
HETATM   15  C   UNL     1     -40.067  52.113 -53.563  1.00  0.00     0.240 C 
HETATM   16  H   UNL     1     -44.028  57.327 -51.688  1.00  0.00     0.162 HD
HETATM   17  H   UNL     1     -45.006  56.227 -55.554  1.00  0.00     0.165 HD
ENDROOT
BRANCH   9  18
HETATM   18  C   UNL     1     -44.023  58.373 -54.156  1.00  0.00     0.095 A 
HETATM   19  O   UNL     1     -44.084  58.566 -55.511  1.00  0.00    -0.313 OA
HETATM   20  C   UNL     1     -43.519  59.777 -55.779  1.00  0.00     0.077 A 
HETATM   21  C   UNL     1     -43.092  60.365 -54.607  1.00  0.00     0.037 A 
HETATM   22  C   UNL     1     -43.421  59.465 -53.563  1.00  0.00     0.039 A 
BRANCH  20  23
HETATM   23  C   UNL     1     -43.477  60.193 -57.207  1.00  0.00     0.240 C 
BRANCH  23  24
HETATM   24  O   UNL     1     -44.448  59.398 -57.884  1.00  0.00    -0.345 OA
BRANCH  24  25
HETATM   25  C   UNL     1     -43.987  58.360 -58.645  1.00  0.00     0.070 A 
HETATM   26  C   UNL     1     -44.718  57.241 -59.046  1.00  0.00     0.052 A 
HETATM   27  C   UNL     1     -44.120  56.238 -59.835  1.00  0.00     0.050 A 
HETATM   28  C   UNL     1     -42.775  56.376 -60.211  1.00  0.00     0.016 A 
HETATM   29  C   UNL     1     -42.043  57.490 -59.810  1.00  0.00     0.004 A 
HETATM   30  C   UNL     1     -42.649  58.475 -59.031  1.00  0.00     0.037 A 
BRANCH  27  31
HETATM   31  C   UNL     1     -44.901  55.025 -60.278  1.00  0.00     0.417 C 
HETATM   32  F   UNL     1     -44.755  54.742 -61.603  1.00  0.00    -0.166 F 
HETATM   33  F   UNL     1     -44.529  53.896 -59.614  1.00  0.00    -0.166 F 
HETATM   34  F   UNL     1     -46.239  55.161 -60.070  1.00  0.00    -0.166 F 
ENDBRANCH  27  31
ENDBRANCH  24  25
ENDBRANCH  23  24
ENDBRANCH  20  23
ENDBRANCH   9  18
BRANCH   1  35
HETATM   35  C   UNL     1     -39.124  50.913 -51.561  1.00  0.00     0.231 C 
HETATM   36  C   UNL     1     -39.689  49.743 -50.777  1.00  0.00     0.034 C 
ENDBRANCH   1  35
TORSDOF 6
ENDMDL
MODEL 7
REMARK VINA RESULT:      -8.8      8.287     11.770
REMARK  6 active torsions:
REMARK  status: ('A' for Active; 'I' for Inactive)
REMARK    1  A    between atoms: C_2  and  N_3 
REMARK    2  A    between atoms: C_11  and  C_12 
REMARK    3  A    between atoms: C_14  and  C_15 
REMARK    4  A    between atoms: C_15  and  O_16 
REMARK    5  A    between atoms: O_16  and  C_17 
REMARK    6  A    between atoms: C_19  and  C_20 
ROOT
HETATM    1  N   UNL     1     -39.732  51.751 -52.406  1.00  0.00    -0.067 N 
HETATM    2  H   UNL     1     -38.822  52.212 -52.274  1.00  0.00     0.280 HD
HETATM    3  C   UNL     1     -40.485  52.595 -53.434  1.00  0.00     0.281 C 
HETATM    4  C   UNL     1     -40.822  53.928 -52.861  1.00  0.00     0.018 A 
HETATM    5  C   UNL     1     -40.824  54.238 -51.513  1.00  0.00    -0.023 A 
HETATM    6  C   UNL     1     -41.146  55.617 -51.300  1.00  0.00     0.073 A 
HETATM    7  C   UNL     1     -41.364  56.279 -52.485  1.00  0.00     0.088 A 
HETATM    8  N   UNL     1     -41.615  57.600 -52.562  1.00  0.00    -0.357 N 
HETATM    9  C   UNL     1     -42.010  58.328 -51.371  1.00  0.00     0.243 C 
HETATM   10  N   UNL     1     -41.506  57.689 -50.179  1.00  0.00    -0.330 N 
HETATM   11  C   UNL     1     -41.216  56.361 -50.058  1.00  0.00     0.256 C 
HETATM   12  O   UNL     1     -41.004  55.846 -48.966  1.00  0.00    -0.267 OA
HETATM   13  S   UNL     1     -41.243  55.256 -53.838  1.00  0.00    -0.074 SA
HETATM   14  C   UNL     1     -40.453  53.223 -50.474  1.00  0.00     0.068 C 
HETATM   15  C   UNL     1     -40.440  51.794 -51.047  1.00  0.00     0.240 C 
HETATM   16  H   UNL     1     -42.013  57.983 -53.417  1.00  0.00     0.162 HD
HETATM   17  H   UNL     1     -41.583  58.194 -49.308  1.00  0.00     0.165 HD
ENDROOT
BRANCH   9  18
HETATM   18  C   UNL     1     -43.481  58.569 -51.252  1.00  0.00     0.095 A 
HETATM   19  O   UNL     1     -43.835  59.752 -50.661  1.00  0.00    -0.313 OA
HETATM   20  C   UNL     1     -45.197  59.807 -50.633  1.00  0.00     0.077 A 
HETATM   21  C   UNL     1     -45.723  58.666 -51.201  1.00  0.00     0.037 A 
HETATM   22  C   UNL     1     -44.621  57.872 -51.604  1.00  0.00     0.039 A 
BRANCH  20  23
HETATM   23  C   UNL     1     -45.804  61.021 -50.025  1.00  0.00     0.240 C 
BRANCH  23  24
HETATM   24  O   UNL     1     -45.891  60.766 -48.624  1.00  0.00    -0.345 OA
BRANCH  24  25
HETATM   25  C   UNL     1     -46.092  61.841 -47.803  1.00  0.00     0.070 A 
HETATM   26  C   UNL     1     -45.401  62.120 -46.623  1.00  0.00     0.052 A 
HETATM   27  C   UNL     1     -45.707  63.268 -45.868  1.00  0.00     0.050 A 
HETATM   28  C   UNL     1     -46.720  64.131 -46.314  1.00  0.00     0.016 A 
HETATM   29  C   UNL     1     -47.412  63.853 -47.490  1.00  0.00     0.004 A 
HETATM   30  C   UNL     1     -47.097  62.713 -48.228  1.00  0.00     0.037 A 
BRANCH  27  31
HETATM   31  C   UNL     1     -44.965  63.583 -44.592  1.00  0.00     0.417 C 
HETATM   32  F   UNL     1     -44.235  62.535 -44.117  1.00  0.00    -0.166 F 
HETATM   33  F   UNL     1     -44.085  64.612 -44.741  1.00  0.00    -0.166 F 
HETATM   34  F   UNL     1     -45.799  63.945 -43.579  1.00  0.00    -0.166 F 
ENDBRANCH  27  31
ENDBRANCH  24  25
ENDBRANCH  23  24
ENDBRANCH  20  23
ENDBRANCH   9  18
BRANCH   1  35
HETATM   35  C   UNL     1     -39.478  50.336 -52.859  1.00  0.00     0.231 C 
HETATM   36  C   UNL     1     -39.815  50.163 -54.328  1.00  0.00     0.034 C 
ENDBRANCH   1  35
TORSDOF 6
ENDMDL
MODEL 8
REMARK VINA RESULT:      -8.6      6.469      9.173
REMARK  6 active torsions:
REMARK  status: ('A' for Active; 'I' for Inactive)
REMARK    1  A    between atoms: C_2  and  N_3 
REMARK    2  A    between atoms: C_11  and  C_12 
REMARK    3  A    between atoms: C_14  and  C_15 
REMARK    4  A    between atoms: C_15  and  O_16 
REMARK    5  A    between atoms: O_16  and  C_17 
REMARK    6  A    between atoms: C_19  and  C_20 
ROOT
HETATM    1  N   UNL     1     -45.883  63.372 -46.466  1.00  0.00    -0.067 N 
HETATM    2  H   UNL     1     -46.744  63.519 -47.010  1.00  0.00     0.280 HD
HETATM    3  C   UNL     1     -44.736  63.840 -47.360  1.00  0.00     0.281 C 
HETATM    4  C   UNL     1     -44.593  62.933 -48.533  1.00  0.00     0.018 A 
HETATM    5  C   UNL     1     -45.122  61.659 -48.624  1.00  0.00    -0.023 A 
HETATM    6  C   UNL     1     -44.843  61.073 -49.901  1.00  0.00     0.073 A 
HETATM    7  C   UNL     1     -44.130  61.926 -50.709  1.00  0.00     0.088 A 
HETATM    8  N   UNL     1     -43.802  61.640 -51.984  1.00  0.00    -0.357 N 
HETATM    9  C   UNL     1     -43.888  60.272 -52.459  1.00  0.00     0.243 C 
HETATM   10  N   UNL     1     -44.864  59.520 -51.709  1.00  0.00    -0.330 N 
HETATM   11  C   UNL     1     -45.246  59.782 -50.425  1.00  0.00     0.256 C 
HETATM   12  O   UNL     1     -45.910  58.982 -49.774  1.00  0.00    -0.267 OA
HETATM   13  S   UNL     1     -43.744  63.390 -49.936  1.00  0.00    -0.074 SA
HETATM   14  C   UNL     1     -45.934  61.066 -47.512  1.00  0.00     0.068 C 
HETATM   15  C   UNL     1     -45.787  61.865 -46.204  1.00  0.00     0.240 C 
HETATM   16  H   UNL     1     -43.072  62.180 -52.444  1.00  0.00     0.162 HD
HETATM   17  H   UNL     1     -45.122  58.608 -52.056  1.00  0.00     0.165 HD
ENDROOT
BRANCH   9  18
HETATM   18  C   UNL     1     -42.581  59.545 -52.492  1.00  0.00     0.095 A 
HETATM   19  O   UNL     1     -42.353  58.702 -51.438  1.00  0.00    -0.313 OA
HETATM   20  C   UNL     1     -41.130  58.129 -51.627  1.00  0.00     0.077 A 
HETATM   21  C   UNL     1     -40.568  58.601 -52.794  1.00  0.00     0.037 A 
HETATM   22  C   UNL     1     -41.502  59.507 -53.354  1.00  0.00     0.039 A 
BRANCH  20  23
HETATM   23  C   UNL     1     -40.675  57.167 -50.587  1.00  0.00     0.240 C 
BRANCH  23  24
HETATM   24  O   UNL     1     -41.567  56.056 -50.652  1.00  0.00    -0.345 OA
BRANCH  24  25
HETATM   25  C   UNL     1     -41.071  54.885 -51.156  1.00  0.00     0.070 A 
HETATM   26  C   UNL     1     -41.168  54.449 -52.479  1.00  0.00     0.052 A 
HETATM   27  C   UNL     1     -40.609  53.216 -52.869  1.00  0.00     0.050 A 
HETATM   28  C   UNL     1     -39.955  52.427 -51.910  1.00  0.00     0.016 A 
HETATM   29  C   UNL     1     -39.859  52.860 -50.590  1.00  0.00     0.004 A 
HETATM   30  C   UNL     1     -40.416  54.083 -50.219  1.00  0.00     0.037 A 
BRANCH  27  31
HETATM   31  C   UNL     1     -40.704  52.733 -54.296  1.00  0.00     0.417 C 
HETATM   32  F   UNL     1     -39.971  53.480 -55.169  1.00  0.00    -0.166 F 
HETATM   33  F   UNL     1     -40.266  51.452 -54.443  1.00  0.00    -0.166 F 
HETATM   34  F   UNL     1     -41.980  52.752 -54.769  1.00  0.00    -0.166 F 
ENDBRANCH  27  31
ENDBRANCH  24  25
ENDBRANCH  23  24
ENDBRANCH  20  23
ENDBRANCH   9  18
BRANCH   1  35
HETATM   35  C   UNL     1     -46.004  64.155 -45.183  1.00  0.00     0.231 C 
HETATM   36  C   UNL     1     -47.398  64.033 -44.597  1.00  0.00     0.034 C 
ENDBRANCH   1  35
TORSDOF 6
ENDMDL
MODEL 9
REMARK VINA RESULT:      -8.6      4.377      9.382
REMARK  6 active torsions:
REMARK  status: ('A' for Active; 'I' for Inactive)
REMARK    1  A    between atoms: C_2  and  N_3 
REMARK    2  A    between atoms: C_11  and  C_12 
REMARK    3  A    between atoms: C_14  and  C_15 
REMARK    4  A    between atoms: C_15  and  O_16 
REMARK    5  A    between atoms: O_16  and  C_17 
REMARK    6  A    between atoms: C_19  and  C_20 
ROOT
HETATM    1  N   UNL     1     -39.714  51.859 -51.982  1.00  0.00    -0.067 N 
HETATM    2  H   UNL     1     -38.823  52.332 -51.784  1.00  0.00     0.280 HD
HETATM    3  C   UNL     1     -40.155  52.353 -53.360  1.00  0.00     0.281 C 
HETATM    4  C   UNL     1     -40.506  53.800 -53.301  1.00  0.00     0.018 A 
HETATM    5  C   UNL     1     -40.781  54.506 -52.145  1.00  0.00    -0.023 A 
HETATM    6  C   UNL     1     -41.036  55.887 -52.430  1.00  0.00     0.073 A 
HETATM    7  C   UNL     1     -40.936  56.156 -53.774  1.00  0.00     0.088 A 
HETATM    8  N   UNL     1     -41.061  57.393 -54.294  1.00  0.00    -0.357 N 
HETATM    9  C   UNL     1     -41.652  58.452 -53.497  1.00  0.00     0.243 C 
HETATM   10  N   UNL     1     -41.474  58.204 -52.087  1.00  0.00    -0.330 N 
HETATM   11  C   UNL     1     -41.321  56.974 -51.515  1.00  0.00     0.256 C 
HETATM   12  O   UNL     1     -41.395  56.815 -50.301  1.00  0.00    -0.267 OA
HETATM   13  S   UNL     1     -40.598  54.769 -54.697  1.00  0.00    -0.074 SA
HETATM   14  C   UNL     1     -40.729  53.854 -50.796  1.00  0.00     0.068 C 
HETATM   15  C   UNL     1     -40.699  52.318 -50.902  1.00  0.00     0.240 C 
HETATM   16  H   UNL     1     -41.230  57.499 -55.292  1.00  0.00     0.162 HD
HETATM   17  H   UNL     1     -41.702  58.951 -51.447  1.00  0.00     0.165 HD
ENDROOT
BRANCH   9  18
HETATM   18  C   UNL     1     -43.090  58.726 -53.802  1.00  0.00     0.095 A 
HETATM   19  O   UNL     1     -43.433  58.651 -55.126  1.00  0.00    -0.313 OA
HETATM   20  C   UNL     1     -44.764  58.928 -55.222  1.00  0.00     0.077 A 
HETATM   21  C   UNL     1     -45.281  59.184 -53.969  1.00  0.00     0.037 A 
HETATM   22  C   UNL     1     -44.207  59.049 -53.055  1.00  0.00     0.039 A 
BRANCH  20  23
HETATM   23  C   UNL     1     -45.355  58.903 -56.587  1.00  0.00     0.240 C 
BRANCH  23  24
HETATM   24  O   UNL     1     -44.292  59.205 -57.489  1.00  0.00    -0.345 OA
BRANCH  24  25
HETATM   25  C   UNL     1     -43.897  58.214 -58.345  1.00  0.00     0.070 A 
HETATM   26  C   UNL     1     -44.670  57.130 -58.766  1.00  0.00     0.052 A 
HETATM   27  C   UNL     1     -44.140  56.176 -59.656  1.00  0.00     0.050 A 
HETATM   28  C   UNL     1     -42.822  56.326 -60.116  1.00  0.00     0.016 A 
HETATM   29  C   UNL     1     -42.050  57.405 -59.695  1.00  0.00     0.004 A 
HETATM   30  C   UNL     1     -42.588  58.343 -58.815  1.00  0.00     0.037 A 
BRANCH  27  31
HETATM   31  C   UNL     1     -44.965  55.001 -60.122  1.00  0.00     0.417 C 
HETATM   32  F   UNL     1     -44.739  53.864 -59.405  1.00  0.00    -0.166 F 
HETATM   33  F   UNL     1     -46.304  55.236 -60.033  1.00  0.00    -0.166 F 
HETATM   34  F   UNL     1     -44.725  54.677 -61.422  1.00  0.00    -0.166 F 
ENDBRANCH  27  31
ENDBRANCH  24  25
ENDBRANCH  23  24
ENDBRANCH  20  23
ENDBRANCH   9  18
BRANCH   1  35
HETATM   35  C   UNL     1     -39.476  50.371 -51.925  1.00  0.00     0.231 C 
HETATM   36  C   UNL     1     -39.841  49.811 -50.563  1.00  0.00     0.034 C 
ENDBRANCH   1  35
TORSDOF 6
ENDMDL
MODEL 10
REMARK VINA RESULT:      -8.5      3.770      6.479
REMARK  6 active torsions:
REMARK  status: ('A' for Active; 'I' for Inactive)
REMARK    1  A    between atoms: C_2  and  N_3 
REMARK    2  A    between atoms: C_11  and  C_12 
REMARK    3  A    between atoms: C_14  and  C_15 
REMARK    4  A    between atoms: C_15  and  O_16 
REMARK    5  A    between atoms: O_16  and  C_17 
REMARK    6  A    between atoms: C_19  and  C_20 
ROOT
HETATM    1  N   UNL     1     -44.822  62.032 -50.541  1.00  0.00    -0.067 N 
HETATM    2  H   UNL     1     -44.516  62.881 -51.036  1.00  0.00     0.280 HD
HETATM    3  C   UNL     1     -43.648  61.056 -50.616  1.00  0.00     0.281 C 
HETATM    4  C   UNL     1     -43.436  60.611 -52.022  1.00  0.00     0.018 A 
HETATM    5  C   UNL     1     -44.363  60.725 -53.041  1.00  0.00    -0.023 A 
HETATM    6  C   UNL     1     -43.829  60.245 -54.281  1.00  0.00     0.073 A 
HETATM    7  C   UNL     1     -42.536  59.802 -54.142  1.00  0.00     0.088 A 
HETATM    8  N   UNL     1     -41.786  59.367 -55.173  1.00  0.00    -0.357 N 
HETATM    9  C   UNL     1     -42.422  59.019 -56.429  1.00  0.00     0.243 C 
HETATM   10  N   UNL     1     -43.659  59.742 -56.604  1.00  0.00    -0.330 N 
HETATM   11  C   UNL     1     -44.442  60.221 -55.595  1.00  0.00     0.256 C 
HETATM   12  O   UNL     1     -45.580  60.628 -55.801  1.00  0.00    -0.267 OA
HETATM   13  S   UNL     1     -41.978  59.902 -52.539  1.00  0.00    -0.074 SA
HETATM   14  C   UNL     1     -45.707  61.349 -52.814  1.00  0.00     0.068 C 
HETATM   15  C   UNL     1     -46.028  61.489 -51.315  1.00  0.00     0.240 C 
HETATM   16  H   UNL     1     -40.947  58.823 -54.984  1.00  0.00     0.162 HD
HETATM   17  H   UNL     1     -44.103  59.699 -57.510  1.00  0.00     0.165 HD
ENDROOT
BRANCH   9  18
HETATM   18  C   UNL     1     -42.641  57.553 -56.628  1.00  0.00     0.095 A 
HETATM   19  O   UNL     1     -42.546  56.789 -55.496  1.00  0.00    -0.313 OA
HETATM   20  C   UNL     1     -42.768  55.493 -55.855  1.00  0.00     0.077 A 
HETATM   21  C   UNL     1     -43.004  55.417 -57.212  1.00  0.00     0.037 A 
HETATM   22  C   UNL     1     -42.927  56.741 -57.709  1.00  0.00     0.039 A 
BRANCH  20  23
HETATM   23  C   UNL     1     -42.711  54.478 -54.768  1.00  0.00     0.240 C 
BRANCH  23  24
HETATM   24  O   UNL     1     -41.514  54.742 -54.037  1.00  0.00    -0.345 OA
BRANCH  24  25
HETATM   25  C   UNL     1     -40.907  53.680 -53.428  1.00  0.00     0.070 A 
HETATM   26  C   UNL     1     -40.668  52.427 -53.996  1.00  0.00     0.052 A 
HETATM   27  C   UNL     1     -40.027  51.415 -53.256  1.00  0.00     0.050 A 
HETATM   28  C   UNL     1     -39.632  51.679 -51.935  1.00  0.00     0.016 A 
HETATM   29  C   UNL     1     -39.871  52.927 -51.366  1.00  0.00     0.004 A 
HETATM   30  C   UNL     1     -40.505  53.920 -52.112  1.00  0.00     0.037 A 
BRANCH  27  31
HETATM   31  C   UNL     1     -39.761  50.057 -53.858  1.00  0.00     0.417 C 
HETATM   32  F   UNL     1     -39.576  49.079 -52.927  1.00  0.00    -0.166 F 
HETATM   33  F   UNL     1     -40.783  49.629 -54.649  1.00  0.00    -0.166 F 
HETATM   34  F   UNL     1     -38.648  50.043 -54.641  1.00  0.00    -0.166 F 
ENDBRANCH  27  31
ENDBRANCH  24  25
ENDBRANCH  23  24
ENDBRANCH  20  23
ENDBRANCH   9  18
BRANCH   1  35
HETATM   35  C   UNL     1     -45.192  62.422 -49.132  1.00  0.00     0.231 C 
HETATM   36  C   UNL     1     -45.668  61.219 -48.339  1.00  0.00     0.034 C 
ENDBRANCH   1  35
TORSDOF 6
ENDMDL
