MODEL 1
REMARK VINA RESULT:      -9.4      0.000      0.000
REMARK  8 active torsions:
REMARK  status: ('A' for Active; 'I' for Inactive)
REMARK    1  A    between atoms: C_2  and  C_3 
REMARK    2  A    between atoms: C_6  and  N_7 
REMARK       I    between atoms: N_7  and  C_8 
REMARK    3  A    between atoms: C_8  and  C_9 
REMARK    4  A    between atoms: C_9  and  S_10 
REMARK    5  A    between atoms: S_10  and  C_11 
REMARK    6  A    between atoms: C_23  and  C_24 
REMARK    7  A    between atoms: C_24  and  C_25 
REMARK       I    between atoms: C_25  and  N_26 
REMARK    8  A    between atoms: N_26  and  C_27 
ROOT
HETATM    1  C   UNL     1     -43.013  58.250 -56.942  1.00  0.00     0.178 A 
HETATM    2  N   UNL     1     -42.897  57.219 -57.862  1.00  0.00    -0.241 N 
HETATM    3  C   UNL     1     -42.629  57.470 -59.167  1.00  0.00     0.147 A 
HETATM    4  N   UNL     1     -42.646  56.466 -59.989  1.00  0.00    -0.256 NA
HETATM    5  C   UNL     1     -42.354  58.852 -59.555  1.00  0.00     0.039 A 
HETATM    6  C   UNL     1     -42.442  59.818 -58.548  1.00  0.00     0.073 A 
HETATM    7  C   UNL     1     -42.015  59.192 -60.869  1.00  0.00     0.018 A 
HETATM    8  C   UNL     1     -41.767  60.526 -61.184  1.00  0.00     0.001 A 
HETATM    9  C   UNL     1     -41.864  61.505 -60.195  1.00  0.00     0.002 A 
HETATM   10  C   UNL     1     -42.204  61.152 -58.884  1.00  0.00     0.032 A 
HETATM   11  C   UNL     1     -43.034  55.856 -57.723  1.00  0.00     0.257 A 
HETATM   12  O   UNL     1     -43.164  55.197 -56.705  1.00  0.00    -0.270 OA
HETATM   13  C   UNL     1     -42.940  55.284 -59.125  1.00  0.00     0.211 A 
HETATM   14  N   UNL     1     -42.790  59.495 -57.222  1.00  0.00    -0.223 NA
ENDROOT
BRANCH   1  15
HETATM   15  S   UNL     1     -43.558  57.911 -55.320  1.00  0.00    -0.082 SA
BRANCH  15  16
HETATM   16  C   UNL     1     -42.113  58.472 -54.388  1.00  0.00     0.185 C 
BRANCH  16  17
HETATM   17  C   UNL     1     -41.151  57.363 -53.977  1.00  0.00     0.231 C 
HETATM   18  N   UNL     1     -41.539  56.084 -54.323  1.00  0.00    -0.327 N 
HETATM   19  H   UNL     1     -42.330  55.998 -54.956  1.00  0.00     0.169 HD
HETATM   20  O   UNL     1     -40.168  57.650 -53.295  1.00  0.00    -0.272 OA
BRANCH  18  21
HETATM   21  C   UNL     1     -40.975  54.864 -53.895  1.00  0.00     0.034 A 
HETATM   22  C   UNL     1     -40.954  54.430 -52.572  1.00  0.00     0.030 A 
HETATM   23  C   UNL     1     -40.436  53.169 -52.244  1.00  0.00     0.010 A 
HETATM   24  C   UNL     1     -39.941  52.310 -53.232  1.00  0.00    -0.055 A 
HETATM   25  C   UNL     1     -39.940  52.768 -54.558  1.00  0.00     0.010 A 
HETATM   26  C   UNL     1     -40.443  54.031 -54.881  1.00  0.00     0.030 A 
BRANCH  24  27
HETATM   27  C   UNL     1     -39.413  50.914 -52.936  1.00  0.00     0.010 C 
HETATM   28  C   UNL     1     -39.970  49.809 -53.841  1.00  0.00     0.015 C 
HETATM   29  C   UNL     1     -39.644  50.549 -51.467  1.00  0.00     0.015 C 
ENDBRANCH  24  27
ENDBRANCH  18  21
ENDBRANCH  16  17
ENDBRANCH  15  16
ENDBRANCH   1  15
BRANCH  13  30
HETATM   30  C   UNL     1     -44.270  54.663 -59.496  1.00  0.00     0.140 C 
BRANCH  30  31
HETATM   31  C   UNL     1     -45.212  55.689 -60.071  1.00  0.00     0.220 C 
HETATM   32  N   UNL     1     -45.802  56.492 -59.122  1.00  0.00    -0.356 N 
HETATM   33  H   UNL     1     -45.564  56.340 -58.151  1.00  0.00     0.162 HD
HETATM   34  O   UNL     1     -45.440  55.763 -61.274  1.00  0.00    -0.274 OA
BRANCH  32  35
HETATM   35  C   UNL     1     -46.950  57.338 -59.427  1.00  0.00     0.084 C 
HETATM   36  C   UNL     1     -47.350  58.169 -58.198  1.00  0.00     0.025 C 
HETATM   37  C   UNL     1     -46.306  59.233 -57.858  1.00  0.00     0.002 C 
HETATM   38  C   UNL     1     -46.022  60.140 -59.051  1.00  0.00     0.000 C 
HETATM   39  C   UNL     1     -45.632  59.346 -60.294  1.00  0.00     0.002 C 
HETATM   40  C   UNL     1     -46.650  58.251 -60.623  1.00  0.00     0.025 C 
ENDBRANCH  32  35
ENDBRANCH  30  31
ENDBRANCH  13  30
TORSDOF 8
ENDMDL
MODEL 2
REMARK VINA RESULT:      -9.4      2.243      7.433
REMARK  8 active torsions:
REMARK  status: ('A' for Active; 'I' for Inactive)
REMARK    1  A    between atoms: C_2  and  C_3 
REMARK    2  A    between atoms: C_6  and  N_7 
REMARK       I    between atoms: N_7  and  C_8 
REMARK    3  A    between atoms: C_8  and  C_9 
REMARK    4  A    between atoms: C_9  and  S_10 
REMARK    5  A    between atoms: S_10  and  C_11 
REMARK    6  A    between atoms: C_23  and  C_24 
REMARK    7  A    between atoms: C_24  and  C_25 
REMARK       I    between atoms: C_25  and  N_26 
REMARK    8  A    between atoms: N_26  and  C_27 
ROOT
HETATM    1  C   UNL     1     -41.960  55.245 -51.930  1.00  0.00     0.178 A 
HETATM    2  N   UNL     1     -42.323  55.151 -53.265  1.00  0.00    -0.241 N 
HETATM    3  C   UNL     1     -41.806  54.188 -54.067  1.00  0.00     0.147 A 
HETATM    4  N   UNL     1     -42.104  54.232 -55.329  1.00  0.00    -0.256 NA
HETATM    5  C   UNL     1     -40.941  53.180 -53.455  1.00  0.00     0.039 A 
HETATM    6  C   UNL     1     -40.674  53.325 -52.090  1.00  0.00     0.073 A 
HETATM    7  C   UNL     1     -40.411  52.121 -54.198  1.00  0.00     0.018 A 
HETATM    8  C   UNL     1     -39.589  51.190 -53.565  1.00  0.00     0.001 A 
HETATM    9  C   UNL     1     -39.299  51.327 -52.207  1.00  0.00     0.002 A 
HETATM   10  C   UNL     1     -39.838  52.392 -51.475  1.00  0.00     0.032 A 
HETATM   11  C   UNL     1     -43.163  55.923 -54.035  1.00  0.00     0.257 A 
HETATM   12  O   UNL     1     -43.915  56.819 -53.689  1.00  0.00    -0.270 OA
HETATM   13  C   UNL     1     -43.022  55.404 -55.453  1.00  0.00     0.211 A 
HETATM   14  N   UNL     1     -41.193  54.389 -51.329  1.00  0.00    -0.223 NA
ENDROOT
BRANCH   1  15
HETATM   15  S   UNL     1     -42.482  56.611 -50.980  1.00  0.00    -0.082 SA
BRANCH  15  16
HETATM   16  C   UNL     1     -40.947  57.567 -50.950  1.00  0.00     0.185 C 
BRANCH  16  17
HETATM   17  C   UNL     1     -40.904  58.732 -51.932  1.00  0.00     0.231 C 
HETATM   18  N   UNL     1     -42.115  59.071 -52.503  1.00  0.00    -0.327 N 
HETATM   19  H   UNL     1     -42.947  58.641 -52.107  1.00  0.00     0.169 HD
HETATM   20  O   UNL     1     -39.815  59.221 -52.228  1.00  0.00    -0.272 OA
BRANCH  18  21
HETATM   21  C   UNL     1     -42.346  59.943 -53.587  1.00  0.00     0.034 A 
HETATM   22  C   UNL     1     -42.069  59.634 -54.916  1.00  0.00     0.030 A 
HETATM   23  C   UNL     1     -42.397  60.534 -55.940  1.00  0.00     0.010 A 
HETATM   24  C   UNL     1     -43.020  61.755 -55.659  1.00  0.00    -0.055 A 
HETATM   25  C   UNL     1     -43.268  62.070 -54.315  1.00  0.00     0.010 A 
HETATM   26  C   UNL     1     -42.927  61.178 -53.294  1.00  0.00     0.030 A 
BRANCH  24  27
HETATM   27  C   UNL     1     -43.440  62.745 -56.736  1.00  0.00     0.010 C 
HETATM   28  C   UNL     1     -44.779  62.432 -57.413  1.00  0.00     0.015 C 
HETATM   29  C   UNL     1     -42.343  62.890 -57.794  1.00  0.00     0.015 C 
ENDBRANCH  24  27
ENDBRANCH  18  21
ENDBRANCH  16  17
ENDBRANCH  15  16
ENDBRANCH   1  15
BRANCH  13  30
HETATM   30  C   UNL     1     -42.403  56.483 -56.316  1.00  0.00     0.140 C 
BRANCH  30  31
HETATM   31  C   UNL     1     -42.767  56.300 -57.767  1.00  0.00     0.220 C 
HETATM   32  N   UNL     1     -42.267  57.283 -58.591  1.00  0.00    -0.356 N 
HETATM   33  H   UNL     1     -41.713  58.019 -58.176  1.00  0.00     0.162 HD
HETATM   34  O   UNL     1     -43.470  55.372 -58.150  1.00  0.00    -0.274 OA
BRANCH  32  35
HETATM   35  C   UNL     1     -42.738  57.460 -59.959  1.00  0.00     0.084 C 
HETATM   36  C   UNL     1     -44.220  57.866 -59.971  1.00  0.00     0.025 C 
HETATM   37  C   UNL     1     -44.435  59.276 -59.420  1.00  0.00     0.002 C 
HETATM   38  C   UNL     1     -43.591  60.303 -60.167  1.00  0.00     0.000 C 
HETATM   39  C   UNL     1     -42.113  59.926 -60.185  1.00  0.00     0.002 C 
HETATM   40  C   UNL     1     -41.887  58.501 -60.698  1.00  0.00     0.025 C 
ENDBRANCH  32  35
ENDBRANCH  30  31
ENDBRANCH  13  30
TORSDOF 8
ENDMDL
MODEL 3
REMARK VINA RESULT:      -9.2      2.177      5.543
REMARK  8 active torsions:
REMARK  status: ('A' for Active; 'I' for Inactive)
REMARK    1  A    between atoms: C_2  and  C_3 
REMARK    2  A    between atoms: C_6  and  N_7 
REMARK       I    between atoms: N_7  and  C_8 
REMARK    3  A    between atoms: C_8  and  C_9 
REMARK    4  A    between atoms: C_9  and  S_10 
REMARK    5  A    between atoms: S_10  and  C_11 
REMARK    6  A    between atoms: C_23  and  C_24 
REMARK    7  A    between atoms: C_24  and  C_25 
REMARK       I    between atoms: C_25  and  N_26 
REMARK    8  A    between atoms: N_26  and  C_27 
ROOT
HETATM    1  C   UNL     1     -43.446  58.786 -59.048  1.00  0.00     0.178 A 
HETATM    2  N   UNL     1     -43.014  59.218 -57.803  1.00  0.00    -0.241 N 
HETATM    3  C   UNL     1     -42.107  60.218 -57.683  1.00  0.00     0.147 A 
HETATM    4  N   UNL     1     -41.667  60.492 -56.493  1.00  0.00    -0.256 NA
HETATM    5  C   UNL     1     -41.681  60.905 -58.901  1.00  0.00     0.039 A 
HETATM    6  C   UNL     1     -42.210  60.435 -60.107  1.00  0.00     0.073 A 
HETATM    7  C   UNL     1     -40.791  61.983 -58.862  1.00  0.00     0.018 A 
HETATM    8  C   UNL     1     -40.416  62.599 -60.055  1.00  0.00     0.001 A 
HETATM    9  C   UNL     1     -40.922  62.133 -61.268  1.00  0.00     0.002 A 
HETATM   10  C   UNL     1     -41.813  61.054 -61.293  1.00  0.00     0.032 A 
HETATM   11  C   UNL     1     -43.324  58.786 -56.533  1.00  0.00     0.257 A 
HETATM   12  O   UNL     1     -44.176  57.988 -56.180  1.00  0.00    -0.270 OA
HETATM   13  C   UNL     1     -42.410  59.555 -55.598  1.00  0.00     0.211 A 
HETATM   14  N   UNL     1     -43.101  59.346 -60.165  1.00  0.00    -0.223 NA
ENDROOT
BRANCH   1  15
HETATM   15  S   UNL     1     -44.453  57.368 -59.176  1.00  0.00    -0.082 SA
BRANCH  15  16
HETATM   16  C   UNL     1     -43.179  56.084 -59.160  1.00  0.00     0.185 C 
BRANCH  16  17
HETATM   17  C   UNL     1     -43.162  55.220 -57.905  1.00  0.00     0.231 C 
HETATM   18  N   UNL     1     -42.277  55.618 -56.923  1.00  0.00    -0.327 N 
HETATM   19  H   UNL     1     -41.840  56.529 -57.039  1.00  0.00     0.169 HD
HETATM   20  O   UNL     1     -43.841  54.194 -57.880  1.00  0.00    -0.272 OA
BRANCH  18  21
HETATM   21  C   UNL     1     -41.890  54.907 -55.768  1.00  0.00     0.034 A 
HETATM   22  C   UNL     1     -42.727  54.652 -54.685  1.00  0.00     0.030 A 
HETATM   23  C   UNL     1     -42.281  53.874 -53.607  1.00  0.00     0.010 A 
HETATM   24  C   UNL     1     -40.994  53.323 -53.595  1.00  0.00    -0.055 A 
HETATM   25  C   UNL     1     -40.149  53.610 -54.677  1.00  0.00     0.010 A 
HETATM   26  C   UNL     1     -40.590  54.397 -55.743  1.00  0.00     0.030 A 
BRANCH  24  27
HETATM   27  C   UNL     1     -40.478  52.433 -52.474  1.00  0.00     0.010 C 
HETATM   28  C   UNL     1     -39.829  53.181 -51.304  1.00  0.00     0.015 C 
HETATM   29  C   UNL     1     -39.508  51.382 -53.021  1.00  0.00     0.015 C 
ENDBRANCH  24  27
ENDBRANCH  18  21
ENDBRANCH  16  17
ENDBRANCH  15  16
ENDBRANCH   1  15
BRANCH  13  30
HETATM   30  C   UNL     1     -41.460  58.586 -54.926  1.00  0.00     0.140 C 
BRANCH  30  31
HETATM   31  C   UNL     1     -41.486  58.743 -53.428  1.00  0.00     0.220 C 
HETATM   32  N   UNL     1     -42.351  57.880 -52.795  1.00  0.00    -0.356 N 
HETATM   33  H   UNL     1     -42.878  57.231 -53.362  1.00  0.00     0.162 HD
HETATM   34  O   UNL     1     -40.813  59.590 -52.850  1.00  0.00    -0.274 OA
BRANCH  32  35
HETATM   35  C   UNL     1     -42.746  58.061 -51.404  1.00  0.00     0.084 C 
HETATM   36  C   UNL     1     -43.976  57.201 -51.075  1.00  0.00     0.025 C 
HETATM   37  C   UNL     1     -43.653  55.707 -51.080  1.00  0.00     0.002 C 
HETATM   38  C   UNL     1     -42.502  55.381 -50.133  1.00  0.00     0.000 C 
HETATM   39  C   UNL     1     -41.265  56.225 -50.422  1.00  0.00     0.002 C 
HETATM   40  C   UNL     1     -41.584  57.722 -50.460  1.00  0.00     0.025 C 
ENDBRANCH  32  35
ENDBRANCH  30  31
ENDBRANCH  13  30
TORSDOF 8
ENDMDL
MODEL 4
REMARK VINA RESULT:      -9.2      3.143      5.176
REMARK  8 active torsions:
REMARK  status: ('A' for Active; 'I' for Inactive)
REMARK    1  A    between atoms: C_2  and  C_3 
REMARK    2  A    between atoms: C_6  and  N_7 
REMARK       I    between atoms: N_7  and  C_8 
REMARK    3  A    between atoms: C_8  and  C_9 
REMARK    4  A    between atoms: C_9  and  S_10 
REMARK    5  A    between atoms: S_10  and  C_11 
REMARK    6  A    between atoms: C_23  and  C_24 
REMARK    7  A    between atoms: C_24  and  C_25 
REMARK       I    between atoms: C_25  and  N_26 
REMARK    8  A    between atoms: N_26  and  C_27 
ROOT
HETATM    1  C   UNL     1     -42.108  59.810 -51.538  1.00  0.00     0.178 A 
HETATM    2  N   UNL     1     -42.027  59.856 -52.921  1.00  0.00    -0.241 N 
HETATM    3  C   UNL     1     -42.590  60.869 -53.625  1.00  0.00     0.147 A 
HETATM    4  N   UNL     1     -42.571  60.786 -54.919  1.00  0.00    -0.256 NA
HETATM    5  C   UNL     1     -43.189  61.972 -52.874  1.00  0.00     0.039 A 
HETATM    6  C   UNL     1     -43.178  61.864 -51.480  1.00  0.00     0.073 A 
HETATM    7  C   UNL     1     -43.743  63.082 -53.519  1.00  0.00     0.018 A 
HETATM    8  C   UNL     1     -44.305  64.103 -52.754  1.00  0.00     0.001 A 
HETATM    9  C   UNL     1     -44.315  64.006 -51.363  1.00  0.00     0.002 A 
HETATM   10  C   UNL     1     -43.757  62.889 -50.730  1.00  0.00     0.032 A 
HETATM   11  C   UNL     1     -41.459  58.990 -53.828  1.00  0.00     0.257 A 
HETATM   12  O   UNL     1     -40.755  58.015 -53.621  1.00  0.00    -0.270 OA
HETATM   13  C   UNL     1     -41.837  59.517 -55.199  1.00  0.00     0.211 A 
HETATM   14  N   UNL     1     -42.632  60.750 -50.815  1.00  0.00    -0.223 NA
ENDROOT
BRANCH   1  15
HETATM   15  S   UNL     1     -41.554  58.397 -50.680  1.00  0.00    -0.082 SA
BRANCH  15  16
HETATM   16  C   UNL     1     -42.952  57.289 -50.979  1.00  0.00     0.185 C 
BRANCH  16  17
HETATM   17  C   UNL     1     -42.583  55.813 -51.080  1.00  0.00     0.231 C 
HETATM   18  N   UNL     1     -41.312  55.550 -51.549  1.00  0.00    -0.327 N 
HETATM   19  H   UNL     1     -40.678  56.341 -51.628  1.00  0.00     0.169 HD
HETATM   20  O   UNL     1     -43.444  54.967 -50.842  1.00  0.00    -0.272 OA
BRANCH  18  21
HETATM   21  C   UNL     1     -40.777  54.308 -51.948  1.00  0.00     0.034 A 
HETATM   22  C   UNL     1     -40.246  53.363 -51.073  1.00  0.00     0.030 A 
HETATM   23  C   UNL     1     -39.800  52.122 -51.549  1.00  0.00     0.010 A 
HETATM   24  C   UNL     1     -39.889  51.792 -52.906  1.00  0.00    -0.055 A 
HETATM   25  C   UNL     1     -40.398  52.761 -53.784  1.00  0.00     0.010 A 
HETATM   26  C   UNL     1     -40.828  54.003 -53.310  1.00  0.00     0.030 A 
BRANCH  24  27
HETATM   27  C   UNL     1     -39.465  50.443 -53.466  1.00  0.00     0.010 C 
HETATM   28  C   UNL     1     -40.253  49.978 -54.696  1.00  0.00     0.015 C 
HETATM   29  C   UNL     1     -39.516  49.366 -52.379  1.00  0.00     0.015 C 
ENDBRANCH  24  27
ENDBRANCH  18  21
ENDBRANCH  16  17
ENDBRANCH  15  16
ENDBRANCH   1  15
BRANCH  13  30
HETATM   30  C   UNL     1     -42.740  58.513 -55.884  1.00  0.00     0.140 C 
BRANCH  30  31
HETATM   31  C   UNL     1     -42.587  58.570 -57.382  1.00  0.00     0.220 C 
HETATM   32  N   UNL     1     -43.355  57.646 -58.053  1.00  0.00    -0.356 N 
HETATM   33  H   UNL     1     -43.942  57.028 -57.510  1.00  0.00     0.162 HD
HETATM   34  O   UNL     1     -41.820  59.355 -57.929  1.00  0.00    -0.274 OA
BRANCH  32  35
HETATM   35  C   UNL     1     -43.140  57.336 -59.461  1.00  0.00     0.084 C 
HETATM   36  C   UNL     1     -42.833  55.841 -59.643  1.00  0.00     0.025 C 
HETATM   37  C   UNL     1     -44.049  54.963 -59.349  1.00  0.00     0.002 C 
HETATM   38  C   UNL     1     -45.251  55.371 -60.195  1.00  0.00     0.000 C 
HETATM   39  C   UNL     1     -45.579  56.854 -60.048  1.00  0.00     0.002 C 
HETATM   40  C   UNL     1     -44.358  57.743 -60.301  1.00  0.00     0.025 C 
ENDBRANCH  32  35
ENDBRANCH  30  31
ENDBRANCH  13  30
TORSDOF 8
ENDMDL
MODEL 5
REMARK VINA RESULT:      -9.1      4.569      7.375
REMARK  8 active torsions:
REMARK  status: ('A' for Active; 'I' for Inactive)
REMARK    1  A    between atoms: C_2  and  C_3 
REMARK    2  A    between atoms: C_6  and  N_7 
REMARK       I    between atoms: N_7  and  C_8 
REMARK    3  A    between atoms: C_8  and  C_9 
REMARK    4  A    between atoms: C_9  and  S_10 
REMARK    5  A    between atoms: S_10  and  C_11 
REMARK    6  A    between atoms: C_23  and  C_24 
REMARK    7  A    between atoms: C_24  and  C_25 
REMARK       I    between atoms: C_25  and  N_26 
REMARK    8  A    between atoms: N_26  and  C_27 
ROOT
HETATM    1  C   UNL     1     -42.335  59.686 -54.840  1.00  0.00     0.178 A 
HETATM    2  N   UNL     1     -43.176  60.542 -54.145  1.00  0.00    -0.241 N 
HETATM    3  C   UNL     1     -43.036  60.735 -52.811  1.00  0.00     0.147 A 
HETATM    4  N   UNL     1     -43.929  61.461 -52.211  1.00  0.00    -0.256 NA
HETATM    5  C   UNL     1     -41.900  60.100 -52.144  1.00  0.00     0.039 A 
HETATM    6  C   UNL     1     -41.074  59.297 -52.936  1.00  0.00     0.073 A 
HETATM    7  C   UNL     1     -41.650  60.291 -50.782  1.00  0.00     0.018 A 
HETATM    8  C   UNL     1     -40.554  59.659 -50.196  1.00  0.00     0.001 A 
HETATM    9  C   UNL     1     -39.728  58.842 -50.968  1.00  0.00     0.002 A 
HETATM   10  C   UNL     1     -39.989  58.661 -52.331  1.00  0.00     0.032 A 
HETATM   11  C   UNL     1     -44.250  61.297 -54.561  1.00  0.00     0.257 A 
HETATM   12  O   UNL     1     -44.650  61.504 -55.695  1.00  0.00    -0.270 OA
HETATM   13  C   UNL     1     -44.848  61.898 -53.303  1.00  0.00     0.211 A 
HETATM   14  N   UNL     1     -41.316  59.088 -54.307  1.00  0.00    -0.223 NA
ENDROOT
BRANCH   1  15
HETATM   15  S   UNL     1     -42.667  59.304 -56.509  1.00  0.00    -0.082 SA
BRANCH  15  16
HETATM   16  C   UNL     1     -43.862  57.965 -56.285  1.00  0.00     0.185 C 
BRANCH  16  17
HETATM   17  C   UNL     1     -43.244  56.580 -56.127  1.00  0.00     0.231 C 
HETATM   18  N   UNL     1     -42.845  56.252 -54.847  1.00  0.00    -0.327 N 
HETATM   19  H   UNL     1     -43.141  56.874 -54.099  1.00  0.00     0.169 HD
HETATM   20  O   UNL     1     -43.050  55.898 -57.132  1.00  0.00    -0.272 OA
BRANCH  18  21
HETATM   21  C   UNL     1     -42.060  55.153 -54.442  1.00  0.00     0.034 A 
HETATM   22  C   UNL     1     -42.364  54.325 -53.364  1.00  0.00     0.030 A 
HETATM   23  C   UNL     1     -41.565  53.210 -53.074  1.00  0.00     0.010 A 
HETATM   24  C   UNL     1     -40.454  52.890 -53.863  1.00  0.00    -0.055 A 
HETATM   25  C   UNL     1     -40.139  53.746 -54.929  1.00  0.00     0.010 A 
HETATM   26  C   UNL     1     -40.928  54.865 -55.207  1.00  0.00     0.030 A 
BRANCH  24  27
HETATM   27  C   UNL     1     -39.584  51.666 -53.621  1.00  0.00     0.010 C 
HETATM   28  C   UNL     1     -40.039  50.396 -54.349  1.00  0.00     0.015 C 
HETATM   29  C   UNL     1     -39.450  51.386 -52.122  1.00  0.00     0.015 C 
ENDBRANCH  24  27
ENDBRANCH  18  21
ENDBRANCH  16  17
ENDBRANCH  15  16
ENDBRANCH   1  15
BRANCH  13  30
HETATM   30  C   UNL     1     -46.237  61.331 -53.096  1.00  0.00     0.140 C 
BRANCH  30  31
HETATM   31  C   UNL     1     -46.475  60.978 -51.650  1.00  0.00     0.220 C 
HETATM   32  N   UNL     1     -46.426  62.060 -50.802  1.00  0.00    -0.356 N 
HETATM   33  H   UNL     1     -46.246  62.972 -51.199  1.00  0.00     0.162 HD
HETATM   34  O   UNL     1     -46.661  59.823 -51.284  1.00  0.00    -0.274 OA
BRANCH  32  35
HETATM   35  C   UNL     1     -46.335  61.906 -49.355  1.00  0.00     0.084 C 
HETATM   36  C   UNL     1     -44.865  61.840 -48.911  1.00  0.00     0.025 C 
HETATM   37  C   UNL     1     -44.148  63.179 -49.092  1.00  0.00     0.002 C 
HETATM   38  C   UNL     1     -44.877  64.306 -48.370  1.00  0.00     0.000 C 
HETATM   39  C   UNL     1     -46.345  64.394 -48.778  1.00  0.00     0.002 C 
HETATM   40  C   UNL     1     -47.064  63.051 -48.638  1.00  0.00     0.025 C 
ENDBRANCH  32  35
ENDBRANCH  30  31
ENDBRANCH  13  30
TORSDOF 8
ENDMDL
MODEL 6
REMARK VINA RESULT:      -9.1      2.531      4.559
REMARK  8 active torsions:
REMARK  status: ('A' for Active; 'I' for Inactive)
REMARK    1  A    between atoms: C_2  and  C_3 
REMARK    2  A    between atoms: C_6  and  N_7 
REMARK       I    between atoms: N_7  and  C_8 
REMARK    3  A    between atoms: C_8  and  C_9 
REMARK    4  A    between atoms: C_9  and  S_10 
REMARK    5  A    between atoms: S_10  and  C_11 
REMARK    6  A    between atoms: C_23  and  C_24 
REMARK    7  A    between atoms: C_24  and  C_25 
REMARK       I    between atoms: C_25  and  N_26 
REMARK    8  A    between atoms: N_26  and  C_27 
ROOT
HETATM    1  C   UNL     1     -42.355  58.566 -55.138  1.00  0.00     0.178 A 
HETATM    2  N   UNL     1     -42.923  59.614 -55.847  1.00  0.00    -0.241 N 
HETATM    3  C   UNL     1     -43.426  59.429 -57.092  1.00  0.00     0.147 A 
HETATM    4  N   UNL     1     -43.838  60.477 -57.736  1.00  0.00    -0.256 NA
HETATM    5  C   UNL     1     -43.455  58.066 -57.622  1.00  0.00     0.039 A 
HETATM    6  C   UNL     1     -42.909  57.065 -56.814  1.00  0.00     0.073 A 
HETATM    7  C   UNL     1     -44.007  57.779 -58.874  1.00  0.00     0.018 A 
HETATM    8  C   UNL     1     -44.005  56.462 -59.332  1.00  0.00     0.001 A 
HETATM    9  C   UNL     1     -43.451  55.452 -58.546  1.00  0.00     0.002 A 
HETATM   10  C   UNL     1     -42.903  55.754 -57.294  1.00  0.00     0.032 A 
HETATM   11  C   UNL     1     -43.077  60.945 -55.533  1.00  0.00     0.257 A 
HETATM   12  O   UNL     1     -42.867  61.514 -54.474  1.00  0.00    -0.270 OA
HETATM   13  C   UNL     1     -43.631  61.606 -56.781  1.00  0.00     0.211 A 
HETATM   14  N   UNL     1     -42.342  57.338 -55.554  1.00  0.00    -0.223 NA
ENDROOT
BRANCH   1  15
HETATM   15  S   UNL     1     -41.537  58.877 -53.630  1.00  0.00    -0.082 SA
BRANCH  15  16
HETATM   16  C   UNL     1     -42.668  58.046 -52.490  1.00  0.00     0.185 C 
BRANCH  16  17
HETATM   17  C   UNL     1     -42.499  56.533 -52.415  1.00  0.00     0.231 C 
HETATM   18  N   UNL     1     -41.262  56.055 -52.799  1.00  0.00    -0.327 N 
HETATM   19  H   UNL     1     -40.525  56.743 -52.936  1.00  0.00     0.169 HD
HETATM   20  O   UNL     1     -43.472  55.839 -52.124  1.00  0.00    -0.272 OA
BRANCH  18  21
HETATM   21  C   UNL     1     -40.888  54.717 -53.038  1.00  0.00     0.034 A 
HETATM   22  C   UNL     1     -40.747  54.155 -54.304  1.00  0.00     0.030 A 
HETATM   23  C   UNL     1     -40.302  52.833 -54.452  1.00  0.00     0.010 A 
HETATM   24  C   UNL     1     -39.975  52.051 -53.339  1.00  0.00    -0.055 A 
HETATM   25  C   UNL     1     -40.148  52.616 -52.067  1.00  0.00     0.010 A 
HETATM   26  C   UNL     1     -40.606  53.928 -51.921  1.00  0.00     0.030 A 
BRANCH  24  27
HETATM   27  C   UNL     1     -39.442  50.629 -53.446  1.00  0.00     0.010 C 
HETATM   28  C   UNL     1     -39.989  49.823 -54.628  1.00  0.00     0.015 C 
HETATM   29  C   UNL     1     -39.679  49.864 -52.141  1.00  0.00     0.015 C 
ENDBRANCH  24  27
ENDBRANCH  18  21
ENDBRANCH  16  17
ENDBRANCH  15  16
ENDBRANCH   1  15
BRANCH  13  30
HETATM   30  C   UNL     1     -42.609  62.585 -57.318  1.00  0.00     0.140 C 
BRANCH  30  31
HETATM   31  C   UNL     1     -41.673  61.920 -58.294  1.00  0.00     0.220 C 
HETATM   32  N   UNL     1     -42.038  62.086 -59.611  1.00  0.00    -0.356 N 
HETATM   33  H   UNL     1     -42.870  62.624 -59.812  1.00  0.00     0.162 HD
HETATM   34  O   UNL     1     -40.701  61.271 -57.926  1.00  0.00    -0.274 OA
BRANCH  32  35
HETATM   35  C   UNL     1     -41.452  61.292 -60.683  1.00  0.00     0.084 C 
HETATM   36  C   UNL     1     -42.272  60.013 -60.918  1.00  0.00     0.025 C 
HETATM   37  C   UNL     1     -43.647  60.313 -61.516  1.00  0.00     0.002 C 
HETATM   38  C   UNL     1     -43.533  61.121 -62.804  1.00  0.00     0.000 C 
HETATM   39  C   UNL     1     -42.714  62.394 -62.611  1.00  0.00     0.002 C 
HETATM   40  C   UNL     1     -41.350  62.112 -61.976  1.00  0.00     0.025 C 
ENDBRANCH  32  35
ENDBRANCH  30  31
ENDBRANCH  13  30
TORSDOF 8
ENDMDL
MODEL 7
REMARK VINA RESULT:      -8.9      4.507      6.752
REMARK  8 active torsions:
REMARK  status: ('A' for Active; 'I' for Inactive)
REMARK    1  A    between atoms: C_2  and  C_3 
REMARK    2  A    between atoms: C_6  and  N_7 
REMARK       I    between atoms: N_7  and  C_8 
REMARK    3  A    between atoms: C_8  and  C_9 
REMARK    4  A    between atoms: C_9  and  S_10 
REMARK    5  A    between atoms: S_10  and  C_11 
REMARK    6  A    between atoms: C_23  and  C_24 
REMARK    7  A    between atoms: C_24  and  C_25 
REMARK       I    between atoms: C_25  and  N_26 
REMARK    8  A    between atoms: N_26  and  C_27 
ROOT
HETATM    1  C   UNL     1     -42.421  59.904 -54.962  1.00  0.00     0.178 A 
HETATM    2  N   UNL     1     -43.299  60.740 -54.287  1.00  0.00    -0.241 N 
HETATM    3  C   UNL     1     -43.245  60.875 -52.940  1.00  0.00     0.147 A 
HETATM    4  N   UNL     1     -44.169  61.585 -52.369  1.00  0.00    -0.256 NA
HETATM    5  C   UNL     1     -42.159  60.202 -52.228  1.00  0.00     0.039 A 
HETATM    6  C   UNL     1     -41.290  59.424 -52.998  1.00  0.00     0.073 A 
HETATM    7  C   UNL     1     -41.996  60.333 -50.846  1.00  0.00     0.018 A 
HETATM    8  C   UNL     1     -40.946  59.666 -50.218  1.00  0.00     0.001 A 
HETATM    9  C   UNL     1     -40.078  58.873 -50.968  1.00  0.00     0.002 A 
HETATM   10  C   UNL     1     -40.252  58.751 -52.351  1.00  0.00     0.032 A 
HETATM   11  C   UNL     1     -44.338  61.522 -54.740  1.00  0.00     0.257 A 
HETATM   12  O   UNL     1     -44.661  61.780 -55.887  1.00  0.00    -0.270 OA
HETATM   13  C   UNL     1     -45.012  62.076 -53.499  1.00  0.00     0.211 A 
HETATM   14  N   UNL     1     -41.444  59.274 -54.390  1.00  0.00    -0.223 NA
ENDROOT
BRANCH   1  15
HETATM   15  S   UNL     1     -42.647  59.595 -56.663  1.00  0.00    -0.082 SA
BRANCH  15  16
HETATM   16  C   UNL     1     -43.849  58.247 -56.572  1.00  0.00     0.185 C 
BRANCH  16  17
HETATM   17  C   UNL     1     -43.239  56.850 -56.556  1.00  0.00     0.231 C 
HETATM   18  N   UNL     1     -42.757  56.428 -55.333  1.00  0.00    -0.327 N 
HETATM   19  H   UNL     1     -42.993  56.998 -54.524  1.00  0.00     0.169 HD
HETATM   20  O   UNL     1     -43.123  56.239 -57.618  1.00  0.00    -0.272 OA
BRANCH  18  21
HETATM   21  C   UNL     1     -41.959  55.298 -55.062  1.00  0.00     0.034 A 
HETATM   22  C   UNL     1     -40.567  55.293 -55.087  1.00  0.00     0.030 A 
HETATM   23  C   UNL     1     -39.851  54.141 -54.734  1.00  0.00     0.010 A 
HETATM   24  C   UNL     1     -40.510  52.973 -54.335  1.00  0.00    -0.055 A 
HETATM   25  C   UNL     1     -41.913  52.977 -54.341  1.00  0.00     0.010 A 
HETATM   26  C   UNL     1     -42.625  54.122 -54.708  1.00  0.00     0.030 A 
BRANCH  24  27
HETATM   27  C   UNL     1     -39.781  51.711 -53.896  1.00  0.00     0.010 C 
HETATM   28  C   UNL     1     -40.410  50.401 -54.382  1.00  0.00     0.015 C 
HETATM   29  C   UNL     1     -39.625  51.680 -52.373  1.00  0.00     0.015 C 
ENDBRANCH  24  27
ENDBRANCH  18  21
ENDBRANCH  16  17
ENDBRANCH  15  16
ENDBRANCH   1  15
BRANCH  13  30
HETATM   30  C   UNL     1     -46.415  61.516 -53.406  1.00  0.00     0.140 C 
BRANCH  30  31
HETATM   31  C   UNL     1     -47.446  62.560 -53.753  1.00  0.00     0.220 C 
HETATM   32  N   UNL     1     -48.744  62.132 -53.588  1.00  0.00    -0.356 N 
HETATM   33  H   UNL     1     -48.899  61.190 -53.257  1.00  0.00     0.162 HD
HETATM   34  O   UNL     1     -47.134  63.669 -54.170  1.00  0.00    -0.274 OA
BRANCH  32  35
HETATM   35  C   UNL     1     -49.877  62.866 -54.139  1.00  0.00     0.084 C 
HETATM   36  C   UNL     1     -51.004  61.900 -54.536  1.00  0.00     0.025 C 
HETATM   37  C   UNL     1     -51.661  61.250 -53.319  1.00  0.00     0.002 C 
HETATM   38  C   UNL     1     -52.173  62.296 -52.334  1.00  0.00     0.000 C 
HETATM   39  C   UNL     1     -51.081  63.281 -51.925  1.00  0.00     0.002 C 
HETATM   40  C   UNL     1     -50.388  63.910 -53.137  1.00  0.00     0.025 C 
ENDBRANCH  32  35
ENDBRANCH  30  31
ENDBRANCH  13  30
TORSDOF 8
ENDMDL
MODEL 8
REMARK VINA RESULT:      -8.8      2.617      5.844
REMARK  8 active torsions:
REMARK  status: ('A' for Active; 'I' for Inactive)
REMARK    1  A    between atoms: C_2  and  C_3 
REMARK    2  A    between atoms: C_6  and  N_7 
REMARK       I    between atoms: N_7  and  C_8 
REMARK    3  A    between atoms: C_8  and  C_9 
REMARK    4  A    between atoms: C_9  and  S_10 
REMARK    5  A    between atoms: S_10  and  C_11 
REMARK    6  A    between atoms: C_23  and  C_24 
REMARK    7  A    between atoms: C_24  and  C_25 
REMARK       I    between atoms: C_25  and  N_26 
REMARK    8  A    between atoms: N_26  and  C_27 
ROOT
HETATM    1  C   UNL     1     -43.081  59.448 -59.937  1.00  0.00     0.178 A 
HETATM    2  N   UNL     1     -43.051  60.013 -58.671  1.00  0.00    -0.241 N 
HETATM    3  C   UNL     1     -42.286  61.100 -58.405  1.00  0.00     0.147 A 
HETATM    4  N   UNL     1     -42.222  61.504 -57.174  1.00  0.00    -0.256 NA
HETATM    5  C   UNL     1     -41.579  61.727 -59.521  1.00  0.00     0.039 A 
HETATM    6  C   UNL     1     -41.710  61.118 -60.772  1.00  0.00     0.073 A 
HETATM    7  C   UNL     1     -40.812  62.883 -59.345  1.00  0.00     0.018 A 
HETATM    8  C   UNL     1     -40.155  63.438 -60.442  1.00  0.00     0.001 A 
HETATM    9  C   UNL     1     -40.263  62.835 -61.695  1.00  0.00     0.002 A 
HETATM   10  C   UNL     1     -41.035  61.679 -61.857  1.00  0.00     0.032 A 
HETATM   11  C   UNL     1     -43.679  59.653 -57.500  1.00  0.00     0.257 A 
HETATM   12  O   UNL     1     -44.541  58.808 -57.319  1.00  0.00    -0.270 OA
HETATM   13  C   UNL     1     -43.124  60.574 -56.431  1.00  0.00     0.211 A 
HETATM   14  N   UNL     1     -42.472  59.950 -60.965  1.00  0.00    -0.223 NA
ENDROOT
BRANCH   1  15
HETATM   15  S   UNL     1     -43.912  57.937 -60.197  1.00  0.00    -0.082 SA
BRANCH  15  16
HETATM   16  C   UNL     1     -42.643  56.785 -59.619  1.00  0.00     0.185 C 
BRANCH  16  17
HETATM   17  C   UNL     1     -43.041  55.957 -58.403  1.00  0.00     0.231 C 
HETATM   18  N   UNL     1     -42.404  56.291 -57.224  1.00  0.00    -0.327 N 
HETATM   19  H   UNL     1     -41.860  57.150 -57.222  1.00  0.00     0.169 HD
HETATM   20  O   UNL     1     -43.804  55.005 -58.555  1.00  0.00    -0.272 OA
BRANCH  18  21
HETATM   21  C   UNL     1     -42.404  55.576 -56.009  1.00  0.00     0.034 A 
HETATM   22  C   UNL     1     -41.428  54.654 -55.639  1.00  0.00     0.030 A 
HETATM   23  C   UNL     1     -41.468  54.040 -54.379  1.00  0.00     0.010 A 
HETATM   24  C   UNL     1     -42.476  54.345 -53.457  1.00  0.00    -0.055 A 
HETATM   25  C   UNL     1     -43.471  55.253 -53.849  1.00  0.00     0.010 A 
HETATM   26  C   UNL     1     -43.438  55.852 -55.111  1.00  0.00     0.030 A 
BRANCH  24  27
HETATM   27  C   UNL     1     -42.538  53.744 -52.060  1.00  0.00     0.010 C 
HETATM   28  C   UNL     1     -43.533  54.420 -51.111  1.00  0.00     0.015 C 
HETATM   29  C   UNL     1     -41.147  53.718 -51.421  1.00  0.00     0.015 C 
ENDBRANCH  24  27
ENDBRANCH  18  21
ENDBRANCH  16  17
ENDBRANCH  15  16
ENDBRANCH   1  15
BRANCH  13  30
HETATM   30  C   UNL     1     -42.341  59.752 -55.428  1.00  0.00     0.140 C 
BRANCH  30  31
HETATM   31  C   UNL     1     -43.039  59.704 -54.094  1.00  0.00     0.220 C 
HETATM   32  N   UNL     1     -42.188  59.829 -53.019  1.00  0.00    -0.356 N 
HETATM   33  H   UNL     1     -41.201  59.942 -53.202  1.00  0.00     0.162 HD
HETATM   34  O   UNL     1     -44.250  59.539 -53.998  1.00  0.00    -0.274 OA
BRANCH  32  35
HETATM   35  C   UNL     1     -42.609  59.518 -51.658  1.00  0.00     0.084 C 
HETATM   36  C   UNL     1     -42.672  57.997 -51.448  1.00  0.00     0.025 C 
HETATM   37  C   UNL     1     -41.284  57.356 -51.462  1.00  0.00     0.002 C 
HETATM   38  C   UNL     1     -40.359  58.002 -50.436  1.00  0.00     0.000 C 
HETATM   39  C   UNL     1     -40.281  59.516 -50.608  1.00  0.00     0.002 C 
HETATM   40  C   UNL     1     -41.667  60.166 -50.635  1.00  0.00     0.025 C 
ENDBRANCH  32  35
ENDBRANCH  30  31
ENDBRANCH  13  30
TORSDOF 8
ENDMDL
MODEL 9
REMARK VINA RESULT:      -8.7      3.745      6.425
REMARK  8 active torsions:
REMARK  status: ('A' for Active; 'I' for Inactive)
REMARK    1  A    between atoms: C_2  and  C_3 
REMARK    2  A    between atoms: C_6  and  N_7 
REMARK       I    between atoms: N_7  and  C_8 
REMARK    3  A    between atoms: C_8  and  C_9 
REMARK    4  A    between atoms: C_9  and  S_10 
REMARK    5  A    between atoms: S_10  and  C_11 
REMARK    6  A    between atoms: C_23  and  C_24 
REMARK    7  A    between atoms: C_24  and  C_25 
REMARK       I    between atoms: C_25  and  N_26 
REMARK    8  A    between atoms: N_26  and  C_27 
ROOT
HETATM    1  C   UNL     1     -44.475  57.530 -53.207  1.00  0.00     0.178 A 
HETATM    2  N   UNL     1     -44.831  58.672 -53.908  1.00  0.00    -0.241 N 
HETATM    3  C   UNL     1     -44.556  58.799 -55.229  1.00  0.00     0.147 A 
HETATM    4  N   UNL     1     -44.817  59.939 -55.791  1.00  0.00    -0.256 NA
HETATM    5  C   UNL     1     -43.972  57.650 -55.920  1.00  0.00     0.039 A 
HETATM    6  C   UNL     1     -43.696  56.522 -55.142  1.00  0.00     0.073 A 
HETATM    7  C   UNL     1     -43.707  57.676 -57.293  1.00  0.00     0.018 A 
HETATM    8  C   UNL     1     -43.146  56.554 -57.899  1.00  0.00     0.001 A 
HETATM    9  C   UNL     1     -42.851  55.425 -57.136  1.00  0.00     0.002 A 
HETATM   10  C   UNL     1     -43.122  55.411 -55.763  1.00  0.00     0.032 A 
HETATM   11  C   UNL     1     -45.446  59.834 -53.501  1.00  0.00     0.257 A 
HETATM   12  O   UNL     1     -45.961  60.094 -52.426  1.00  0.00    -0.270 OA
HETATM   13  C   UNL     1     -45.418  60.762 -54.700  1.00  0.00     0.211 A 
HETATM   14  N   UNL     1     -43.949  56.480 -53.757  1.00  0.00    -0.223 NA
ENDROOT
BRANCH   1  15
HETATM   15  S   UNL     1     -44.659  57.480 -51.474  1.00  0.00    -0.082 SA
BRANCH  15  16
HETATM   16  C   UNL     1     -42.925  57.322 -50.986  1.00  0.00     0.185 C 
BRANCH  16  17
HETATM   17  C   UNL     1     -42.400  55.892 -50.954  1.00  0.00     0.231 C 
HETATM   18  N   UNL     1     -41.338  55.632 -51.797  1.00  0.00    -0.327 N 
HETATM   19  H   UNL     1     -40.891  56.434 -52.235  1.00  0.00     0.169 HD
HETATM   20  O   UNL     1     -42.996  55.054 -50.280  1.00  0.00    -0.272 OA
BRANCH  18  21
HETATM   21  C   UNL     1     -40.793  54.377 -52.140  1.00  0.00     0.034 A 
HETATM   22  C   UNL     1     -40.212  53.498 -51.230  1.00  0.00     0.030 A 
HETATM   23  C   UNL     1     -39.759  52.238 -51.646  1.00  0.00     0.010 A 
HETATM   24  C   UNL     1     -39.889  51.824 -52.976  1.00  0.00    -0.055 A 
HETATM   25  C   UNL     1     -40.449  52.728 -53.891  1.00  0.00     0.010 A 
HETATM   26  C   UNL     1     -40.886  53.989 -53.478  1.00  0.00     0.030 A 
BRANCH  24  27
HETATM   27  C   UNL     1     -39.458  50.451 -53.469  1.00  0.00     0.010 C 
HETATM   28  C   UNL     1     -40.181  49.962 -54.729  1.00  0.00     0.015 C 
HETATM   29  C   UNL     1     -39.594  49.409 -52.355  1.00  0.00     0.015 C 
ENDBRANCH  24  27
ENDBRANCH  18  21
ENDBRANCH  16  17
ENDBRANCH  15  16
ENDBRANCH   1  15
BRANCH  13  30
HETATM   30  C   UNL     1     -44.541  61.955 -54.381  1.00  0.00     0.140 C 
BRANCH  30  31
HETATM   31  C   UNL     1     -43.520  61.618 -53.325  1.00  0.00     0.220 C 
HETATM   32  N   UNL     1     -43.889  62.003 -52.056  1.00  0.00    -0.356 N 
HETATM   33  H   UNL     1     -44.782  62.460 -51.935  1.00  0.00     0.162 HD
HETATM   34  O   UNL     1     -42.454  61.079 -53.599  1.00  0.00    -0.274 OA
BRANCH  32  35
HETATM   35  C   UNL     1     -42.938  62.041 -50.952  1.00  0.00     0.084 C 
HETATM   36  C   UNL     1     -42.857  63.455 -50.357  1.00  0.00     0.025 C 
HETATM   37  C   UNL     1     -44.142  63.848 -49.629  1.00  0.00     0.002 C 
HETATM   38  C   UNL     1     -44.507  62.833 -48.551  1.00  0.00     0.000 C 
HETATM   39  C   UNL     1     -44.585  61.413 -49.104  1.00  0.00     0.002 C 
HETATM   40  C   UNL     1     -43.319  61.021 -49.870  1.00  0.00     0.025 C 
ENDBRANCH  32  35
ENDBRANCH  30  31
ENDBRANCH  13  30
TORSDOF 8
ENDMDL
MODEL 10
REMARK VINA RESULT:      -8.7      2.921      4.805
REMARK  8 active torsions:
REMARK  status: ('A' for Active; 'I' for Inactive)
REMARK    1  A    between atoms: C_2  and  C_3 
REMARK    2  A    between atoms: C_6  and  N_7 
REMARK       I    between atoms: N_7  and  C_8 
REMARK    3  A    between atoms: C_8  and  C_9 
REMARK    4  A    between atoms: C_9  and  S_10 
REMARK    5  A    between atoms: S_10  and  C_11 
REMARK    6  A    between atoms: C_23  and  C_24 
REMARK    7  A    between atoms: C_24  and  C_25 
REMARK       I    between atoms: C_25  and  N_26 
REMARK    8  A    between atoms: N_26  and  C_27 
ROOT
HETATM    1  C   UNL     1     -42.095  59.775 -51.997  1.00  0.00     0.178 A 
HETATM    2  N   UNL     1     -42.083  59.619 -53.375  1.00  0.00    -0.241 N 
HETATM    3  C   UNL     1     -42.670  60.530 -54.190  1.00  0.00     0.147 A 
HETATM    4  N   UNL     1     -42.717  60.260 -55.458  1.00  0.00    -0.256 NA
HETATM    5  C   UNL     1     -43.218  61.740 -53.580  1.00  0.00     0.039 A 
HETATM    6  C   UNL     1     -43.137  61.835 -52.187  1.00  0.00     0.073 A 
HETATM    7  C   UNL     1     -43.792  62.756 -54.352  1.00  0.00     0.018 A 
HETATM    8  C   UNL     1     -44.303  63.886 -53.718  1.00  0.00     0.001 A 
HETATM    9  C   UNL     1     -44.244  63.992 -52.328  1.00  0.00     0.002 A 
HETATM   10  C   UNL     1     -43.666  62.969 -51.568  1.00  0.00     0.032 A 
HETATM   11  C   UNL     1     -41.571  58.621 -54.172  1.00  0.00     0.257 A 
HETATM   12  O   UNL     1     -40.869  57.673 -53.860  1.00  0.00    -0.270 OA
HETATM   13  C   UNL     1     -42.012  58.950 -55.586  1.00  0.00     0.211 A 
HETATM   14  N   UNL     1     -42.571  60.820 -51.394  1.00  0.00    -0.223 NA
ENDROOT
BRANCH   1  15
HETATM   15  S   UNL     1     -41.514  58.491 -50.971  1.00  0.00    -0.082 SA
BRANCH  15  16
HETATM   16  C   UNL     1     -42.940  57.381 -51.030  1.00  0.00     0.185 C 
BRANCH  16  17
HETATM   17  C   UNL     1     -42.590  55.900 -51.110  1.00  0.00     0.231 C 
HETATM   18  N   UNL     1     -41.315  55.615 -51.556  1.00  0.00    -0.327 N 
HETATM   19  H   UNL     1     -40.669  56.397 -51.633  1.00  0.00     0.169 HD
HETATM   20  O   UNL     1     -43.466  55.068 -50.877  1.00  0.00    -0.272 OA
BRANCH  18  21
HETATM   21  C   UNL     1     -40.791  54.361 -51.933  1.00  0.00     0.034 A 
HETATM   22  C   UNL     1     -40.310  53.409 -51.039  1.00  0.00     0.030 A 
HETATM   23  C   UNL     1     -39.872  52.158 -51.496  1.00  0.00     0.010 A 
HETATM   24  C   UNL     1     -39.919  51.826 -52.855  1.00  0.00    -0.055 A 
HETATM   25  C   UNL     1     -40.378  52.803 -53.752  1.00  0.00     0.010 A 
HETATM   26  C   UNL     1     -40.800  54.054 -53.296  1.00  0.00     0.030 A 
BRANCH  24  27
HETATM   27  C   UNL     1     -39.502  50.467 -53.397  1.00  0.00     0.010 C 
HETATM   28  C   UNL     1     -40.314  49.977 -54.601  1.00  0.00     0.015 C 
HETATM   29  C   UNL     1     -39.528  49.412 -52.288  1.00  0.00     0.015 C 
ENDBRANCH  24  27
ENDBRANCH  18  21
ENDBRANCH  16  17
ENDBRANCH  15  16
ENDBRANCH   1  15
BRANCH  13  30
HETATM   30  C   UNL     1     -42.960  57.874 -56.072  1.00  0.00     0.140 C 
BRANCH  30  31
HETATM   31  C   UNL     1     -43.799  58.363 -57.225  1.00  0.00     0.220 C 
HETATM   32  N   UNL     1     -43.094  59.099 -58.149  1.00  0.00    -0.356 N 
HETATM   33  H   UNL     1     -42.106  59.245 -57.992  1.00  0.00     0.162 HD
HETATM   34  O   UNL     1     -45.003  58.140 -57.295  1.00  0.00    -0.274 OA
BRANCH  32  35
HETATM   35  C   UNL     1     -43.758  59.903 -59.168  1.00  0.00     0.084 C 
HETATM   36  C   UNL     1     -43.379  61.384 -59.018  1.00  0.00     0.025 C 
HETATM   37  C   UNL     1     -41.915  61.643 -59.373  1.00  0.00     0.002 C 
HETATM   38  C   UNL     1     -41.582  61.143 -60.775  1.00  0.00     0.000 C 
HETATM   39  C   UNL     1     -41.957  59.676 -60.964  1.00  0.00     0.002 C 
HETATM   40  C   UNL     1     -43.410  59.396 -60.574  1.00  0.00     0.025 C 
ENDBRANCH  32  35
ENDBRANCH  30  31
ENDBRANCH  13  30
TORSDOF 8
ENDMDL
