MODEL 1
REMARK VINA RESULT:      -8.7      0.000      0.000
REMARK  9 active torsions:
REMARK  status: ('A' for Active; 'I' for Inactive)
REMARK       I    between atoms: C_2  and  N_3 
REMARK    1  A    between atoms: N_3  and  C_4 
REMARK    2  A    between atoms: C_4  and  C_5 
REMARK    3  A    between atoms: C_5  and  N_6 
REMARK       I    between atoms: N_6  and  C_7 
REMARK    4  A    between atoms: C_7  and  C_8 
REMARK    5  A    between atoms: C_8  and  C_9 
REMARK    6  A    between atoms: C_13  and  C_14 
REMARK    7  A    between atoms: C_14  and  O_15 
REMARK    8  A    between atoms: C_17  and  O_18 
REMARK    9  A    between atoms: C_25  and  C_26 
ROOT
HETATM    1  C   UNL     1     -43.262  56.461 -57.246  1.00  0.00     0.056 C 
HETATM    2  C   UNL     1     -43.438  58.032 -57.467  1.00  0.00    -0.030 C 
HETATM    3  C   UNL     1     -42.200  58.592 -58.244  1.00  0.00     0.016 C 
HETATM    4  C   UNL     1     -43.530  58.850 -56.107  1.00  0.00     0.012 C 
HETATM    5  C   UNL     1     -44.938  58.921 -55.376  1.00  0.00     0.008 C 
HETATM    6  C   UNL     1     -44.987  60.298 -54.638  1.00  0.00     0.020 C 
HETATM    7  C   UNL     1     -46.114  58.931 -56.406  1.00  0.00     0.128 C 
HETATM    8  C   UNL     1     -45.659  59.324 -57.808  1.00  0.00     0.033 C 
HETATM    9  C   UNL     1     -44.686  58.291 -58.369  1.00  0.00     0.013 C 
HETATM   10  C   UNL     1     -42.326  58.568 -55.169  1.00  0.00     0.054 C 
HETATM   11  C   UNL     1     -41.983  57.125 -55.143  1.00  0.00     0.010 A 
HETATM   12  C   UNL     1     -42.349  56.177 -56.072  1.00  0.00     0.054 A 
HETATM   13  N   UNL     1     -41.882  54.897 -55.801  1.00  0.00    -0.244 NA
HETATM   14  C   UNL     1     -41.266  54.873 -54.627  1.00  0.00     0.108 A 
HETATM   15  S   UNL     1     -41.056  56.428 -53.903  1.00  0.00    -0.072 SA
ENDROOT
BRANCH   1  16
HETATM   16  C   UNL     1     -42.812  55.747 -58.535  1.00  0.00     0.114 C 
BRANCH  16  17
HETATM   17  C   UNL     1     -43.927  55.070 -59.309  1.00  0.00     0.218 C 
HETATM   18  N   UNL     1     -44.428  55.828 -60.333  1.00  0.00    -0.359 N 
HETATM   19  H   UNL     1     -43.775  56.490 -60.757  1.00  0.00     0.162 HD
HETATM   20  O   UNL     1     -44.388  53.981 -58.976  1.00  0.00    -0.274 OA
BRANCH  18  21
HETATM   21  C   UNL     1     -45.633  55.483 -61.053  1.00  0.00     0.142 C 
BRANCH  21  22
HETATM   22  C   UNL     1     -46.888  56.188 -60.536  1.00  0.00     0.142 C 
BRANCH  22  23
HETATM   23  N   UNL     1     -47.287  57.289 -61.403  1.00  0.00    -0.360 N 
HETATM   24  C   UNL     1     -48.398  57.207 -62.209  1.00  0.00     0.213 C 
HETATM   25  C   UNL     1     -48.601  58.390 -63.117  1.00  0.00     0.117 C 
HETATM   26  O   UNL     1     -49.167  56.251 -62.213  1.00  0.00    -0.274 OA
HETATM   27  H   UNL     1     -46.637  58.055 -61.520  1.00  0.00     0.162 HD
ENDBRANCH  22  23
ENDBRANCH  21  22
ENDBRANCH  18  21
ENDBRANCH  16  17
ENDBRANCH   1  16
BRANCH   5  28
HETATM   28  C   UNL     1     -45.165  57.860 -54.268  1.00  0.00     0.176 C 
BRANCH  28  29
HETATM   29  O   UNL     1     -45.339  56.552 -54.776  1.00  0.00    -0.400 OA
HETATM   30  H   UNL     1     -45.788  56.671 -55.642  1.00  0.00     0.209 HD
ENDBRANCH  28  29
ENDBRANCH   5  28
BRANCH  14  31
HETATM   31  C   UNL     1     -40.763  53.656 -53.964  1.00  0.00    -0.000 A 
HETATM   32  C   UNL     1     -40.579  53.649 -52.573  1.00  0.00     0.014 A 
HETATM   33  C   UNL     1     -40.062  52.527 -51.919  1.00  0.00     0.001 A 
HETATM   34  C   UNL     1     -39.722  51.389 -52.645  1.00  0.00     0.000 A 
HETATM   35  C   UNL     1     -39.896  51.373 -54.025  1.00  0.00     0.001 A 
HETATM   36  C   UNL     1     -40.407  52.499 -54.679  1.00  0.00     0.014 A 
ENDBRANCH  14  31
BRANCH   7  37
HETATM   37  O   UNL     1     -46.753  57.651 -56.481  1.00  0.00    -0.395 OA
HETATM   38  H   UNL     1     -46.081  57.005 -56.770  1.00  0.00     0.210 HD
ENDBRANCH   7  37
TORSDOF 9
ENDMDL
MODEL 2
REMARK VINA RESULT:      -8.3      3.588      6.886
REMARK  9 active torsions:
REMARK  status: ('A' for Active; 'I' for Inactive)
REMARK       I    between atoms: C_2  and  N_3 
REMARK    1  A    between atoms: N_3  and  C_4 
REMARK    2  A    between atoms: C_4  and  C_5 
REMARK    3  A    between atoms: C_5  and  N_6 
REMARK       I    between atoms: N_6  and  C_7 
REMARK    4  A    between atoms: C_7  and  C_8 
REMARK    5  A    between atoms: C_8  and  C_9 
REMARK    6  A    between atoms: C_13  and  C_14 
REMARK    7  A    between atoms: C_14  and  O_15 
REMARK    8  A    between atoms: C_17  and  O_18 
REMARK    9  A    between atoms: C_25  and  C_26 
ROOT
HETATM    1  C   UNL     1     -42.470  58.928 -55.400  1.00  0.00     0.056 C 
HETATM    2  C   UNL     1     -43.544  59.571 -56.391  1.00  0.00    -0.030 C 
HETATM    3  C   UNL     1     -44.954  59.561 -55.711  1.00  0.00     0.016 C 
HETATM    4  C   UNL     1     -43.692  58.773 -57.758  1.00  0.00     0.012 C 
HETATM    5  C   UNL     1     -42.639  59.068 -58.909  1.00  0.00     0.008 C 
HETATM    6  C   UNL     1     -43.387  58.852 -60.263  1.00  0.00     0.020 C 
HETATM    7  C   UNL     1     -42.179  60.561 -58.891  1.00  0.00     0.128 C 
HETATM    8  C   UNL     1     -43.142  61.459 -58.120  1.00  0.00     0.033 C 
HETATM    9  C   UNL     1     -43.182  61.067 -56.646  1.00  0.00     0.013 C 
HETATM   10  C   UNL     1     -44.000  57.269 -57.530  1.00  0.00     0.054 C 
HETATM   11  C   UNL     1     -43.180  56.706 -56.431  1.00  0.00     0.010 A 
HETATM   12  C   UNL     1     -42.524  57.415 -55.448  1.00  0.00     0.054 A 
HETATM   13  N   UNL     1     -41.832  56.628 -54.537  1.00  0.00    -0.244 NA
HETATM   14  C   UNL     1     -41.883  55.355 -54.900  1.00  0.00     0.108 A 
HETATM   15  S   UNL     1     -42.928  55.038 -56.238  1.00  0.00    -0.072 SA
ENDROOT
BRANCH   1  16
HETATM   16  C   UNL     1     -42.606  59.481 -53.969  1.00  0.00     0.114 C 
BRANCH  16  17
HETATM   17  C   UNL     1     -41.458  59.130 -53.041  1.00  0.00     0.218 C 
HETATM   18  N   UNL     1     -41.851  58.506 -51.888  1.00  0.00    -0.359 N 
HETATM   19  H   UNL     1     -42.708  57.953 -51.950  1.00  0.00     0.162 HD
HETATM   20  O   UNL     1     -40.300  59.465 -53.277  1.00  0.00    -0.274 OA
BRANCH  18  21
HETATM   21  C   UNL     1     -40.963  58.286 -50.768  1.00  0.00     0.142 C 
BRANCH  21  22
HETATM   22  C   UNL     1     -41.073  56.889 -50.154  1.00  0.00     0.142 C 
BRANCH  22  23
HETATM   23  N   UNL     1     -42.369  56.281 -50.420  1.00  0.00    -0.360 N 
HETATM   24  C   UNL     1     -42.680  55.019 -49.970  1.00  0.00     0.213 C 
HETATM   25  C   UNL     1     -44.019  54.504 -50.427  1.00  0.00     0.117 C 
HETATM   26  O   UNL     1     -41.937  54.345 -49.264  1.00  0.00    -0.274 OA
HETATM   27  H   UNL     1     -42.978  56.742 -51.082  1.00  0.00     0.162 HD
ENDBRANCH  22  23
ENDBRANCH  21  22
ENDBRANCH  18  21
ENDBRANCH  16  17
ENDBRANCH   1  16
BRANCH   5  28
HETATM   28  C   UNL     1     -41.425  58.103 -58.960  1.00  0.00     0.176 C 
BRANCH  28  29
HETATM   29  O   UNL     1     -41.412  57.285 -60.114  1.00  0.00    -0.400 OA
HETATM   30  H   UNL     1     -40.715  56.613 -59.943  1.00  0.00     0.209 HD
ENDBRANCH  28  29
ENDBRANCH   5  28
BRANCH  14  31
HETATM   31  C   UNL     1     -41.149  54.260 -54.239  1.00  0.00    -0.000 A 
HETATM   32  C   UNL     1     -40.622  53.212 -55.009  1.00  0.00     0.014 A 
HETATM   33  C   UNL     1     -39.961  52.136 -54.409  1.00  0.00     0.001 A 
HETATM   34  C   UNL     1     -39.810  52.092 -53.026  1.00  0.00     0.000 A 
HETATM   35  C   UNL     1     -40.323  53.120 -52.242  1.00  0.00     0.001 A 
HETATM   36  C   UNL     1     -40.990  54.192 -52.843  1.00  0.00     0.014 A 
ENDBRANCH  14  31
BRANCH   7  37
HETATM   37  O   UNL     1     -40.874  60.700 -58.315  1.00  0.00    -0.395 OA
HETATM   38  H   UNL     1     -40.993  60.889 -57.366  1.00  0.00     0.210 HD
ENDBRANCH   7  37
TORSDOF 9
ENDMDL
MODEL 3
REMARK VINA RESULT:      -8.3      2.726      6.639
REMARK  9 active torsions:
REMARK  status: ('A' for Active; 'I' for Inactive)
REMARK       I    between atoms: C_2  and  N_3 
REMARK    1  A    between atoms: N_3  and  C_4 
REMARK    2  A    between atoms: C_4  and  C_5 
REMARK    3  A    between atoms: C_5  and  N_6 
REMARK       I    between atoms: N_6  and  C_7 
REMARK    4  A    between atoms: C_7  and  C_8 
REMARK    5  A    between atoms: C_8  and  C_9 
REMARK    6  A    between atoms: C_13  and  C_14 
REMARK    7  A    between atoms: C_14  and  O_15 
REMARK    8  A    between atoms: C_17  and  O_18 
REMARK    9  A    between atoms: C_25  and  C_26 
ROOT
HETATM    1  C   UNL     1     -43.416  56.830 -57.324  1.00  0.00     0.056 C 
HETATM    2  C   UNL     1     -43.678  57.197 -58.855  1.00  0.00    -0.030 C 
HETATM    3  C   UNL     1     -42.335  57.096 -59.653  1.00  0.00     0.016 C 
HETATM    4  C   UNL     1     -44.220  58.677 -59.061  1.00  0.00     0.012 C 
HETATM    5  C   UNL     1     -45.775  58.933 -58.864  1.00  0.00     0.008 C 
HETATM    6  C   UNL     1     -46.160  60.100 -59.829  1.00  0.00     0.020 C 
HETATM    7  C   UNL     1     -46.617  57.694 -59.310  1.00  0.00     0.128 C 
HETATM    8  C   UNL     1     -45.835  56.755 -60.223  1.00  0.00     0.033 C 
HETATM    9  C   UNL     1     -44.648  56.147 -59.480  1.00  0.00     0.013 C 
HETATM   10  C   UNL     1     -43.299  59.738 -58.401  1.00  0.00     0.054 C 
HETATM   11  C   UNL     1     -42.837  59.299 -57.062  1.00  0.00     0.010 A 
HETATM   12  C   UNL     1     -42.839  58.011 -56.573  1.00  0.00     0.054 A 
HETATM   13  N   UNL     1     -42.341  57.887 -55.282  1.00  0.00    -0.244 NA
HETATM   14  C   UNL     1     -42.073  59.082 -54.777  1.00  0.00     0.108 A 
HETATM   15  S   UNL     1     -42.223  60.381 -55.906  1.00  0.00    -0.072 SA
ENDROOT
BRANCH   1  16
HETATM   16  C   UNL     1     -42.561  55.557 -57.176  1.00  0.00     0.114 C 
BRANCH  16  17
HETATM   17  C   UNL     1     -42.915  54.688 -55.984  1.00  0.00     0.218 C 
HETATM   18  N   UNL     1     -42.219  54.999 -54.847  1.00  0.00    -0.359 N 
HETATM   19  H   UNL     1     -41.920  55.972 -54.759  1.00  0.00     0.162 HD
HETATM   20  O   UNL     1     -43.690  53.739 -56.073  1.00  0.00    -0.274 OA
BRANCH  18  21
HETATM   21  C   UNL     1     -42.227  54.167 -53.665  1.00  0.00     0.142 C 
BRANCH  21  22
HETATM   22  C   UNL     1     -40.880  53.512 -53.357  1.00  0.00     0.142 C 
BRANCH  22  23
HETATM   23  N   UNL     1     -40.734  52.229 -54.031  1.00  0.00    -0.360 N 
HETATM   24  C   UNL     1     -39.880  51.259 -53.561  1.00  0.00     0.213 C 
HETATM   25  C   UNL     1     -39.773  50.040 -54.438  1.00  0.00     0.117 C 
HETATM   26  O   UNL     1     -39.237  51.364 -52.521  1.00  0.00    -0.274 OA
HETATM   27  H   UNL     1     -41.155  52.127 -54.945  1.00  0.00     0.162 HD
ENDBRANCH  22  23
ENDBRANCH  21  22
ENDBRANCH  18  21
ENDBRANCH  16  17
ENDBRANCH   1  16
BRANCH   5  28
HETATM   28  C   UNL     1     -46.193  59.422 -57.452  1.00  0.00     0.176 C 
BRANCH  28  29
HETATM   29  O   UNL     1     -47.591  59.579 -57.308  1.00  0.00    -0.400 OA
HETATM   30  H   UNL     1     -47.969  59.323 -58.178  1.00  0.00     0.209 HD
ENDBRANCH  28  29
ENDBRANCH   5  28
BRANCH  14  31
HETATM   31  C   UNL     1     -41.655  59.334 -53.386  1.00  0.00    -0.000 A 
HETATM   32  C   UNL     1     -40.438  58.814 -52.920  1.00  0.00     0.014 A 
HETATM   33  C   UNL     1     -40.034  58.997 -51.595  1.00  0.00     0.001 A 
HETATM   34  C   UNL     1     -40.839  59.709 -50.710  1.00  0.00     0.000 A 
HETATM   35  C   UNL     1     -42.049  60.235 -51.149  1.00  0.00     0.001 A 
HETATM   36  C   UNL     1     -42.456  60.045 -52.474  1.00  0.00     0.014 A 
ENDBRANCH  14  31
BRANCH   7  37
HETATM   37  O   UNL     1     -47.082  56.944 -58.182  1.00  0.00    -0.395 OA
HETATM   38  H   UNL     1     -47.055  57.536 -57.407  1.00  0.00     0.210 HD
ENDBRANCH   7  37
TORSDOF 9
ENDMDL
MODEL 4
REMARK VINA RESULT:      -8.3      2.837      6.320
REMARK  9 active torsions:
REMARK  status: ('A' for Active; 'I' for Inactive)
REMARK       I    between atoms: C_2  and  N_3 
REMARK    1  A    between atoms: N_3  and  C_4 
REMARK    2  A    between atoms: C_4  and  C_5 
REMARK    3  A    between atoms: C_5  and  N_6 
REMARK       I    between atoms: N_6  and  C_7 
REMARK    4  A    between atoms: C_7  and  C_8 
REMARK    5  A    between atoms: C_8  and  C_9 
REMARK    6  A    between atoms: C_13  and  C_14 
REMARK    7  A    between atoms: C_14  and  O_15 
REMARK    8  A    between atoms: C_17  and  O_18 
REMARK    9  A    between atoms: C_25  and  C_26 
ROOT
HETATM    1  C   UNL     1     -43.442  56.800 -57.433  1.00  0.00     0.056 C 
HETATM    2  C   UNL     1     -43.723  57.182 -58.957  1.00  0.00    -0.030 C 
HETATM    3  C   UNL     1     -42.391  57.084 -59.774  1.00  0.00     0.016 C 
HETATM    4  C   UNL     1     -44.263  58.665 -59.144  1.00  0.00     0.012 C 
HETATM    5  C   UNL     1     -45.815  58.924 -58.924  1.00  0.00     0.008 C 
HETATM    6  C   UNL     1     -46.208  60.100 -59.874  1.00  0.00     0.020 C 
HETATM    7  C   UNL     1     -46.666  57.692 -59.370  1.00  0.00     0.128 C 
HETATM    8  C   UNL     1     -45.899  56.758 -60.300  1.00  0.00     0.033 C 
HETATM    9  C   UNL     1     -44.704  56.140 -59.579  1.00  0.00     0.013 C 
HETATM   10  C   UNL     1     -43.331  59.717 -58.486  1.00  0.00     0.054 C 
HETATM   11  C   UNL     1     -42.852  59.266 -57.157  1.00  0.00     0.010 A 
HETATM   12  C   UNL     1     -42.851  57.974 -56.680  1.00  0.00     0.054 A 
HETATM   13  N   UNL     1     -42.337  57.836 -55.397  1.00  0.00    -0.244 NA
HETATM   14  C   UNL     1     -42.059  59.026 -54.885  1.00  0.00     0.108 A 
HETATM   15  S   UNL     1     -42.220  60.335 -56.000  1.00  0.00    -0.072 SA
ENDROOT
BRANCH   1  16
HETATM   16  C   UNL     1     -42.589  55.524 -57.307  1.00  0.00     0.114 C 
BRANCH  16  17
HETATM   17  C   UNL     1     -42.525  54.938 -55.909  1.00  0.00     0.218 C 
HETATM   18  N   UNL     1     -41.271  54.953 -55.361  1.00  0.00    -0.359 N 
HETATM   19  H   UNL     1     -40.653  55.702 -55.682  1.00  0.00     0.162 HD
HETATM   20  O   UNL     1     -43.499  54.419 -55.372  1.00  0.00    -0.274 OA
BRANCH  18  21
HETATM   21  C   UNL     1     -40.933  54.249 -54.145  1.00  0.00     0.142 C 
BRANCH  21  22
HETATM   22  C   UNL     1     -40.965  55.125 -52.891  1.00  0.00     0.142 C 
BRANCH  22  23
HETATM   23  N   UNL     1     -42.260  55.767 -52.711  1.00  0.00    -0.360 N 
HETATM   24  C   UNL     1     -42.652  56.272 -51.494  1.00  0.00     0.213 C 
HETATM   25  C   UNL     1     -44.061  56.802 -51.461  1.00  0.00     0.117 C 
HETATM   26  O   UNL     1     -41.935  56.286 -50.499  1.00  0.00    -0.274 OA
HETATM   27  H   UNL     1     -42.932  55.689 -53.463  1.00  0.00     0.162 HD
ENDBRANCH  22  23
ENDBRANCH  21  22
ENDBRANCH  18  21
ENDBRANCH  16  17
ENDBRANCH   1  16
BRANCH   5  28
HETATM   28  C   UNL     1     -46.212  59.402 -57.503  1.00  0.00     0.176 C 
BRANCH  28  29
HETATM   29  O   UNL     1     -47.608  59.555 -57.336  1.00  0.00    -0.400 OA
HETATM   30  H   UNL     1     -48.001  58.729 -57.695  1.00  0.00     0.209 HD
ENDBRANCH  28  29
ENDBRANCH   5  28
BRANCH  14  31
HETATM   31  C   UNL     1     -41.622  59.266 -53.497  1.00  0.00    -0.000 A 
HETATM   32  C   UNL     1     -40.368  58.798 -53.073  1.00  0.00     0.014 A 
HETATM   33  C   UNL     1     -39.943  58.969 -51.752  1.00  0.00     0.001 A 
HETATM   34  C   UNL     1     -40.763  59.615 -50.832  1.00  0.00     0.000 A 
HETATM   35  C   UNL     1     -42.010  60.088 -51.229  1.00  0.00     0.001 A 
HETATM   36  C   UNL     1     -42.437  59.910 -52.549  1.00  0.00     0.014 A 
ENDBRANCH  14  31
BRANCH   7  37
HETATM   37  O   UNL     1     -47.119  56.933 -58.242  1.00  0.00    -0.395 OA
HETATM   38  H   UNL     1     -46.442  57.016 -57.544  1.00  0.00     0.210 HD
ENDBRANCH   7  37
TORSDOF 9
ENDMDL
MODEL 5
REMARK VINA RESULT:      -8.2      3.678      8.216
REMARK  9 active torsions:
REMARK  status: ('A' for Active; 'I' for Inactive)
REMARK       I    between atoms: C_2  and  N_3 
REMARK    1  A    between atoms: N_3  and  C_4 
REMARK    2  A    between atoms: C_4  and  C_5 
REMARK    3  A    between atoms: C_5  and  N_6 
REMARK       I    between atoms: N_6  and  C_7 
REMARK    4  A    between atoms: C_7  and  C_8 
REMARK    5  A    between atoms: C_8  and  C_9 
REMARK    6  A    between atoms: C_13  and  C_14 
REMARK    7  A    between atoms: C_14  and  O_15 
REMARK    8  A    between atoms: C_17  and  O_18 
REMARK    9  A    between atoms: C_25  and  C_26 
ROOT
HETATM    1  C   UNL     1     -42.617  56.592 -53.259  1.00  0.00     0.056 C 
HETATM    2  C   UNL     1     -43.011  57.340 -51.905  1.00  0.00    -0.030 C 
HETATM    3  C   UNL     1     -44.255  56.638 -51.264  1.00  0.00     0.016 C 
HETATM    4  C   UNL     1     -43.409  58.863 -52.122  1.00  0.00     0.012 C 
HETATM    5  C   UNL     1     -42.238  59.931 -52.225  1.00  0.00     0.008 C 
HETATM    6  C   UNL     1     -42.802  61.267 -51.644  1.00  0.00     0.020 C 
HETATM    7  C   UNL     1     -41.026  59.534 -51.321  1.00  0.00     0.128 C 
HETATM    8  C   UNL     1     -41.407  58.520 -50.246  1.00  0.00     0.033 C 
HETATM    9  C   UNL     1     -41.843  57.202 -50.879  1.00  0.00     0.013 C 
HETATM   10  C   UNL     1     -44.534  59.032 -53.179  1.00  0.00     0.054 C 
HETATM   11  C   UNL     1     -44.316  58.149 -54.351  1.00  0.00     0.010 A 
HETATM   12  C   UNL     1     -43.504  57.037 -54.403  1.00  0.00     0.054 A 
HETATM   13  N   UNL     1     -43.493  56.391 -55.632  1.00  0.00    -0.244 NA
HETATM   14  C   UNL     1     -44.204  57.076 -56.516  1.00  0.00     0.108 A 
HETATM   15  S   UNL     1     -45.070  58.413 -55.849  1.00  0.00    -0.072 SA
ENDROOT
BRANCH   1  16
HETATM   16  C   UNL     1     -42.596  55.062 -53.085  1.00  0.00     0.114 C 
BRANCH  16  17
HETATM   17  C   UNL     1     -41.214  54.461 -52.914  1.00  0.00     0.218 C 
HETATM   18  N   UNL     1     -41.078  53.701 -51.783  1.00  0.00    -0.359 N 
HETATM   19  H   UNL     1     -41.930  53.248 -51.446  1.00  0.00     0.162 HD
HETATM   20  O   UNL     1     -40.289  54.719 -53.679  1.00  0.00    -0.274 OA
BRANCH  18  21
HETATM   21  C   UNL     1     -39.802  53.222 -51.303  1.00  0.00     0.142 C 
BRANCH  21  22
HETATM   22  C   UNL     1     -39.566  51.731 -51.546  1.00  0.00     0.142 C 
BRANCH  22  23
HETATM   23  N   UNL     1     -39.765  51.372 -52.944  1.00  0.00    -0.360 N 
HETATM   24  C   UNL     1     -39.704  50.065 -53.369  1.00  0.00     0.213 C 
HETATM   25  C   UNL     1     -39.825  49.886 -54.859  1.00  0.00     0.117 C 
HETATM   26  O   UNL     1     -39.549  49.110 -52.615  1.00  0.00    -0.274 OA
HETATM   27  H   UNL     1     -39.790  52.120 -53.623  1.00  0.00     0.162 HD
ENDBRANCH  22  23
ENDBRANCH  21  22
ENDBRANCH  18  21
ENDBRANCH  16  17
ENDBRANCH   1  16
BRANCH   5  28
HETATM   28  C   UNL     1     -41.780  60.278 -53.666  1.00  0.00     0.176 C 
BRANCH  28  29
HETATM   29  O   UNL     1     -42.338  61.482 -54.153  1.00  0.00    -0.400 OA
HETATM   30  H   UNL     1     -41.583  62.107 -54.217  1.00  0.00     0.209 HD
ENDBRANCH  28  29
ENDBRANCH   5  28
BRANCH  14  31
HETATM   31  C   UNL     1     -44.300  56.754 -57.952  1.00  0.00    -0.000 A 
HETATM   32  C   UNL     1     -45.257  57.403 -58.747  1.00  0.00     0.014 A 
HETATM   33  C   UNL     1     -45.405  57.089 -60.101  1.00  0.00     0.001 A 
HETATM   34  C   UNL     1     -44.594  56.121 -60.686  1.00  0.00     0.000 A 
HETATM   35  C   UNL     1     -43.638  55.464 -59.918  1.00  0.00     0.001 A 
HETATM   36  C   UNL     1     -43.496  55.775 -58.562  1.00  0.00     0.014 A 
ENDBRANCH  14  31
BRANCH   7  37
HETATM   37  O   UNL     1     -39.953  58.988 -52.097  1.00  0.00    -0.395 OA
HETATM   38  H   UNL     1     -39.170  59.550 -51.948  1.00  0.00     0.210 HD
ENDBRANCH   7  37
TORSDOF 9
ENDMDL
MODEL 6
REMARK VINA RESULT:      -8.2      2.715      4.359
REMARK  9 active torsions:
REMARK  status: ('A' for Active; 'I' for Inactive)
REMARK       I    between atoms: C_2  and  N_3 
REMARK    1  A    between atoms: N_3  and  C_4 
REMARK    2  A    between atoms: C_4  and  C_5 
REMARK    3  A    between atoms: C_5  and  N_6 
REMARK       I    between atoms: N_6  and  C_7 
REMARK    4  A    between atoms: C_7  and  C_8 
REMARK    5  A    between atoms: C_8  and  C_9 
REMARK    6  A    between atoms: C_13  and  C_14 
REMARK    7  A    between atoms: C_14  and  O_15 
REMARK    8  A    between atoms: C_17  and  O_18 
REMARK    9  A    between atoms: C_25  and  C_26 
ROOT
HETATM    1  C   UNL     1     -43.941  59.643 -54.156  1.00  0.00     0.056 C 
HETATM    2  C   UNL     1     -43.978  61.083 -53.468  1.00  0.00    -0.030 C 
HETATM    3  C   UNL     1     -42.881  61.997 -54.110  1.00  0.00     0.016 C 
HETATM    4  C   UNL     1     -43.679  61.040 -51.908  1.00  0.00     0.012 C 
HETATM    5  C   UNL     1     -44.878  60.679 -50.930  1.00  0.00     0.008 C 
HETATM    6  C   UNL     1     -44.607  61.441 -49.594  1.00  0.00     0.020 C 
HETATM    7  C   UNL     1     -46.239  61.217 -51.478  1.00  0.00     0.128 C 
HETATM    8  C   UNL     1     -46.056  62.311 -52.525  1.00  0.00     0.033 C 
HETATM    9  C   UNL     1     -45.353  61.761 -53.762  1.00  0.00     0.013 C 
HETATM   10  C   UNL     1     -42.342  60.321 -51.585  1.00  0.00     0.054 C 
HETATM   11  C   UNL     1     -42.170  59.098 -52.405  1.00  0.00     0.010 A 
HETATM   12  C   UNL     1     -42.835  58.790 -53.571  1.00  0.00     0.054 A 
HETATM   13  N   UNL     1     -42.470  57.575 -54.137  1.00  0.00    -0.244 NA
HETATM   14  C   UNL     1     -41.623  56.936 -53.343  1.00  0.00     0.108 A 
HETATM   15  S   UNL     1     -41.083  57.861 -51.988  1.00  0.00    -0.072 SA
ENDROOT
BRANCH   1  16
HETATM   16  C   UNL     1     -43.865  59.742 -55.692  1.00  0.00     0.114 C 
BRANCH  16  17
HETATM   17  C   UNL     1     -44.800  58.807 -56.436  1.00  0.00     0.218 C 
HETATM   18  N   UNL     1     -44.743  58.937 -57.797  1.00  0.00    -0.359 N 
HETATM   19  H   UNL     1     -43.848  59.251 -58.178  1.00  0.00     0.162 HD
HETATM   20  O   UNL     1     -45.594  58.075 -55.851  1.00  0.00    -0.274 OA
BRANCH  18  21
HETATM   21  C   UNL     1     -45.697  58.317 -58.689  1.00  0.00     0.142 C 
BRANCH  21  22
HETATM   22  C   UNL     1     -45.060  57.428 -59.759  1.00  0.00     0.142 C 
BRANCH  22  23
HETATM   23  N   UNL     1     -44.911  56.053 -59.302  1.00  0.00    -0.360 N 
HETATM   24  C   UNL     1     -44.786  55.008 -60.187  1.00  0.00     0.213 C 
HETATM   25  C   UNL     1     -44.750  53.646 -59.546  1.00  0.00     0.117 C 
HETATM   26  O   UNL     1     -44.721  55.150 -61.404  1.00  0.00    -0.274 OA
HETATM   27  H   UNL     1     -45.063  55.864 -58.320  1.00  0.00     0.162 HD
ENDBRANCH  22  23
ENDBRANCH  21  22
ENDBRANCH  18  21
ENDBRANCH  16  17
ENDBRANCH   1  16
BRANCH   5  28
HETATM   28  C   UNL     1     -44.981  59.184 -50.529  1.00  0.00     0.176 C 
BRANCH  28  29
HETATM   29  O   UNL     1     -45.867  58.955 -49.451  1.00  0.00    -0.400 OA
HETATM   30  H   UNL     1     -46.002  57.982 -49.432  1.00  0.00     0.209 HD
ENDBRANCH  28  29
ENDBRANCH   5  28
BRANCH  14  31
HETATM   31  C   UNL     1     -41.132  55.564 -53.565  1.00  0.00    -0.000 A 
HETATM   32  C   UNL     1     -40.636  55.198 -54.826  1.00  0.00     0.014 A 
HETATM   33  C   UNL     1     -40.205  53.893 -55.082  1.00  0.00     0.001 A 
HETATM   34  C   UNL     1     -40.258  52.930 -54.078  1.00  0.00     0.000 A 
HETATM   35  C   UNL     1     -40.745  53.269 -52.820  1.00  0.00     0.001 A 
HETATM   36  C   UNL     1     -41.182  54.573 -52.568  1.00  0.00     0.014 A 
ENDBRANCH  14  31
BRANCH   7  37
HETATM   37  O   UNL     1     -47.023  60.166 -52.056  1.00  0.00    -0.395 OA
HETATM   38  H   UNL     1     -47.086  59.452 -51.394  1.00  0.00     0.210 HD
ENDBRANCH   7  37
TORSDOF 9
ENDMDL
MODEL 7
REMARK VINA RESULT:      -8.0      3.714      8.118
REMARK  9 active torsions:
REMARK  status: ('A' for Active; 'I' for Inactive)
REMARK       I    between atoms: C_2  and  N_3 
REMARK    1  A    between atoms: N_3  and  C_4 
REMARK    2  A    between atoms: C_4  and  C_5 
REMARK    3  A    between atoms: C_5  and  N_6 
REMARK       I    between atoms: N_6  and  C_7 
REMARK    4  A    between atoms: C_7  and  C_8 
REMARK    5  A    between atoms: C_8  and  C_9 
REMARK    6  A    between atoms: C_13  and  C_14 
REMARK    7  A    between atoms: C_14  and  O_15 
REMARK    8  A    between atoms: C_17  and  O_18 
REMARK    9  A    between atoms: C_25  and  C_26 
ROOT
HETATM    1  C   UNL     1     -42.553  58.425 -53.499  1.00  0.00     0.056 C 
HETATM    2  C   UNL     1     -41.304  57.823 -52.710  1.00  0.00    -0.030 C 
HETATM    3  C   UNL     1     -39.983  58.459 -53.260  1.00  0.00     0.016 C 
HETATM    4  C   UNL     1     -41.156  56.250 -52.877  1.00  0.00     0.012 C 
HETATM    5  C   UNL     1     -42.037  55.316 -51.942  1.00  0.00     0.008 C 
HETATM    6  C   UNL     1     -41.209  54.013 -51.705  1.00  0.00     0.020 C 
HETATM    7  C   UNL     1     -42.255  55.963 -50.536  1.00  0.00     0.128 C 
HETATM    8  C   UNL     1     -41.239  57.060 -50.234  1.00  0.00     0.033 C 
HETATM    9  C   UNL     1     -41.400  58.226 -51.205  1.00  0.00     0.013 C 
HETATM   10  C   UNL     1     -41.112  55.818 -54.367  1.00  0.00     0.054 C 
HETATM   11  C   UNL     1     -42.110  56.557 -55.177  1.00  0.00     0.010 A 
HETATM   12  C   UNL     1     -42.734  57.737 -54.836  1.00  0.00     0.054 A 
HETATM   13  N   UNL     1     -43.624  58.212 -55.791  1.00  0.00    -0.244 NA
HETATM   14  C   UNL     1     -43.742  57.341 -56.782  1.00  0.00     0.108 A 
HETATM   15  S   UNL     1     -42.638  56.015 -56.697  1.00  0.00    -0.072 SA
ENDROOT
BRANCH   1  16
HETATM   16  C   UNL     1     -42.467  59.958 -53.629  1.00  0.00     0.114 C 
BRANCH  16  17
HETATM   17  C   UNL     1     -43.614  60.715 -52.986  1.00  0.00     0.218 C 
HETATM   18  N   UNL     1     -44.839  60.423 -53.523  1.00  0.00    -0.359 N 
HETATM   19  H   UNL     1     -44.940  59.486 -53.918  1.00  0.00     0.162 HD
HETATM   20  O   UNL     1     -43.431  61.575 -52.129  1.00  0.00    -0.274 OA
BRANCH  18  21
HETATM   21  C   UNL     1     -46.032  61.183 -53.225  1.00  0.00     0.142 C 
BRANCH  21  22
HETATM   22  C   UNL     1     -46.822  60.655 -52.027  1.00  0.00     0.142 C 
BRANCH  22  23
HETATM   23  N   UNL     1     -46.252  61.100 -50.763  1.00  0.00    -0.360 N 
HETATM   24  C   UNL     1     -45.700  60.213 -49.868  1.00  0.00     0.213 C 
HETATM   25  C   UNL     1     -45.257  60.830 -48.569  1.00  0.00     0.117 C 
HETATM   26  O   UNL     1     -45.582  59.011 -50.085  1.00  0.00    -0.274 OA
HETATM   27  H   UNL     1     -46.416  62.058 -50.485  1.00  0.00     0.162 HD
ENDBRANCH  22  23
ENDBRANCH  21  22
ENDBRANCH  18  21
ENDBRANCH  16  17
ENDBRANCH   1  16
BRANCH   5  28
HETATM   28  C   UNL     1     -43.378  54.836 -52.558  1.00  0.00     0.176 C 
BRANCH  28  29
HETATM   29  O   UNL     1     -44.095  53.957 -51.715  1.00  0.00    -0.400 OA
HETATM   30  H   UNL     1     -43.603  53.107 -51.753  1.00  0.00     0.209 HD
ENDBRANCH  28  29
ENDBRANCH   5  28
BRANCH  14  31
HETATM   31  C   UNL     1     -44.698  57.458 -57.899  1.00  0.00    -0.000 A 
HETATM   32  C   UNL     1     -45.887  58.181 -57.722  1.00  0.00     0.014 A 
HETATM   33  C   UNL     1     -46.835  58.274 -58.745  1.00  0.00     0.001 A 
HETATM   34  C   UNL     1     -46.608  57.648 -59.967  1.00  0.00     0.000 A 
HETATM   35  C   UNL     1     -45.436  56.926 -60.166  1.00  0.00     0.001 A 
HETATM   36  C   UNL     1     -44.491  56.828 -59.139  1.00  0.00     0.014 A 
ENDBRANCH  14  31
BRANCH   7  37
HETATM   37  O   UNL     1     -43.570  56.519 -50.414  1.00  0.00    -0.395 OA
HETATM   38  H   UNL     1     -43.631  57.263 -51.043  1.00  0.00     0.210 HD
ENDBRANCH   7  37
TORSDOF 9
ENDMDL
MODEL 8
REMARK VINA RESULT:      -7.9      3.811      6.553
REMARK  9 active torsions:
REMARK  status: ('A' for Active; 'I' for Inactive)
REMARK       I    between atoms: C_2  and  N_3 
REMARK    1  A    between atoms: N_3  and  C_4 
REMARK    2  A    between atoms: C_4  and  C_5 
REMARK    3  A    between atoms: C_5  and  N_6 
REMARK       I    between atoms: N_6  and  C_7 
REMARK    4  A    between atoms: C_7  and  C_8 
REMARK    5  A    between atoms: C_8  and  C_9 
REMARK    6  A    between atoms: C_13  and  C_14 
REMARK    7  A    between atoms: C_14  and  O_15 
REMARK    8  A    between atoms: C_17  and  O_18 
REMARK    9  A    between atoms: C_25  and  C_26 
ROOT
HETATM    1  C   UNL     1     -44.400  58.983 -55.368  1.00  0.00     0.056 C 
HETATM    2  C   UNL     1     -45.077  59.729 -56.606  1.00  0.00    -0.030 C 
HETATM    3  C   UNL     1     -46.476  59.089 -56.899  1.00  0.00     0.016 C 
HETATM    4  C   UNL     1     -44.234  59.613 -57.947  1.00  0.00     0.012 C 
HETATM    5  C   UNL     1     -43.028  60.625 -58.158  1.00  0.00     0.008 C 
HETATM    6  C   UNL     1     -42.913  60.866 -59.697  1.00  0.00     0.020 C 
HETATM    7  C   UNL     1     -43.334  62.015 -57.514  1.00  0.00     0.128 C 
HETATM    8  C   UNL     1     -44.823  62.225 -57.257  1.00  0.00     0.033 C 
HETATM    9  C   UNL     1     -45.339  61.221 -56.230  1.00  0.00     0.013 C 
HETATM   10  C   UNL     1     -43.914  58.139 -58.315  1.00  0.00     0.054 C 
HETATM   11  C   UNL     1     -43.517  57.354 -57.120  1.00  0.00     0.010 A 
HETATM   12  C   UNL     1     -43.755  57.683 -55.804  1.00  0.00     0.054 A 
HETATM   13  N   UNL     1     -43.276  56.759 -54.885  1.00  0.00    -0.244 NA
HETATM   14  C   UNL     1     -42.594  55.807 -55.506  1.00  0.00     0.108 A 
HETATM   15  S   UNL     1     -42.674  55.884 -57.230  1.00  0.00    -0.072 SA
ENDROOT
BRANCH   1  16
HETATM   16  C   UNL     1     -45.386  58.793 -54.201  1.00  0.00     0.114 C 
BRANCH  16  17
HETATM   17  C   UNL     1     -44.735  58.600 -52.844  1.00  0.00     0.218 C 
HETATM   18  N   UNL     1     -44.813  57.318 -52.371  1.00  0.00    -0.359 N 
HETATM   19  H   UNL     1     -44.855  56.583 -53.080  1.00  0.00     0.162 HD
HETATM   20  O   UNL     1     -44.269  59.538 -52.203  1.00  0.00    -0.274 OA
BRANCH  18  21
HETATM   21  C   UNL     1     -44.466  56.954 -51.016  1.00  0.00     0.142 C 
BRANCH  21  22
HETATM   22  C   UNL     1     -43.013  56.508 -50.845  1.00  0.00     0.142 C 
BRANCH  22  23
HETATM   23  N   UNL     1     -42.141  57.623 -50.504  1.00  0.00    -0.360 N 
HETATM   24  C   UNL     1     -41.167  58.068 -51.367  1.00  0.00     0.213 C 
HETATM   25  C   UNL     1     -40.287  59.156 -50.811  1.00  0.00     0.117 C 
HETATM   26  O   UNL     1     -41.001  57.620 -52.497  1.00  0.00    -0.274 OA
HETATM   27  H   UNL     1     -42.159  57.960 -49.550  1.00  0.00     0.162 HD
ENDBRANCH  22  23
ENDBRANCH  21  22
ENDBRANCH  18  21
ENDBRANCH  16  17
ENDBRANCH   1  16
BRANCH   5  28
HETATM   28  C   UNL     1     -41.635  60.096 -57.727  1.00  0.00     0.176 C 
BRANCH  28  29
HETATM   29  O   UNL     1     -40.634  61.095 -57.732  1.00  0.00    -0.400 OA
HETATM   30  H   UNL     1     -39.884  60.708 -57.228  1.00  0.00     0.209 HD
ENDBRANCH  28  29
ENDBRANCH   5  28
BRANCH  14  31
HETATM   31  C   UNL     1     -41.835  54.738 -54.832  1.00  0.00    -0.000 A 
HETATM   32  C   UNL     1     -42.223  54.312 -53.552  1.00  0.00     0.014 A 
HETATM   33  C   UNL     1     -41.499  53.332 -52.867  1.00  0.00     0.001 A 
HETATM   34  C   UNL     1     -40.375  52.756 -53.452  1.00  0.00     0.000 A 
HETATM   35  C   UNL     1     -39.972  53.162 -54.720  1.00  0.00     0.001 A 
HETATM   36  C   UNL     1     -40.693  54.147 -55.402  1.00  0.00     0.014 A 
ENDBRANCH  14  31
BRANCH   7  37
HETATM   37  O   UNL     1     -42.634  62.184 -56.276  1.00  0.00    -0.395 OA
HETATM   38  H   UNL     1     -41.696  62.345 -56.490  1.00  0.00     0.210 HD
ENDBRANCH   7  37
TORSDOF 9
ENDMDL
MODEL 9
REMARK VINA RESULT:      -7.9      3.473      6.871
REMARK  9 active torsions:
REMARK  status: ('A' for Active; 'I' for Inactive)
REMARK       I    between atoms: C_2  and  N_3 
REMARK    1  A    between atoms: N_3  and  C_4 
REMARK    2  A    between atoms: C_4  and  C_5 
REMARK    3  A    between atoms: C_5  and  N_6 
REMARK       I    between atoms: N_6  and  C_7 
REMARK    4  A    between atoms: C_7  and  C_8 
REMARK    5  A    between atoms: C_8  and  C_9 
REMARK    6  A    between atoms: C_13  and  C_14 
REMARK    7  A    between atoms: C_14  and  O_15 
REMARK    8  A    between atoms: C_17  and  O_18 
REMARK    9  A    between atoms: C_25  and  C_26 
ROOT
HETATM    1  C   UNL     1     -42.688  58.700 -55.613  1.00  0.00     0.056 C 
HETATM    2  C   UNL     1     -43.780  59.250 -56.639  1.00  0.00    -0.030 C 
HETATM    3  C   UNL     1     -45.190  59.231 -55.958  1.00  0.00     0.016 C 
HETATM    4  C   UNL     1     -43.900  58.372 -57.958  1.00  0.00     0.012 C 
HETATM    5  C   UNL     1     -42.855  58.636 -59.124  1.00  0.00     0.008 C 
HETATM    6  C   UNL     1     -43.593  58.320 -60.464  1.00  0.00     0.020 C 
HETATM    7  C   UNL     1     -42.445  60.143 -59.190  1.00  0.00     0.128 C 
HETATM    8  C   UNL     1     -43.439  61.050 -58.471  1.00  0.00     0.033 C 
HETATM    9  C   UNL     1     -43.468  60.741 -56.977  1.00  0.00     0.013 C 
HETATM   10  C   UNL     1     -44.157  56.873 -57.646  1.00  0.00     0.054 C 
HETATM   11  C   UNL     1     -43.321  56.401 -56.516  1.00  0.00     0.010 A 
HETATM   12  C   UNL     1     -42.691  57.186 -55.576  1.00  0.00     0.054 A 
HETATM   13  N   UNL     1     -41.974  56.475 -54.622  1.00  0.00    -0.244 NA
HETATM   14  C   UNL     1     -41.981  55.182 -54.912  1.00  0.00     0.108 A 
HETATM   15  S   UNL     1     -43.014  54.756 -56.230  1.00  0.00    -0.072 SA
ENDROOT
BRANCH   1  16
HETATM   16  C   UNL     1     -42.844  59.328 -54.215  1.00  0.00     0.114 C 
BRANCH  16  17
HETATM   17  C   UNL     1     -41.633  59.179 -53.313  1.00  0.00     0.218 C 
HETATM   18  N   UNL     1     -41.904  58.563 -52.122  1.00  0.00    -0.359 N 
HETATM   19  H   UNL     1     -42.679  57.896 -52.130  1.00  0.00     0.162 HD
HETATM   20  O   UNL     1     -40.539  59.657 -53.602  1.00  0.00    -0.274 OA
BRANCH  18  21
HETATM   21  C   UNL     1     -40.963  58.517 -51.025  1.00  0.00     0.142 C 
BRANCH  21  22
HETATM   22  C   UNL     1     -40.976  59.767 -50.144  1.00  0.00     0.142 C 
BRANCH  22  23
HETATM   23  N   UNL     1     -42.308  60.057 -49.633  1.00  0.00    -0.360 N 
HETATM   24  C   UNL     1     -43.117  61.002 -50.220  1.00  0.00     0.213 C 
HETATM   25  C   UNL     1     -44.415  61.250 -49.500  1.00  0.00     0.117 C 
HETATM   26  O   UNL     1     -42.818  61.615 -51.240  1.00  0.00    -0.274 OA
HETATM   27  H   UNL     1     -42.565  59.663 -48.738  1.00  0.00     0.162 HD
ENDBRANCH  22  23
ENDBRANCH  21  22
ENDBRANCH  18  21
ENDBRANCH  16  17
ENDBRANCH   1  16
BRANCH   5  28
HETATM   28  C   UNL     1     -41.609  57.711 -59.121  1.00  0.00     0.176 C 
BRANCH  28  29
HETATM   29  O   UNL     1     -41.454  56.982 -60.323  1.00  0.00    -0.400 OA
HETATM   30  H   UNL     1     -40.726  57.434 -60.804  1.00  0.00     0.209 HD
ENDBRANCH  28  29
ENDBRANCH   5  28
BRANCH  14  31
HETATM   31  C   UNL     1     -41.212  54.152 -54.191  1.00  0.00    -0.000 A 
HETATM   32  C   UNL     1     -40.642  53.085 -54.902  1.00  0.00     0.014 A 
HETATM   33  C   UNL     1     -39.946  52.068 -54.243  1.00  0.00     0.001 A 
HETATM   34  C   UNL     1     -39.803  52.102 -52.859  1.00  0.00     0.000 A 
HETATM   35  C   UNL     1     -40.359  53.150 -52.133  1.00  0.00     0.001 A 
HETATM   36  C   UNL     1     -41.062  54.163 -52.793  1.00  0.00     0.014 A 
ENDBRANCH  14  31
BRANCH   7  37
HETATM   37  O   UNL     1     -41.147  60.358 -58.624  1.00  0.00    -0.395 OA
HETATM   38  H   UNL     1     -40.675  60.983 -59.205  1.00  0.00     0.210 HD
ENDBRANCH   7  37
TORSDOF 9
ENDMDL
MODEL 10
REMARK VINA RESULT:      -7.8      4.025      7.375
REMARK  9 active torsions:
REMARK  status: ('A' for Active; 'I' for Inactive)
REMARK       I    between atoms: C_2  and  N_3 
REMARK    1  A    between atoms: N_3  and  C_4 
REMARK    2  A    between atoms: C_4  and  C_5 
REMARK    3  A    between atoms: C_5  and  N_6 
REMARK       I    between atoms: N_6  and  C_7 
REMARK    4  A    between atoms: C_7  and  C_8 
REMARK    5  A    between atoms: C_8  and  C_9 
REMARK    6  A    between atoms: C_13  and  C_14 
REMARK    7  A    between atoms: C_14  and  O_15 
REMARK    8  A    between atoms: C_17  and  O_18 
REMARK    9  A    between atoms: C_25  and  C_26 
ROOT
HETATM    1  C   UNL     1     -42.695  57.967 -53.260  1.00  0.00     0.056 C 
HETATM    2  C   UNL     1     -43.892  58.753 -53.964  1.00  0.00    -0.030 C 
HETATM    3  C   UNL     1     -45.218  58.502 -53.169  1.00  0.00     0.016 C 
HETATM    4  C   UNL     1     -44.160  58.281 -55.457  1.00  0.00     0.012 C 
HETATM    5  C   UNL     1     -43.250  58.893 -56.605  1.00  0.00     0.008 C 
HETATM    6  C   UNL     1     -44.133  58.948 -57.892  1.00  0.00     0.020 C 
HETATM    7  C   UNL     1     -42.845  60.368 -56.284  1.00  0.00     0.128 C 
HETATM    8  C   UNL     1     -43.750  61.007 -55.235  1.00  0.00     0.033 C 
HETATM    9  C   UNL     1     -43.615  60.287 -53.896  1.00  0.00     0.013 C 
HETATM   10  C   UNL     1     -44.386  56.748 -55.558  1.00  0.00     0.054 C 
HETATM   11  C   UNL     1     -43.431  56.000 -54.706  1.00  0.00     0.010 A 
HETATM   12  C   UNL     1     -42.699  56.505 -53.654  1.00  0.00     0.054 A 
HETATM   13  N   UNL     1     -41.883  55.574 -53.023  1.00  0.00    -0.244 NA
HETATM   14  C   UNL     1     -41.926  54.416 -53.667  1.00  0.00     0.108 A 
HETATM   15  S   UNL     1     -43.100  54.350 -54.933  1.00  0.00    -0.072 SA
ENDROOT
BRANCH   1  16
HETATM   16  C   UNL     1     -42.693  58.169 -51.732  1.00  0.00     0.114 C 
BRANCH  16  17
HETATM   17  C   UNL     1     -42.179  59.520 -51.271  1.00  0.00     0.218 C 
HETATM   18  N   UNL     1     -43.056  60.201 -50.470  1.00  0.00    -0.359 N 
HETATM   19  H   UNL     1     -43.690  59.625 -49.913  1.00  0.00     0.162 HD
HETATM   20  O   UNL     1     -41.112  59.984 -51.665  1.00  0.00    -0.274 OA
BRANCH  18  21
HETATM   21  C   UNL     1     -42.875  61.587 -50.103  1.00  0.00     0.142 C 
BRANCH  21  22
HETATM   22  C   UNL     1     -44.166  62.290 -49.677  1.00  0.00     0.142 C 
BRANCH  22  23
HETATM   23  N   UNL     1     -44.549  61.940 -48.316  1.00  0.00    -0.360 N 
HETATM   24  C   UNL     1     -45.421  60.910 -48.053  1.00  0.00     0.213 C 
HETATM   25  C   UNL     1     -45.790  60.756 -46.602  1.00  0.00     0.117 C 
HETATM   26  O   UNL     1     -45.884  60.172 -48.918  1.00  0.00    -0.274 OA
HETATM   27  H   UNL     1     -44.285  62.576 -47.575  1.00  0.00     0.162 HD
ENDBRANCH  22  23
ENDBRANCH  21  22
ENDBRANCH  18  21
ENDBRANCH  16  17
ENDBRANCH   1  16
BRANCH   5  28
HETATM   28  C   UNL     1     -42.015  58.041 -56.999  1.00  0.00     0.176 C 
BRANCH  28  29
HETATM   29  O   UNL     1     -42.148  57.415 -58.260  1.00  0.00    -0.400 OA
HETATM   30  H   UNL     1     -42.888  57.886 -58.703  1.00  0.00     0.209 HD
ENDBRANCH  28  29
ENDBRANCH   5  28
BRANCH  14  31
HETATM   31  C   UNL     1     -41.086  53.246 -53.354  1.00  0.00    -0.000 A 
HETATM   32  C   UNL     1     -40.535  53.108 -52.071  1.00  0.00     0.014 A 
HETATM   33  C   UNL     1     -39.697  52.035 -51.755  1.00  0.00     0.001 A 
HETATM   34  C   UNL     1     -39.398  51.075 -52.718  1.00  0.00     0.000 A 
HETATM   35  C   UNL     1     -39.933  51.190 -53.997  1.00  0.00     0.001 A 
HETATM   36  C   UNL     1     -40.765  52.269 -54.313  1.00  0.00     0.014 A 
ENDBRANCH  14  31
BRANCH   7  37
HETATM   37  O   UNL     1     -41.491  60.451 -55.822  1.00  0.00    -0.395 OA
HETATM   38  H   UNL     1     -41.003  61.015 -56.450  1.00  0.00     0.210 HD
ENDBRANCH   7  37
TORSDOF 9
ENDMDL
