MODEL 1
REMARK VINA RESULT:      -8.3      0.000      0.000
REMARK  3 active torsions:
REMARK  status: ('A' for Active; 'I' for Inactive)
REMARK    1  A    between atoms: N_8  and  C_9 
REMARK    2  A    between atoms: C_18  and  C_19 
REMARK    3  A    between atoms: C_19  and  C_20 
ROOT
HETATM    1  C   UNL     1     -43.284  53.908 -51.256  1.00  0.00     0.069 C 
HETATM    2  C   UNL     1     -42.964  54.647 -52.531  1.00  0.00     0.017 A 
HETATM    3  N   UNL     1     -44.041  55.242 -53.169  1.00  0.00    -0.348 N 
HETATM    4  C   UNL     1     -43.900  56.014 -54.285  1.00  0.00     0.119 A 
HETATM    5  C   UNL     1     -42.701  56.178 -54.860  1.00  0.00     0.124 A 
HETATM    6  C   UNL     1     -42.913  56.986 -56.072  1.00  0.00     0.280 A 
HETATM    7  O   UNL     1     -42.042  57.311 -56.859  1.00  0.00    -0.265 OA
HETATM    8  N   UNL     1     -44.290  57.260 -56.095  1.00  0.00    -0.236 N 
HETATM    9  N   UNL     1     -44.903  56.680 -54.964  1.00  0.00    -0.179 NA
HETATM   10  C   UNL     1     -41.507  55.558 -54.288  1.00  0.00     0.199 A 
HETATM   11  O   UNL     1     -40.397  55.697 -54.789  1.00  0.00    -0.287 OA
HETATM   12  C   UNL     1     -41.705  54.737 -53.031  1.00  0.00     0.020 A 
HETATM   13  H   UNL     1     -44.937  55.270 -52.692  1.00  0.00     0.167 HD
HETATM   14  H   UNL     1     -45.649  56.033 -55.221  1.00  0.00     0.155 HD
ENDROOT
BRANCH  12  15
HETATM   15  C   UNL     1     -40.451  54.145 -52.425  1.00  0.00     0.085 C 
BRANCH  15  16
HETATM   16  C   UNL     1     -40.232  52.680 -52.758  1.00  0.00    -0.032 A 
HETATM   17  C   UNL     1     -40.121  51.671 -51.786  1.00  0.00     0.040 A 
HETATM   18 CL   UNL     1     -40.208  51.995 -50.090  1.00  0.00    -0.084 Cl
HETATM   19  C   UNL     1     -39.910  50.337 -52.160  1.00  0.00     0.024 A 
HETATM   20  C   UNL     1     -39.797  49.989 -53.504  1.00  0.00     0.002 A 
HETATM   21  C   UNL     1     -39.888  50.975 -54.479  1.00  0.00     0.001 A 
HETATM   22  C   UNL     1     -40.098  52.306 -54.111  1.00  0.00     0.009 A 
ENDBRANCH  15  16
ENDBRANCH  12  15
BRANCH   8  23
HETATM   23  C   UNL     1     -45.044  58.029 -57.009  1.00  0.00     0.055 A 
HETATM   24  C   UNL     1     -45.175  57.644 -58.349  1.00  0.00     0.031 A 
HETATM   25  C   UNL     1     -45.929  58.407 -59.246  1.00  0.00     0.002 A 
HETATM   26  C   UNL     1     -46.558  59.572 -58.819  1.00  0.00     0.000 A 
HETATM   27  C   UNL     1     -46.434  59.975 -57.492  1.00  0.00     0.002 A 
HETATM   28  C   UNL     1     -45.683  59.209 -56.595  1.00  0.00     0.031 A 
ENDBRANCH   8  23
TORSDOF 3
ENDMDL
MODEL 2
REMARK VINA RESULT:      -8.2      4.002      4.798
REMARK  3 active torsions:
REMARK  status: ('A' for Active; 'I' for Inactive)
REMARK    1  A    between atoms: N_8  and  C_9 
REMARK    2  A    between atoms: C_18  and  C_19 
REMARK    3  A    between atoms: C_19  and  C_20 
ROOT
HETATM    1  C   UNL     1     -43.797  53.916 -50.726  1.00  0.00     0.069 C 
HETATM    2  C   UNL     1     -43.566  55.392 -50.924  1.00  0.00     0.017 A 
HETATM    3  N   UNL     1     -44.704  56.184 -50.940  1.00  0.00    -0.348 N 
HETATM    4  C   UNL     1     -44.653  57.545 -51.026  1.00  0.00     0.119 A 
HETATM    5  C   UNL     1     -43.482  58.181 -51.169  1.00  0.00     0.124 A 
HETATM    6  C   UNL     1     -43.786  59.613 -51.314  1.00  0.00     0.280 A 
HETATM    7  O   UNL     1     -42.960  60.491 -51.487  1.00  0.00    -0.265 OA
HETATM    8  N   UNL     1     -45.184  59.704 -51.218  1.00  0.00    -0.236 N 
HETATM    9  N   UNL     1     -45.724  58.417 -51.008  1.00  0.00    -0.179 NA
HETATM   10  C   UNL     1     -42.225  57.434 -51.205  1.00  0.00     0.199 A 
HETATM   11  O   UNL     1     -41.140  57.989 -51.327  1.00  0.00    -0.287 OA
HETATM   12  C   UNL     1     -42.327  55.928 -51.073  1.00  0.00     0.020 A 
HETATM   13  H   UNL     1     -45.593  55.766 -50.687  1.00  0.00     0.167 HD
HETATM   14  H   UNL     1     -46.403  58.164 -51.727  1.00  0.00     0.155 HD
ENDROOT
BRANCH  12  15
HETATM   15  C   UNL     1     -41.014  55.176 -51.061  1.00  0.00     0.085 C 
BRANCH  15  16
HETATM   16  C   UNL     1     -40.754  54.360 -52.315  1.00  0.00    -0.032 A 
HETATM   17  C   UNL     1     -40.404  53.000 -52.298  1.00  0.00     0.040 A 
HETATM   18 CL   UNL     1     -40.215  52.104 -50.831  1.00  0.00    -0.084 Cl
HETATM   19  C   UNL     1     -40.168  52.305 -53.491  1.00  0.00     0.024 A 
HETATM   20  C   UNL     1     -40.268  52.956 -54.719  1.00  0.00     0.002 A 
HETATM   21  C   UNL     1     -40.598  54.306 -54.756  1.00  0.00     0.001 A 
HETATM   22  C   UNL     1     -40.833  55.002 -53.568  1.00  0.00     0.009 A 
ENDBRANCH  15  16
ENDBRANCH  12  15
BRANCH   8  23
HETATM   23  C   UNL     1     -46.020  60.841 -51.247  1.00  0.00     0.055 A 
HETATM   24  C   UNL     1     -46.034  61.761 -50.191  1.00  0.00     0.031 A 
HETATM   25  C   UNL     1     -46.860  62.889 -50.230  1.00  0.00     0.002 A 
HETATM   26  C   UNL     1     -47.690  63.112 -51.323  1.00  0.00     0.000 A 
HETATM   27  C   UNL     1     -47.695  62.206 -52.381  1.00  0.00     0.002 A 
HETATM   28  C   UNL     1     -46.867  61.080 -52.342  1.00  0.00     0.031 A 
ENDBRANCH   8  23
TORSDOF 3
ENDMDL
MODEL 3
REMARK VINA RESULT:      -8.0      3.579      4.240
REMARK  3 active torsions:
REMARK  status: ('A' for Active; 'I' for Inactive)
REMARK    1  A    between atoms: N_8  and  C_9 
REMARK    2  A    between atoms: C_18  and  C_19 
REMARK    3  A    between atoms: C_19  and  C_20 
ROOT
HETATM    1  C   UNL     1     -42.882  57.583 -52.650  1.00  0.00     0.069 C 
HETATM    2  C   UNL     1     -42.773  57.656 -54.151  1.00  0.00     0.017 A 
HETATM    3  N   UNL     1     -42.375  58.879 -54.669  1.00  0.00    -0.348 N 
HETATM    4  C   UNL     1     -42.150  59.077 -55.999  1.00  0.00     0.119 A 
HETATM    5  C   UNL     1     -42.373  58.099 -56.887  1.00  0.00     0.124 A 
HETATM    6  C   UNL     1     -42.115  58.663 -58.222  1.00  0.00     0.280 A 
HETATM    7  O   UNL     1     -42.241  58.061 -59.273  1.00  0.00    -0.265 OA
HETATM    8  N   UNL     1     -41.722  59.991 -57.990  1.00  0.00    -0.236 N 
HETATM    9  N   UNL     1     -41.713  60.242 -56.602  1.00  0.00    -0.179 NA
HETATM   10  C   UNL     1     -42.833  56.782 -56.448  1.00  0.00     0.199 A 
HETATM   11  O   UNL     1     -43.039  55.867 -57.237  1.00  0.00    -0.287 OA
HETATM   12  C   UNL     1     -43.039  56.597 -54.959  1.00  0.00     0.020 A 
HETATM   13  H   UNL     1     -42.053  59.598 -54.029  1.00  0.00     0.167 HD
HETATM   14  H   UNL     1     -42.320  61.023 -56.349  1.00  0.00     0.155 HD
ENDROOT
BRANCH  12  15
HETATM   15  C   UNL     1     -43.467  55.214 -54.519  1.00  0.00     0.085 C 
BRANCH  15  16
HETATM   16  C   UNL     1     -42.323  54.328 -54.054  1.00  0.00    -0.032 A 
HETATM   17  C   UNL     1     -42.208  53.833 -52.745  1.00  0.00     0.040 A 
HETATM   18 CL   UNL     1     -43.358  54.194 -51.506  1.00  0.00    -0.084 Cl
HETATM   19  C   UNL     1     -41.123  53.027 -52.377  1.00  0.00     0.024 A 
HETATM   20  C   UNL     1     -40.132  52.710 -53.304  1.00  0.00     0.002 A 
HETATM   21  C   UNL     1     -40.220  53.204 -54.600  1.00  0.00     0.001 A 
HETATM   22  C   UNL     1     -41.300  54.008 -54.970  1.00  0.00     0.009 A 
ENDBRANCH  15  16
ENDBRANCH  12  15
BRANCH   8  23
HETATM   23  C   UNL     1     -41.316  60.986 -58.905  1.00  0.00     0.055 A 
HETATM   24  C   UNL     1     -41.779  60.992 -60.227  1.00  0.00     0.031 A 
HETATM   25  C   UNL     1     -41.378  61.986 -61.126  1.00  0.00     0.002 A 
HETATM   26  C   UNL     1     -40.501  62.986 -60.719  1.00  0.00     0.000 A 
HETATM   27  C   UNL     1     -40.025  62.994 -59.411  1.00  0.00     0.002 A 
HETATM   28  C   UNL     1     -40.429  62.002 -58.512  1.00  0.00     0.031 A 
ENDBRANCH   8  23
TORSDOF 3
ENDMDL
MODEL 4
REMARK VINA RESULT:      -8.0      4.048      8.420
REMARK  3 active torsions:
REMARK  status: ('A' for Active; 'I' for Inactive)
REMARK    1  A    between atoms: N_8  and  C_9 
REMARK    2  A    between atoms: C_18  and  C_19 
REMARK    3  A    between atoms: C_19  and  C_20 
ROOT
HETATM    1  C   UNL     1     -41.792  59.039 -54.737  1.00  0.00     0.069 C 
HETATM    2  C   UNL     1     -41.616  57.917 -53.747  1.00  0.00     0.017 A 
HETATM    3  N   UNL     1     -41.296  56.680 -54.286  1.00  0.00    -0.348 N 
HETATM    4  C   UNL     1     -41.023  55.589 -53.515  1.00  0.00     0.119 A 
HETATM    5  C   UNL     1     -41.121  55.649 -52.180  1.00  0.00     0.124 A 
HETATM    6  C   UNL     1     -40.846  54.297 -51.668  1.00  0.00     0.280 A 
HETATM    7  O   UNL     1     -40.870  53.975 -50.494  1.00  0.00    -0.265 OA
HETATM    8  N   UNL     1     -40.576  53.521 -52.806  1.00  0.00    -0.236 N 
HETATM    9  N   UNL     1     -40.657  54.332 -53.957  1.00  0.00    -0.179 NA
HETATM   10  C   UNL     1     -41.491  56.897 -51.513  1.00  0.00     0.199 A 
HETATM   11  O   UNL     1     -41.580  56.983 -50.294  1.00  0.00    -0.287 OA
HETATM   12  C   UNL     1     -41.753  58.092 -52.407  1.00  0.00     0.020 A 
HETATM   13  H   UNL     1     -41.067  56.623 -55.274  1.00  0.00     0.167 HD
HETATM   14  H   UNL     1     -41.338  53.978 -54.630  1.00  0.00     0.155 HD
ENDROOT
BRANCH  12  15
HETATM   15  C   UNL     1     -42.085  59.387 -51.698  1.00  0.00     0.085 C 
BRANCH  15  16
HETATM   16  C   UNL     1     -43.559  59.749 -51.725  1.00  0.00    -0.032 A 
HETATM   17  C   UNL     1     -44.067  60.890 -52.369  1.00  0.00     0.040 A 
HETATM   18 CL   UNL     1     -43.054  62.023 -53.194  1.00  0.00    -0.084 Cl
HETATM   19  C   UNL     1     -45.438  61.173 -52.350  1.00  0.00     0.024 A 
HETATM   20  C   UNL     1     -46.324  60.330 -51.682  1.00  0.00     0.002 A 
HETATM   21  C   UNL     1     -45.840  59.205 -51.026  1.00  0.00     0.001 A 
HETATM   22  C   UNL     1     -44.473  58.920 -51.043  1.00  0.00     0.009 A 
ENDBRANCH  15  16
ENDBRANCH  12  15
BRANCH   8  23
HETATM   23  C   UNL     1     -40.211  52.160 -52.906  1.00  0.00     0.055 A 
HETATM   24  C   UNL     1     -40.244  51.486 -54.133  1.00  0.00     0.031 A 
HETATM   25  C   UNL     1     -39.874  50.141 -54.225  1.00  0.00     0.002 A 
HETATM   26  C   UNL     1     -39.469  49.446 -53.090  1.00  0.00     0.000 A 
HETATM   27  C   UNL     1     -39.435  50.097 -51.860  1.00  0.00     0.002 A 
HETATM   28  C   UNL     1     -39.803  51.443 -51.769  1.00  0.00     0.031 A 
ENDBRANCH   8  23
TORSDOF 3
ENDMDL
MODEL 5
REMARK VINA RESULT:      -8.0     15.568     18.512
REMARK  3 active torsions:
REMARK  status: ('A' for Active; 'I' for Inactive)
REMARK    1  A    between atoms: N_8  and  C_9 
REMARK    2  A    between atoms: C_18  and  C_19 
REMARK    3  A    between atoms: C_19  and  C_20 
ROOT
HETATM    1  C   UNL     1     -33.562  40.746 -56.834  1.00  0.00     0.069 C 
HETATM    2  C   UNL     1     -34.008  40.905 -55.403  1.00  0.00     0.017 A 
HETATM    3  N   UNL     1     -33.316  40.150 -54.468  1.00  0.00    -0.348 N 
HETATM    4  C   UNL     1     -33.547  40.248 -53.127  1.00  0.00     0.119 A 
HETATM    5  C   UNL     1     -34.515  41.043 -52.652  1.00  0.00     0.124 A 
HETATM    6  C   UNL     1     -34.551  40.853 -51.193  1.00  0.00     0.280 A 
HETATM    7  O   UNL     1     -35.328  41.402 -50.434  1.00  0.00    -0.265 OA
HETATM    8  N   UNL     1     -33.532  39.926 -50.919  1.00  0.00    -0.236 N 
HETATM    9  N   UNL     1     -32.884  39.571 -52.121  1.00  0.00    -0.179 NA
HETATM   10  C   UNL     1     -35.329  41.852 -53.559  1.00  0.00     0.199 A 
HETATM   11  O   UNL     1     -36.216  42.593 -53.152  1.00  0.00    -0.287 OA
HETATM   12  C   UNL     1     -35.017  41.736 -55.037  1.00  0.00     0.020 A 
HETATM   13  H   UNL     1     -32.483  39.651 -54.763  1.00  0.00     0.167 HD
HETATM   14  H   UNL     1     -32.912  38.565 -52.289  1.00  0.00     0.155 HD
ENDROOT
BRANCH  12  15
HETATM   15  C   UNL     1     -35.835  42.618 -55.955  1.00  0.00     0.085 C 
BRANCH  15  16
HETATM   16  C   UNL     1     -36.702  41.854 -56.940  1.00  0.00    -0.032 A 
HETATM   17  C   UNL     1     -37.847  41.128 -56.566  1.00  0.00     0.040 A 
HETATM   18 CL   UNL     1     -38.386  41.015 -54.927  1.00  0.00    -0.084 Cl
HETATM   19  C   UNL     1     -38.600  40.436 -57.523  1.00  0.00     0.024 A 
HETATM   20  C   UNL     1     -38.221  40.448 -58.864  1.00  0.00     0.002 A 
HETATM   21  C   UNL     1     -37.083  41.146 -59.251  1.00  0.00     0.001 A 
HETATM   22  C   UNL     1     -36.329  41.837 -58.299  1.00  0.00     0.009 A 
ENDBRANCH  15  16
ENDBRANCH  12  15
BRANCH   8  23
HETATM   23  C   UNL     1     -33.091  39.409 -49.681  1.00  0.00     0.055 A 
HETATM   24  C   UNL     1     -31.910  39.864 -49.081  1.00  0.00     0.031 A 
HETATM   25  C   UNL     1     -31.484  39.351 -47.852  1.00  0.00     0.002 A 
HETATM   26  C   UNL     1     -32.228  38.370 -47.206  1.00  0.00     0.000 A 
HETATM   27  C   UNL     1     -33.401  37.900 -47.789  1.00  0.00     0.002 A 
HETATM   28  C   UNL     1     -33.829  38.416 -49.016  1.00  0.00     0.031 A 
ENDBRANCH   8  23
TORSDOF 3
ENDMDL
MODEL 6
REMARK VINA RESULT:      -8.0     15.688     18.463
REMARK  3 active torsions:
REMARK  status: ('A' for Active; 'I' for Inactive)
REMARK    1  A    between atoms: N_8  and  C_9 
REMARK    2  A    between atoms: C_18  and  C_19 
REMARK    3  A    between atoms: C_19  and  C_20 
ROOT
HETATM    1  C   UNL     1     -34.379  41.862 -57.100  1.00  0.00     0.069 C 
HETATM    2  C   UNL     1     -34.915  41.404 -55.768  1.00  0.00     0.017 A 
HETATM    3  N   UNL     1     -33.963  41.047 -54.825  1.00  0.00    -0.348 N 
HETATM    4  C   UNL     1     -34.288  40.692 -53.549  1.00  0.00     0.119 A 
HETATM    5  C   UNL     1     -35.568  40.608 -53.164  1.00  0.00     0.124 A 
HETATM    6  C   UNL     1     -35.568  40.126 -51.773  1.00  0.00     0.280 A 
HETATM    7  O   UNL     1     -36.563  39.908 -51.106  1.00  0.00    -0.265 OA
HETATM    8  N   UNL     1     -34.212  39.980 -51.435  1.00  0.00    -0.236 N 
HETATM    9  N   UNL     1     -33.412  40.362 -52.532  1.00  0.00    -0.179 NA
HETATM   10  C   UNL     1     -36.651  40.924 -54.094  1.00  0.00     0.199 A 
HETATM   11  O   UNL     1     -37.830  40.863 -53.767  1.00  0.00    -0.287 OA
HETATM   12  C   UNL     1     -36.243  41.345 -55.492  1.00  0.00     0.020 A 
HETATM   13  H   UNL     1     -32.985  41.237 -55.022  1.00  0.00     0.167 HD
HETATM   14  H   UNL     1     -32.786  39.613 -52.830  1.00  0.00     0.155 HD
ENDROOT
BRANCH  12  15
HETATM   15  C   UNL     1     -37.374  41.717 -56.425  1.00  0.00     0.085 C 
BRANCH  15  16
HETATM   16  C   UNL     1     -37.601  40.726 -57.552  1.00  0.00    -0.032 A 
HETATM   17  C   UNL     1     -37.521  41.066 -58.914  1.00  0.00     0.040 A 
HETATM   18 CL   UNL     1     -37.166  42.670 -59.455  1.00  0.00    -0.084 Cl
HETATM   19  C   UNL     1     -37.750  40.105 -59.907  1.00  0.00     0.024 A 
HETATM   20  C   UNL     1     -38.071  38.794 -59.561  1.00  0.00     0.002 A 
HETATM   21  C   UNL     1     -38.171  38.442 -58.220  1.00  0.00     0.001 A 
HETATM   22  C   UNL     1     -37.944  39.398 -57.227  1.00  0.00     0.009 A 
ENDBRANCH  15  16
ENDBRANCH  12  15
BRANCH   8  23
HETATM   23  C   UNL     1     -33.623  39.587 -50.213  1.00  0.00     0.055 A 
HETATM   24  C   UNL     1     -34.230  38.635 -49.386  1.00  0.00     0.031 A 
HETATM   25  C   UNL     1     -33.636  38.246 -48.181  1.00  0.00     0.002 A 
HETATM   26  C   UNL     1     -32.429  38.808 -47.781  1.00  0.00     0.000 A 
HETATM   27  C   UNL     1     -31.812  39.761 -48.587  1.00  0.00     0.002 A 
HETATM   28  C   UNL     1     -32.405  40.147 -49.793  1.00  0.00     0.031 A 
ENDBRANCH   8  23
TORSDOF 3
ENDMDL
MODEL 7
REMARK VINA RESULT:      -7.9      2.865      3.220
REMARK  3 active torsions:
REMARK  status: ('A' for Active; 'I' for Inactive)
REMARK    1  A    between atoms: N_8  and  C_9 
REMARK    2  A    between atoms: C_18  and  C_19 
REMARK    3  A    between atoms: C_19  and  C_20 
ROOT
HETATM    1  C   UNL     1     -40.982  56.755 -50.730  1.00  0.00     0.069 C 
HETATM    2  C   UNL     1     -41.560  56.929 -52.111  1.00  0.00     0.017 A 
HETATM    3  N   UNL     1     -41.328  58.156 -52.712  1.00  0.00    -0.348 N 
HETATM    4  C   UNL     1     -41.714  58.434 -53.991  1.00  0.00     0.119 A 
HETATM    5  C   UNL     1     -42.407  57.541 -54.709  1.00  0.00     0.124 A 
HETATM    6  C   UNL     1     -42.731  58.181 -55.994  1.00  0.00     0.280 A 
HETATM    7  O   UNL     1     -43.378  57.668 -56.889  1.00  0.00    -0.265 OA
HETATM    8  N   UNL     1     -42.153  59.459 -55.924  1.00  0.00    -0.236 N 
HETATM    9  N   UNL     1     -41.492  59.608 -54.687  1.00  0.00    -0.179 NA
HETATM   10  C   UNL     1     -42.739  56.230 -54.152  1.00  0.00     0.199 A 
HETATM   11  O   UNL     1     -43.365  55.391 -54.789  1.00  0.00    -0.287 OA
HETATM   12  C   UNL     1     -42.262  55.952 -52.741  1.00  0.00     0.020 A 
HETATM   13  H   UNL     1     -40.684  58.803 -52.268  1.00  0.00     0.167 HD
HETATM   14  H   UNL     1     -41.841  60.407 -54.158  1.00  0.00     0.155 HD
ENDROOT
BRANCH  12  15
HETATM   15  C   UNL     1     -42.570  54.573 -52.200  1.00  0.00     0.085 C 
BRANCH  15  16
HETATM   16  C   UNL     1     -41.485  53.544 -52.465  1.00  0.00    -0.032 A 
HETATM   17  C   UNL     1     -40.670  52.999 -51.459  1.00  0.00     0.040 A 
HETATM   18 CL   UNL     1     -40.807  53.457 -49.797  1.00  0.00    -0.084 Cl
HETATM   19  C   UNL     1     -39.679  52.059 -51.771  1.00  0.00     0.024 A 
HETATM   20  C   UNL     1     -39.478  51.655 -53.089  1.00  0.00     0.002 A 
HETATM   21  C   UNL     1     -40.263  52.195 -54.101  1.00  0.00     0.001 A 
HETATM   22  C   UNL     1     -41.252  53.133 -53.793  1.00  0.00     0.009 A 
ENDBRANCH  15  16
ENDBRANCH  12  15
BRANCH   8  23
HETATM   23  C   UNL     1     -42.116  60.488 -56.890  1.00  0.00     0.055 A 
HETATM   24  C   UNL     1     -42.825  61.682 -56.709  1.00  0.00     0.031 A 
HETATM   25  C   UNL     1     -42.778  62.699 -57.668  1.00  0.00     0.002 A 
HETATM   26  C   UNL     1     -42.025  62.537 -58.826  1.00  0.00     0.000 A 
HETATM   27  C   UNL     1     -41.318  61.354 -59.027  1.00  0.00     0.002 A 
HETATM   28  C   UNL     1     -41.364  60.339 -58.066  1.00  0.00     0.031 A 
ENDBRANCH   8  23
TORSDOF 3
ENDMDL
MODEL 8
REMARK VINA RESULT:      -7.8      4.547      5.449
REMARK  3 active torsions:
REMARK  status: ('A' for Active; 'I' for Inactive)
REMARK    1  A    between atoms: N_8  and  C_9 
REMARK    2  A    between atoms: C_18  and  C_19 
REMARK    3  A    between atoms: C_19  and  C_20 
ROOT
HETATM    1  C   UNL     1     -43.831  54.763 -53.971  1.00  0.00     0.069 C 
HETATM    2  C   UNL     1     -43.457  56.015 -53.221  1.00  0.00     0.017 A 
HETATM    3  N   UNL     1     -44.516  56.792 -52.777  1.00  0.00    -0.348 N 
HETATM    4  C   UNL     1     -44.341  57.909 -52.014  1.00  0.00     0.119 A 
HETATM    5  C   UNL     1     -43.112  58.349 -51.712  1.00  0.00     0.124 A 
HETATM    6  C   UNL     1     -43.278  59.602 -50.959  1.00  0.00     0.280 A 
HETATM    7  O   UNL     1     -42.367  60.294 -50.541  1.00  0.00    -0.265 OA
HETATM    8  N   UNL     1     -44.666  59.792 -50.861  1.00  0.00    -0.236 N 
HETATM    9  N   UNL     1     -45.331  58.720 -51.492  1.00  0.00    -0.179 NA
HETATM   10  C   UNL     1     -41.926  57.624 -52.166  1.00  0.00     0.199 A 
HETATM   11  O   UNL     1     -40.791  57.999 -51.899  1.00  0.00    -0.287 OA
HETATM   12  C   UNL     1     -42.168  56.371 -52.983  1.00  0.00     0.020 A 
HETATM   13  H   UNL     1     -45.458  56.422 -52.853  1.00  0.00     0.167 HD
HETATM   14  H   UNL     1     -45.957  59.039 -52.232  1.00  0.00     0.155 HD
ENDROOT
BRANCH  12  15
HETATM   15  C   UNL     1     -40.931  55.607 -53.402  1.00  0.00     0.085 C 
BRANCH  15  16
HETATM   16  C   UNL     1     -40.638  54.385 -52.548  1.00  0.00    -0.032 A 
HETATM   17  C   UNL     1     -40.308  53.127 -53.081  1.00  0.00     0.040 A 
HETATM   18 CL   UNL     1     -40.214  52.830 -54.781  1.00  0.00    -0.084 Cl
HETATM   19  C   UNL     1     -40.057  52.037 -52.239  1.00  0.00     0.024 A 
HETATM   20  C   UNL     1     -40.139  52.178 -50.855  1.00  0.00     0.002 A 
HETATM   21  C   UNL     1     -40.481  53.411 -50.309  1.00  0.00     0.001 A 
HETATM   22  C   UNL     1     -40.732  54.500 -51.147  1.00  0.00     0.009 A 
ENDBRANCH  15  16
ENDBRANCH  12  15
BRANCH   8  23
HETATM   23  C   UNL     1     -45.395  60.810 -50.209  1.00  0.00     0.055 A 
HETATM   24  C   UNL     1     -46.164  61.731 -50.932  1.00  0.00     0.031 A 
HETATM   25  C   UNL     1     -46.889  62.732 -50.278  1.00  0.00     0.002 A 
HETATM   26  C   UNL     1     -46.852  62.833 -48.892  1.00  0.00     0.000 A 
HETATM   27  C   UNL     1     -46.088  61.931 -48.156  1.00  0.00     0.002 A 
HETATM   28  C   UNL     1     -45.366  60.928 -48.810  1.00  0.00     0.031 A 
ENDBRANCH   8  23
TORSDOF 3
ENDMDL
MODEL 9
REMARK VINA RESULT:      -7.8      2.376      2.970
REMARK  3 active torsions:
REMARK  status: ('A' for Active; 'I' for Inactive)
REMARK    1  A    between atoms: N_8  and  C_9 
REMARK    2  A    between atoms: C_18  and  C_19 
REMARK    3  A    between atoms: C_19  and  C_20 
ROOT
HETATM    1  C   UNL     1     -42.185  57.116 -51.801  1.00  0.00     0.069 C 
HETATM    2  C   UNL     1     -42.529  56.774 -53.228  1.00  0.00     0.017 A 
HETATM    3  N   UNL     1     -42.397  57.805 -54.145  1.00  0.00    -0.348 N 
HETATM    4  C   UNL     1     -42.590  57.629 -55.484  1.00  0.00     0.119 A 
HETATM    5  C   UNL     1     -42.988  56.447 -55.971  1.00  0.00     0.124 A 
HETATM    6  C   UNL     1     -43.180  56.621 -57.420  1.00  0.00     0.280 A 
HETATM    7  O   UNL     1     -43.563  55.756 -58.186  1.00  0.00    -0.265 OA
HETATM    8  N   UNL     1     -42.840  57.959 -57.677  1.00  0.00    -0.236 N 
HETATM    9  N   UNL     1     -42.442  58.582 -56.474  1.00  0.00    -0.179 NA
HETATM   10  C   UNL     1     -43.196  55.304 -55.083  1.00  0.00     0.199 A 
HETATM   11  O   UNL     1     -43.553  54.209 -55.502  1.00  0.00    -0.287 OA
HETATM   12  C   UNL     1     -42.938  55.535 -53.608  1.00  0.00     0.020 A 
HETATM   13  H   UNL     1     -41.957  58.670 -53.846  1.00  0.00     0.167 HD
HETATM   14  H   UNL     1     -43.006  59.406 -56.264  1.00  0.00     0.155 HD
ENDROOT
BRANCH  12  15
HETATM   15  C   UNL     1     -43.109  54.329 -52.711  1.00  0.00     0.085 C 
BRANCH  15  16
HETATM   16  C   UNL     1     -41.825  53.559 -52.455  1.00  0.00    -0.032 A 
HETATM   17  C   UNL     1     -41.204  53.481 -51.196  1.00  0.00     0.040 A 
HETATM   18 CL   UNL     1     -41.834  54.274 -49.795  1.00  0.00    -0.084 Cl
HETATM   19  C   UNL     1     -40.015  52.761 -51.028  1.00  0.00     0.024 A 
HETATM   20  C   UNL     1     -39.420  52.115 -52.110  1.00  0.00     0.002 A 
HETATM   21  C   UNL     1     -40.011  52.194 -53.366  1.00  0.00     0.001 A 
HETATM   22  C   UNL     1     -41.196  52.912 -53.538  1.00  0.00     0.009 A 
ENDBRANCH  15  16
ENDBRANCH  12  15
BRANCH   8  23
HETATM   23  C   UNL     1     -42.800  58.663 -58.900  1.00  0.00     0.055 A 
HETATM   24  C   UNL     1     -43.768  59.623 -59.220  1.00  0.00     0.031 A 
HETATM   25  C   UNL     1     -43.717  60.320 -60.431  1.00  0.00     0.002 A 
HETATM   26  C   UNL     1     -42.702  60.064 -61.345  1.00  0.00     0.000 A 
HETATM   27  C   UNL     1     -41.733  59.109 -61.049  1.00  0.00     0.002 A 
HETATM   28  C   UNL     1     -41.782  58.415 -59.836  1.00  0.00     0.031 A 
ENDBRANCH   8  23
TORSDOF 3
ENDMDL
MODEL 10
REMARK VINA RESULT:      -7.7      2.610      3.592
REMARK  3 active torsions:
REMARK  status: ('A' for Active; 'I' for Inactive)
REMARK    1  A    between atoms: N_8  and  C_9 
REMARK    2  A    between atoms: C_18  and  C_19 
REMARK    3  A    between atoms: C_19  and  C_20 
ROOT
HETATM    1  C   UNL     1     -41.249  52.876 -54.340  1.00  0.00     0.069 C 
HETATM    2  C   UNL     1     -41.985  54.152 -54.659  1.00  0.00     0.017 A 
HETATM    3  N   UNL     1     -41.759  54.680 -55.921  1.00  0.00    -0.348 N 
HETATM    4  C   UNL     1     -42.415  55.781 -56.386  1.00  0.00     0.119 A 
HETATM    5  C   UNL     1     -43.271  56.452 -55.605  1.00  0.00     0.124 A 
HETATM    6  C   UNL     1     -43.732  57.619 -56.375  1.00  0.00     0.280 A 
HETATM    7  O   UNL     1     -44.505  58.467 -55.967  1.00  0.00    -0.265 OA
HETATM    8  N   UNL     1     -43.087  57.516 -57.618  1.00  0.00    -0.236 N 
HETATM    9  N   UNL     1     -42.288  56.354 -57.638  1.00  0.00    -0.179 NA
HETATM   10  C   UNL     1     -43.550  56.001 -54.242  1.00  0.00     0.199 A 
HETATM   11  O   UNL     1     -44.334  56.591 -53.508  1.00  0.00    -0.287 OA
HETATM   12  C   UNL     1     -42.824  54.755 -53.778  1.00  0.00     0.020 A 
HETATM   13  H   UNL     1     -41.237  54.127 -56.594  1.00  0.00     0.167 HD
HETATM   14  H   UNL     1     -41.309  56.564 -57.837  1.00  0.00     0.155 HD
ENDROOT
BRANCH  12  15
HETATM   15  C   UNL     1     -43.163  54.275 -52.384  1.00  0.00     0.085 C 
BRANCH  15  16
HETATM   16  C   UNL     1     -42.012  54.371 -51.397  1.00  0.00    -0.032 A 
HETATM   17  C   UNL     1     -41.635  55.565 -50.759  1.00  0.00     0.040 A 
HETATM   18 CL   UNL     1     -42.439  57.069 -51.042  1.00  0.00    -0.084 Cl
HETATM   19  C   UNL     1     -40.557  55.589 -49.864  1.00  0.00     0.024 A 
HETATM   20  C   UNL     1     -39.833  54.428 -49.599  1.00  0.00     0.002 A 
HETATM   21  C   UNL     1     -40.180  53.241 -50.233  1.00  0.00     0.001 A 
HETATM   22  C   UNL     1     -41.254  53.214 -51.126  1.00  0.00     0.009 A 
ENDBRANCH  15  16
ENDBRANCH  12  15
BRANCH   8  23
HETATM   23  C   UNL     1     -43.190  58.341 -58.760  1.00  0.00     0.055 A 
HETATM   24  C   UNL     1     -44.385  58.436 -59.484  1.00  0.00     0.031 A 
HETATM   25  C   UNL     1     -44.480  59.261 -60.610  1.00  0.00     0.002 A 
HETATM   26  C   UNL     1     -43.380  59.998 -61.033  1.00  0.00     0.000 A 
HETATM   27  C   UNL     1     -42.181  59.912 -60.331  1.00  0.00     0.002 A 
HETATM   28  C   UNL     1     -42.087  59.090 -59.203  1.00  0.00     0.031 A 
ENDBRANCH   8  23
TORSDOF 3
ENDMDL
