MODEL 1
REMARK VINA RESULT:      -8.2      0.000      0.000
REMARK  8 active torsions:
REMARK  status: ('A' for Active; 'I' for Inactive)
REMARK    1  A    between atoms: O_2  and  C_3 
REMARK    2  A    between atoms: C_11  and  C_12 
REMARK       I    between atoms: C_12  and  N_13 
REMARK    3  A    between atoms: N_13  and  C_14 
REMARK    4  A    between atoms: C_14  and  C_15 
REMARK    5  A    between atoms: C_15  and  C_16 
REMARK    6  A    between atoms: C_16  and  C_17 
REMARK    7  A    between atoms: C_17  and  O_18 
REMARK    8  A    between atoms: O_18  and  C_19 
ROOT
HETATM    1  C   UNL     1     -44.449  57.705 -51.588  1.00  0.00     0.268 C 
HETATM    2  N   UNL     1     -43.416  58.088 -50.774  1.00  0.00    -0.345 N 
HETATM    3  O   UNL     1     -45.573  57.721 -51.085  1.00  0.00    -0.266 OA
HETATM    4  H   UNL     1     -43.756  58.308 -49.847  1.00  0.00     0.163 HD
ENDROOT
BRANCH   2   5
HETATM    5  C   UNL     1     -41.995  58.206 -50.989  1.00  0.00     0.217 C 
BRANCH   5   6
HETATM    6  C   UNL     1     -41.248  56.942 -50.597  1.00  0.00    -0.085 C 
BRANCH   6   7
HETATM    7  C   UNL     1     -40.607  55.857 -50.261  1.00  0.00    -0.078 C 
BRANCH   7   8
HETATM    8  C   UNL     1     -39.859  54.593 -49.869  1.00  0.00     0.269 C 
BRANCH   8   9
HETATM    9  O   UNL     1     -40.570  53.468 -50.365  1.00  0.00    -0.337 OA
BRANCH   9  10
HETATM   10  C   UNL     1     -40.425  53.149 -51.699  1.00  0.00     0.099 A 
HETATM   11  C   UNL     1     -40.063  51.814 -51.967  1.00  0.00     0.100 A 
HETATM   12  C   UNL     1     -39.888  51.435 -53.318  1.00  0.00    -0.005 A 
HETATM   13  N   UNL     1     -39.888  50.914 -50.971  1.00  0.00    -0.257 NA
HETATM   14  C   UNL     1     -39.531  50.110 -53.604  1.00  0.00     0.015 A 
HETATM   15  C   UNL     1     -40.067  52.365 -54.353  1.00  0.00     0.014 A 
HETATM   16  C   UNL     1     -39.360  49.198 -52.572  1.00  0.00     0.020 A 
HETATM   17  C   UNL     1     -39.549  49.645 -51.282  1.00  0.00     0.117 A 
HETATM   18  C   UNL     1     -40.424  53.677 -54.065  1.00  0.00     0.004 A 
HETATM   19  C   UNL     1     -40.603  54.071 -52.742  1.00  0.00     0.039 A 
ENDBRANCH   9  10
ENDBRANCH   8   9
ENDBRANCH   7   8
ENDBRANCH   6   7
ENDBRANCH   5   6
ENDBRANCH   2   5
BRANCH   1  20
HETATM   20  C   UNL     1     -44.221  57.254 -52.943  1.00  0.00     0.102 A 
HETATM   21  N   UNL     1     -44.493  57.916 -54.118  1.00  0.00    -0.351 N 
HETATM   22  C   UNL     1     -44.014  57.223 -55.206  1.00  0.00     0.045 A 
HETATM   23  H   UNL     1     -44.930  58.820 -54.186  1.00  0.00     0.166 HD
HETATM   24  C   UNL     1     -43.976  57.581 -56.563  1.00  0.00     0.067 A 
HETATM   25  C   UNL     1     -43.525  56.012 -54.730  1.00  0.00    -0.007 A 
HETATM   26  C   UNL     1     -43.404  56.668 -57.458  1.00  0.00     0.070 A 
HETATM   27  C   UNL     1     -42.930  55.436 -57.002  1.00  0.00     0.038 A 
HETATM   28  C   UNL     1     -42.983  55.092 -55.645  1.00  0.00     0.016 A 
HETATM   29  C   UNL     1     -43.695  56.026 -53.321  1.00  0.00     0.049 A 
BRANCH  26  30
HETATM   30  O   UNL     1     -43.262  56.865 -58.806  1.00  0.00    -0.356 OA
HETATM   31  C   UNL     1     -44.092  56.084 -59.654  1.00  0.00     0.210 C 
ENDBRANCH  26  30
ENDBRANCH   1  20
TORSDOF 8
ENDMDL
MODEL 2
REMARK VINA RESULT:      -7.7      2.461      6.934
REMARK  8 active torsions:
REMARK  status: ('A' for Active; 'I' for Inactive)
REMARK    1  A    between atoms: O_2  and  C_3 
REMARK    2  A    between atoms: C_11  and  C_12 
REMARK       I    between atoms: C_12  and  N_13 
REMARK    3  A    between atoms: N_13  and  C_14 
REMARK    4  A    between atoms: C_14  and  C_15 
REMARK    5  A    between atoms: C_15  and  C_16 
REMARK    6  A    between atoms: C_16  and  C_17 
REMARK    7  A    between atoms: C_17  and  O_18 
REMARK    8  A    between atoms: O_18  and  C_19 
ROOT
HETATM    1  C   UNL     1     -43.666  56.941 -51.136  1.00  0.00     0.268 C 
HETATM    2  N   UNL     1     -43.266  58.243 -50.987  1.00  0.00    -0.345 N 
HETATM    3  O   UNL     1     -44.751  56.645 -50.635  1.00  0.00    -0.266 OA
HETATM    4  H   UNL     1     -43.944  58.764 -50.446  1.00  0.00     0.163 HD
ENDROOT
BRANCH   2   5
HETATM    5  C   UNL     1     -42.095  58.961 -51.424  1.00  0.00     0.217 C 
BRANCH   5   6
HETATM    6  C   UNL     1     -42.242  59.494 -52.839  1.00  0.00    -0.085 C 
BRANCH   6   7
HETATM    7  C   UNL     1     -42.369  59.951 -54.054  1.00  0.00    -0.078 C 
BRANCH   7   8
HETATM    8  C   UNL     1     -42.517  60.484 -55.470  1.00  0.00     0.269 C 
BRANCH   8   9
HETATM    9  O   UNL     1     -41.514  59.898 -56.287  1.00  0.00    -0.337 OA
BRANCH   9  10
HETATM   10  C   UNL     1     -41.822  59.650 -57.609  1.00  0.00     0.099 A 
HETATM   11  C   UNL     1     -42.264  58.343 -57.894  1.00  0.00     0.100 A 
HETATM   12  C   UNL     1     -42.581  58.030 -59.236  1.00  0.00    -0.005 A 
HETATM   13  N   UNL     1     -42.387  57.409 -56.921  1.00  0.00    -0.257 NA
HETATM   14  C   UNL     1     -43.025  56.736 -59.538  1.00  0.00     0.015 A 
HETATM   15  C   UNL     1     -42.454  58.995 -60.247  1.00  0.00     0.014 A 
HETATM   16  C   UNL     1     -43.150  55.791 -58.529  1.00  0.00     0.020 A 
HETATM   17  C   UNL     1     -42.822  56.174 -57.246  1.00  0.00     0.117 A 
HETATM   18  C   UNL     1     -42.015  60.278 -59.943  1.00  0.00     0.004 A 
HETATM   19  C   UNL     1     -41.699  60.607 -58.628  1.00  0.00     0.039 A 
ENDBRANCH   9  10
ENDBRANCH   8   9
ENDBRANCH   7   8
ENDBRANCH   6   7
ENDBRANCH   5   6
ENDBRANCH   2   5
BRANCH   1  20
HETATM   20  C   UNL     1     -42.832  55.961 -51.796  1.00  0.00     0.102 A 
HETATM   21  N   UNL     1     -41.902  55.117 -51.235  1.00  0.00    -0.351 N 
HETATM   22  C   UNL     1     -41.403  54.233 -52.164  1.00  0.00     0.045 A 
HETATM   23  H   UNL     1     -41.654  55.094 -50.260  1.00  0.00     0.166 HD
HETATM   24  C   UNL     1     -40.530  53.145 -52.002  1.00  0.00     0.067 A 
HETATM   25  C   UNL     1     -41.935  54.598 -53.395  1.00  0.00    -0.007 A 
HETATM   26  C   UNL     1     -40.205  52.401 -53.143  1.00  0.00     0.070 A 
HETATM   27  C   UNL     1     -40.709  52.767 -54.392  1.00  0.00     0.038 A 
HETATM   28  C   UNL     1     -41.573  53.861 -54.536  1.00  0.00     0.016 A 
HETATM   29  C   UNL     1     -42.795  55.702 -53.160  1.00  0.00     0.049 A 
BRANCH  26  30
HETATM   30  O   UNL     1     -39.392  51.298 -53.162  1.00  0.00    -0.356 OA
HETATM   31  C   UNL     1     -39.720  50.283 -54.101  1.00  0.00     0.210 C 
ENDBRANCH  26  30
ENDBRANCH   1  20
TORSDOF 8
ENDMDL
MODEL 3
REMARK VINA RESULT:      -7.7      2.423      7.232
REMARK  8 active torsions:
REMARK  status: ('A' for Active; 'I' for Inactive)
REMARK    1  A    between atoms: O_2  and  C_3 
REMARK    2  A    between atoms: C_11  and  C_12 
REMARK       I    between atoms: C_12  and  N_13 
REMARK    3  A    between atoms: N_13  and  C_14 
REMARK    4  A    between atoms: C_14  and  C_15 
REMARK    5  A    between atoms: C_15  and  C_16 
REMARK    6  A    between atoms: C_16  and  C_17 
REMARK    7  A    between atoms: C_17  and  O_18 
REMARK    8  A    between atoms: O_18  and  C_19 
ROOT
HETATM    1  C   UNL     1     -41.836  57.734 -50.971  1.00  0.00     0.268 C 
HETATM    2  N   UNL     1     -43.157  58.073 -50.836  1.00  0.00    -0.345 N 
HETATM    3  O   UNL     1     -41.029  58.434 -50.359  1.00  0.00    -0.266 OA
HETATM    4  H   UNL     1     -43.256  58.892 -50.251  1.00  0.00     0.163 HD
ENDROOT
BRANCH   2   5
HETATM    5  C   UNL     1     -44.370  57.509 -51.375  1.00  0.00     0.217 C 
BRANCH   5   6
HETATM    6  C   UNL     1     -44.392  57.536 -52.894  1.00  0.00    -0.085 C 
BRANCH   6   7
HETATM    7  C   UNL     1     -44.411  57.559 -54.197  1.00  0.00    -0.078 C 
BRANCH   7   8
HETATM    8  C   UNL     1     -44.434  57.586 -55.717  1.00  0.00     0.269 C 
BRANCH   8   9
HETATM    9  O   UNL     1     -43.117  57.366 -56.199  1.00  0.00    -0.337 OA
BRANCH   9  10
HETATM   10  C   UNL     1     -42.956  57.112 -57.545  1.00  0.00     0.099 A 
HETATM   11  C   UNL     1     -42.593  58.222 -58.333  1.00  0.00     0.100 A 
HETATM   12  C   UNL     1     -42.428  58.021 -59.723  1.00  0.00    -0.005 A 
HETATM   13  N   UNL     1     -42.403  59.447 -57.787  1.00  0.00    -0.257 NA
HETATM   14  C   UNL     1     -42.064  59.113 -60.522  1.00  0.00     0.015 A 
HETATM   15  C   UNL     1     -42.625  56.754 -60.293  1.00  0.00     0.014 A 
HETATM   16  C   UNL     1     -41.868  60.361 -59.946  1.00  0.00     0.020 A 
HETATM   17  C   UNL     1     -42.048  60.475 -58.584  1.00  0.00     0.117 A 
HETATM   18  C   UNL     1     -42.984  55.673 -59.497  1.00  0.00     0.004 A 
HETATM   19  C   UNL     1     -43.150  55.849 -58.127  1.00  0.00     0.039 A 
ENDBRANCH   9  10
ENDBRANCH   8   9
ENDBRANCH   7   8
ENDBRANCH   6   7
ENDBRANCH   5   6
ENDBRANCH   2   5
BRANCH   1  20
HETATM   20  C   UNL     1     -41.415  56.648 -51.829  1.00  0.00     0.102 A 
HETATM   21  N   UNL     1     -41.316  55.311 -51.523  1.00  0.00    -0.351 N 
HETATM   22  C   UNL     1     -41.007  54.563 -52.637  1.00  0.00     0.045 A 
HETATM   23  H   UNL     1     -41.503  54.907 -50.620  1.00  0.00     0.166 HD
HETATM   24  C   UNL     1     -40.921  53.171 -52.799  1.00  0.00     0.067 A 
HETATM   25  C   UNL     1     -40.776  55.461 -53.674  1.00  0.00    -0.007 A 
HETATM   26  C   UNL     1     -40.600  52.687 -54.073  1.00  0.00     0.070 A 
HETATM   27  C   UNL     1     -40.339  53.573 -55.120  1.00  0.00     0.038 A 
HETATM   28  C   UNL     1     -40.423  54.960 -54.938  1.00  0.00     0.016 A 
HETATM   29  C   UNL     1     -40.995  56.761 -53.147  1.00  0.00     0.049 A 
BRANCH  26  30
HETATM   30  O   UNL     1     -40.500  51.363 -54.413  1.00  0.00    -0.356 OA
HETATM   31  C   UNL     1     -39.578  50.582 -53.664  1.00  0.00     0.210 C 
ENDBRANCH  26  30
ENDBRANCH   1  20
TORSDOF 8
ENDMDL
MODEL 4
REMARK VINA RESULT:      -7.7      2.385      3.788
REMARK  8 active torsions:
REMARK  status: ('A' for Active; 'I' for Inactive)
REMARK    1  A    between atoms: O_2  and  C_3 
REMARK    2  A    between atoms: C_11  and  C_12 
REMARK       I    between atoms: C_12  and  N_13 
REMARK    3  A    between atoms: N_13  and  C_14 
REMARK    4  A    between atoms: C_14  and  C_15 
REMARK    5  A    between atoms: C_15  and  C_16 
REMARK    6  A    between atoms: C_16  and  C_17 
REMARK    7  A    between atoms: C_17  and  O_18 
REMARK    8  A    between atoms: O_18  and  C_19 
ROOT
HETATM    1  C   UNL     1     -42.277  59.968 -56.542  1.00  0.00     0.268 C 
HETATM    2  N   UNL     1     -42.764  60.426 -55.346  1.00  0.00    -0.345 N 
HETATM    3  O   UNL     1     -41.292  60.557 -56.990  1.00  0.00    -0.266 OA
HETATM    4  H   UNL     1     -42.228  61.221 -55.025  1.00  0.00     0.163 HD
ENDROOT
BRANCH   2   5
HETATM    5  C   UNL     1     -43.867  60.008 -54.517  1.00  0.00     0.217 C 
BRANCH   5   6
HETATM    6  C   UNL     1     -43.526  58.788 -53.677  1.00  0.00    -0.085 C 
BRANCH   6   7
HETATM    7  C   UNL     1     -43.232  57.742 -52.957  1.00  0.00    -0.078 C 
BRANCH   7   8
HETATM    8  C   UNL     1     -42.890  56.521 -52.118  1.00  0.00     0.269 C 
BRANCH   8   9
HETATM    9  O   UNL     1     -41.502  56.248 -52.251  1.00  0.00    -0.337 OA
BRANCH   9  10
HETATM   10  C   UNL     1     -41.122  55.248 -53.122  1.00  0.00     0.099 A 
HETATM   11  C   UNL     1     -40.661  54.062 -52.518  1.00  0.00     0.100 A 
HETATM   12  C   UNL     1     -40.246  53.008 -53.364  1.00  0.00    -0.005 A 
HETATM   13  N   UNL     1     -40.615  53.924 -51.171  1.00  0.00    -0.257 NA
HETATM   14  C   UNL     1     -39.787  51.818 -52.780  1.00  0.00     0.015 A 
HETATM   15  C   UNL     1     -40.291  53.147 -54.759  1.00  0.00     0.014 A 
HETATM   16  C   UNL     1     -39.751  51.691 -51.399  1.00  0.00     0.020 A 
HETATM   17  C   UNL     1     -40.173  52.764 -50.643  1.00  0.00     0.117 A 
HETATM   18  C   UNL     1     -40.748  54.327 -55.333  1.00  0.00     0.004 A 
HETATM   19  C   UNL     1     -41.163  55.377 -54.519  1.00  0.00     0.039 A 
ENDBRANCH   9  10
ENDBRANCH   8   9
ENDBRANCH   7   8
ENDBRANCH   6   7
ENDBRANCH   5   6
ENDBRANCH   2   5
BRANCH   1  20
HETATM   20  C   UNL     1     -42.920  58.890 -57.262  1.00  0.00     0.102 A 
HETATM   21  N   UNL     1     -44.123  58.910 -57.927  1.00  0.00    -0.351 N 
HETATM   22  C   UNL     1     -44.341  57.731 -58.605  1.00  0.00     0.045 A 
HETATM   23  H   UNL     1     -44.748  59.698 -57.974  1.00  0.00     0.166 HD
HETATM   24  C   UNL     1     -45.371  57.369 -59.487  1.00  0.00     0.067 A 
HETATM   25  C   UNL     1     -43.300  56.873 -58.265  1.00  0.00    -0.007 A 
HETATM   26  C   UNL     1     -45.322  56.088 -60.049  1.00  0.00     0.070 A 
HETATM   27  C   UNL     1     -44.300  55.204 -59.701  1.00  0.00     0.038 A 
HETATM   28  C   UNL     1     -43.283  55.579 -58.812  1.00  0.00     0.016 A 
HETATM   29  C   UNL     1     -42.441  57.594 -57.396  1.00  0.00     0.049 A 
BRANCH  26  30
HETATM   30  O   UNL     1     -46.228  55.583 -60.945  1.00  0.00    -0.356 OA
HETATM   31  C   UNL     1     -47.338  56.411 -61.262  1.00  0.00     0.210 C 
ENDBRANCH  26  30
ENDBRANCH   1  20
TORSDOF 8
ENDMDL
MODEL 5
REMARK VINA RESULT:      -7.6      2.373      7.109
REMARK  8 active torsions:
REMARK  status: ('A' for Active; 'I' for Inactive)
REMARK    1  A    between atoms: O_2  and  C_3 
REMARK    2  A    between atoms: C_11  and  C_12 
REMARK       I    between atoms: C_12  and  N_13 
REMARK    3  A    between atoms: N_13  and  C_14 
REMARK    4  A    between atoms: C_14  and  C_15 
REMARK    5  A    between atoms: C_15  and  C_16 
REMARK    6  A    between atoms: C_16  and  C_17 
REMARK    7  A    between atoms: C_17  and  O_18 
REMARK    8  A    between atoms: O_18  and  C_19 
ROOT
HETATM    1  C   UNL     1     -43.609  56.738 -51.076  1.00  0.00     0.268 C 
HETATM    2  N   UNL     1     -43.142  58.010 -50.876  1.00  0.00    -0.345 N 
HETATM    3  O   UNL     1     -44.723  56.489 -50.613  1.00  0.00    -0.266 OA
HETATM    4  H   UNL     1     -43.804  58.553 -50.337  1.00  0.00     0.163 HD
ENDROOT
BRANCH   2   5
HETATM    5  C   UNL     1     -41.920  58.674 -51.260  1.00  0.00     0.217 C 
BRANCH   5   6
HETATM    6  C   UNL     1     -41.955  59.154 -52.701  1.00  0.00    -0.085 C 
BRANCH   6   7
HETATM    7  C   UNL     1     -41.985  59.566 -53.938  1.00  0.00    -0.078 C 
BRANCH   7   8
HETATM    8  C   UNL     1     -42.021  60.048 -55.379  1.00  0.00     0.269 C 
BRANCH   8   9
HETATM    9  O   UNL     1     -43.172  59.511 -56.014  1.00  0.00    -0.337 OA
BRANCH   9  10
HETATM   10  C   UNL     1     -43.020  58.364 -56.765  1.00  0.00     0.099 A 
HETATM   11  C   UNL     1     -42.656  58.565 -58.111  1.00  0.00     0.100 A 
HETATM   12  C   UNL     1     -42.499  57.424 -58.931  1.00  0.00    -0.005 A 
HETATM   13  N   UNL     1     -42.459  59.807 -58.614  1.00  0.00    -0.257 NA
HETATM   14  C   UNL     1     -42.135  57.604 -60.272  1.00  0.00     0.015 A 
HETATM   15  C   UNL     1     -42.704  56.135 -58.414  1.00  0.00     0.014 A 
HETATM   16  C   UNL     1     -41.932  58.883 -60.771  1.00  0.00     0.020 A 
HETATM   17  C   UNL     1     -42.104  59.944 -59.908  1.00  0.00     0.117 A 
HETATM   18  C   UNL     1     -43.063  55.961 -57.083  1.00  0.00     0.004 A 
HETATM   19  C   UNL     1     -43.221  57.070 -56.258  1.00  0.00     0.039 A 
ENDBRANCH   9  10
ENDBRANCH   8   9
ENDBRANCH   7   8
ENDBRANCH   6   7
ENDBRANCH   5   6
ENDBRANCH   2   5
BRANCH   1  20
HETATM   20  C   UNL     1     -42.813  55.733 -51.745  1.00  0.00     0.102 A 
HETATM   21  N   UNL     1     -41.792  54.971 -51.226  1.00  0.00    -0.351 N 
HETATM   22  C   UNL     1     -41.362  54.027 -52.130  1.00  0.00     0.045 A 
HETATM   23  H   UNL     1     -41.435  55.042 -50.287  1.00  0.00     0.166 HD
HETATM   24  C   UNL     1     -40.431  52.987 -51.981  1.00  0.00     0.067 A 
HETATM   25  C   UNL     1     -42.044  54.266 -53.318  1.00  0.00    -0.007 A 
HETATM   26  C   UNL     1     -40.204  52.157 -53.086  1.00  0.00     0.070 A 
HETATM   27  C   UNL     1     -40.860  52.397 -54.294  1.00  0.00     0.038 A 
HETATM   28  C   UNL     1     -41.780  53.445 -54.428  1.00  0.00     0.016 A 
HETATM   29  C   UNL     1     -42.918  55.357 -53.077  1.00  0.00     0.049 A 
BRANCH  26  30
HETATM   30  O   UNL     1     -39.352  51.084 -53.107  1.00  0.00    -0.356 OA
HETATM   31  C   UNL     1     -39.653  50.052 -54.036  1.00  0.00     0.210 C 
ENDBRANCH  26  30
ENDBRANCH   1  20
TORSDOF 8
ENDMDL
MODEL 6
REMARK VINA RESULT:      -7.6      2.402      4.026
REMARK  8 active torsions:
REMARK  status: ('A' for Active; 'I' for Inactive)
REMARK    1  A    between atoms: O_2  and  C_3 
REMARK    2  A    between atoms: C_11  and  C_12 
REMARK       I    between atoms: C_12  and  N_13 
REMARK    3  A    between atoms: N_13  and  C_14 
REMARK    4  A    between atoms: C_14  and  C_15 
REMARK    5  A    between atoms: C_15  and  C_16 
REMARK    6  A    between atoms: C_16  and  C_17 
REMARK    7  A    between atoms: C_17  and  O_18 
REMARK    8  A    between atoms: O_18  and  C_19 
ROOT
HETATM    1  C   UNL     1     -42.383  59.572 -56.597  1.00  0.00     0.268 C 
HETATM    2  N   UNL     1     -42.825  59.862 -55.333  1.00  0.00    -0.345 N 
HETATM    3  O   UNL     1     -41.425  60.231 -57.003  1.00  0.00    -0.266 OA
HETATM    4  H   UNL     1     -42.286  60.618 -54.932  1.00  0.00     0.163 HD
ENDROOT
BRANCH   2   5
HETATM    5  C   UNL     1     -43.888  59.321 -54.522  1.00  0.00     0.217 C 
BRANCH   5   6
HETATM    6  C   UNL     1     -43.717  57.832 -54.270  1.00  0.00    -0.085 C 
BRANCH   6   7
HETATM    7  C   UNL     1     -43.571  56.554 -54.055  1.00  0.00    -0.078 C 
BRANCH   7   8
HETATM    8  C   UNL     1     -43.400  55.064 -53.804  1.00  0.00     0.269 C 
BRANCH   8   9
HETATM    9  O   UNL     1     -42.032  54.725 -53.978  1.00  0.00    -0.337 OA
BRANCH   9  10
HETATM   10  C   UNL     1     -41.343  54.245 -52.884  1.00  0.00     0.099 A 
HETATM   11  C   UNL     1     -40.773  52.966 -53.040  1.00  0.00     0.100 A 
HETATM   12  C   UNL     1     -40.065  52.419 -51.945  1.00  0.00    -0.005 A 
HETATM   13  N   UNL     1     -40.890  52.274 -54.199  1.00  0.00    -0.257 NA
HETATM   14  C   UNL     1     -39.489  51.149 -52.084  1.00  0.00     0.015 A 
HETATM   15  C   UNL     1     -39.942  53.131 -50.742  1.00  0.00     0.014 A 
HETATM   16  C   UNL     1     -39.614  50.455 -53.279  1.00  0.00     0.020 A 
HETATM   17  C   UNL     1     -40.319  51.057 -54.300  1.00  0.00     0.117 A 
HETATM   18  C   UNL     1     -40.513  54.390 -50.610  1.00  0.00     0.004 A 
HETATM   19  C   UNL     1     -41.213  54.948 -51.676  1.00  0.00     0.039 A 
ENDBRANCH   9  10
ENDBRANCH   8   9
ENDBRANCH   7   8
ENDBRANCH   6   7
ENDBRANCH   5   6
ENDBRANCH   2   5
BRANCH   1  20
HETATM   20  C   UNL     1     -43.043  58.586 -57.425  1.00  0.00     0.102 A 
HETATM   21  N   UNL     1     -44.282  58.662 -58.016  1.00  0.00    -0.351 N 
HETATM   22  C   UNL     1     -44.512  57.582 -58.839  1.00  0.00     0.045 A 
HETATM   23  H   UNL     1     -44.925  59.430 -57.919  1.00  0.00     0.166 HD
HETATM   24  C   UNL     1     -45.583  57.316 -59.707  1.00  0.00     0.067 A 
HETATM   25  C   UNL     1     -43.436  56.717 -58.679  1.00  0.00    -0.007 A 
HETATM   26  C   UNL     1     -45.539  56.126 -60.444  1.00  0.00     0.070 A 
HETATM   27  C   UNL     1     -44.479  55.233 -60.278  1.00  0.00     0.038 A 
HETATM   28  C   UNL     1     -43.422  55.511 -59.401  1.00  0.00     0.016 A 
HETATM   29  C   UNL     1     -42.544  57.335 -57.764  1.00  0.00     0.049 A 
BRANCH  26  30
HETATM   30  O   UNL     1     -46.482  55.723 -61.352  1.00  0.00    -0.356 OA
HETATM   31  C   UNL     1     -47.646  56.532 -61.460  1.00  0.00     0.210 C 
ENDBRANCH  26  30
ENDBRANCH   1  20
TORSDOF 8
ENDMDL
MODEL 7
REMARK VINA RESULT:      -7.5      2.092      7.220
REMARK  8 active torsions:
REMARK  status: ('A' for Active; 'I' for Inactive)
REMARK    1  A    between atoms: O_2  and  C_3 
REMARK    2  A    between atoms: C_11  and  C_12 
REMARK       I    between atoms: C_12  and  N_13 
REMARK    3  A    between atoms: N_13  and  C_14 
REMARK    4  A    between atoms: C_14  and  C_15 
REMARK    5  A    between atoms: C_15  and  C_16 
REMARK    6  A    between atoms: C_16  and  C_17 
REMARK    7  A    between atoms: C_17  and  O_18 
REMARK    8  A    between atoms: O_18  and  C_19 
ROOT
HETATM    1  C   UNL     1     -43.733  56.619 -51.080  1.00  0.00     0.268 C 
HETATM    2  N   UNL     1     -43.411  57.950 -51.057  1.00  0.00    -0.345 N 
HETATM    3  O   UNL     1     -44.746  56.294 -50.458  1.00  0.00    -0.266 OA
HETATM    4  H   UNL     1     -44.070  58.467 -50.490  1.00  0.00     0.163 HD
ENDROOT
BRANCH   2   5
HETATM    5  C   UNL     1     -42.335  58.705 -51.652  1.00  0.00     0.217 C 
BRANCH   5   6
HETATM    6  C   UNL     1     -42.501  58.855 -53.155  1.00  0.00    -0.085 C 
BRANCH   6   7
HETATM    7  C   UNL     1     -42.643  58.983 -54.445  1.00  0.00    -0.078 C 
BRANCH   7   8
HETATM    8  C   UNL     1     -42.809  59.133 -55.948  1.00  0.00     0.269 C 
BRANCH   8   9
HETATM    9  O   UNL     1     -43.249  57.895 -56.486  1.00  0.00    -0.337 OA
BRANCH   9  10
HETATM   10  C   UNL     1     -44.446  57.879 -57.172  1.00  0.00     0.099 A 
HETATM   11  C   UNL     1     -44.473  57.068 -58.324  1.00  0.00     0.100 A 
HETATM   12  C   UNL     1     -45.671  57.024 -59.074  1.00  0.00    -0.005 A 
HETATM   13  N   UNL     1     -43.393  56.348 -58.710  1.00  0.00    -0.257 NA
HETATM   14  C   UNL     1     -45.717  56.221 -60.222  1.00  0.00     0.015 A 
HETATM   15  C   UNL     1     -46.792  57.770 -58.680  1.00  0.00     0.014 A 
HETATM   16  C   UNL     1     -44.603  55.485 -60.600  1.00  0.00     0.020 A 
HETATM   17  C   UNL     1     -43.473  55.581 -59.816  1.00  0.00     0.117 A 
HETATM   18  C   UNL     1     -46.742  58.564 -57.540  1.00  0.00     0.004 A 
HETATM   19  C   UNL     1     -45.573  58.620 -56.787  1.00  0.00     0.039 A 
ENDBRANCH   9  10
ENDBRANCH   8   9
ENDBRANCH   7   8
ENDBRANCH   6   7
ENDBRANCH   5   6
ENDBRANCH   2   5
BRANCH   1  20
HETATM   20  C   UNL     1     -42.899  55.646 -51.751  1.00  0.00     0.102 A 
HETATM   21  N   UNL     1     -41.820  54.957 -51.246  1.00  0.00    -0.351 N 
HETATM   22  C   UNL     1     -41.362  54.019 -52.143  1.00  0.00     0.045 A 
HETATM   23  H   UNL     1     -41.443  55.069 -50.320  1.00  0.00     0.166 HD
HETATM   24  C   UNL     1     -40.367  53.038 -51.999  1.00  0.00     0.067 A 
HETATM   25  C   UNL     1     -42.089  54.191 -53.315  1.00  0.00    -0.007 A 
HETATM   26  C   UNL     1     -40.123  52.198 -53.093  1.00  0.00     0.070 A 
HETATM   27  C   UNL     1     -40.826  52.373 -54.286  1.00  0.00     0.038 A 
HETATM   28  C   UNL     1     -41.809  53.362 -54.415  1.00  0.00     0.016 A 
HETATM   29  C   UNL     1     -43.018  55.236 -53.072  1.00  0.00     0.049 A 
BRANCH  26  30
HETATM   30  O   UNL     1     -39.212  51.176 -53.116  1.00  0.00    -0.356 OA
HETATM   31  C   UNL     1     -39.666  49.930 -53.627  1.00  0.00     0.210 C 
ENDBRANCH  26  30
ENDBRANCH   1  20
TORSDOF 8
ENDMDL
MODEL 8
REMARK VINA RESULT:      -7.5      2.270      7.293
REMARK  8 active torsions:
REMARK  status: ('A' for Active; 'I' for Inactive)
REMARK    1  A    between atoms: O_2  and  C_3 
REMARK    2  A    between atoms: C_11  and  C_12 
REMARK       I    between atoms: C_12  and  N_13 
REMARK    3  A    between atoms: N_13  and  C_14 
REMARK    4  A    between atoms: C_14  and  C_15 
REMARK    5  A    between atoms: C_15  and  C_16 
REMARK    6  A    between atoms: C_16  and  C_17 
REMARK    7  A    between atoms: C_17  and  O_18 
REMARK    8  A    between atoms: O_18  and  C_19 
ROOT
HETATM    1  C   UNL     1     -41.995  57.819 -51.150  1.00  0.00     0.268 C 
HETATM    2  N   UNL     1     -43.306  58.216 -51.146  1.00  0.00    -0.345 N 
HETATM    3  O   UNL     1     -41.224  58.480 -50.454  1.00  0.00    -0.266 OA
HETATM    4  H   UNL     1     -43.428  59.037 -50.568  1.00  0.00     0.163 HD
ENDROOT
BRANCH   2   5
HETATM    5  C   UNL     1     -44.483  57.708 -51.808  1.00  0.00     0.217 C 
BRANCH   5   6
HETATM    6  C   UNL     1     -44.653  58.288 -53.203  1.00  0.00    -0.085 C 
BRANCH   6   7
HETATM    7  C   UNL     1     -44.799  58.785 -54.399  1.00  0.00    -0.078 C 
BRANCH   7   8
HETATM    8  C   UNL     1     -44.970  59.365 -55.794  1.00  0.00     0.269 C 
BRANCH   8   9
HETATM    9  O   UNL     1     -45.479  58.353 -56.651  1.00  0.00    -0.337 OA
BRANCH   9  10
HETATM   10  C   UNL     1     -44.588  57.699 -57.477  1.00  0.00     0.099 A 
HETATM   11  C   UNL     1     -45.151  57.095 -58.618  1.00  0.00     0.100 A 
HETATM   12  C   UNL     1     -44.286  56.399 -59.494  1.00  0.00    -0.005 A 
HETATM   13  N   UNL     1     -46.478  57.173 -58.880  1.00  0.00    -0.257 NA
HETATM   14  C   UNL     1     -44.828  55.794 -60.636  1.00  0.00     0.015 A 
HETATM   15  C   UNL     1     -42.911  56.314 -59.226  1.00  0.00     0.014 A 
HETATM   16  C   UNL     1     -46.189  55.888 -60.892  1.00  0.00     0.020 A 
HETATM   17  C   UNL     1     -46.966  56.584 -59.991  1.00  0.00     0.117 A 
HETATM   18  C   UNL     1     -42.377  56.917 -58.093  1.00  0.00     0.004 A 
HETATM   19  C   UNL     1     -43.211  57.608 -57.219  1.00  0.00     0.039 A 
ENDBRANCH   9  10
ENDBRANCH   8   9
ENDBRANCH   7   8
ENDBRANCH   6   7
ENDBRANCH   5   6
ENDBRANCH   2   5
BRANCH   1  20
HETATM   20  C   UNL     1     -41.537  56.718 -51.970  1.00  0.00     0.102 A 
HETATM   21  N   UNL     1     -41.400  55.395 -51.619  1.00  0.00    -0.351 N 
HETATM   22  C   UNL     1     -41.064  54.621 -52.706  1.00  0.00     0.045 A 
HETATM   23  H   UNL     1     -41.580  55.016 -50.704  1.00  0.00     0.166 HD
HETATM   24  C   UNL     1     -40.935  53.228 -52.822  1.00  0.00     0.067 A 
HETATM   25  C   UNL     1     -40.855  55.490 -53.772  1.00  0.00    -0.007 A 
HETATM   26  C   UNL     1     -40.593  52.711 -54.078  1.00  0.00     0.070 A 
HETATM   27  C   UNL     1     -40.355  53.569 -55.153  1.00  0.00     0.038 A 
HETATM   28  C   UNL     1     -40.481  54.958 -55.017  1.00  0.00     0.016 A 
HETATM   29  C   UNL     1     -41.115  56.800 -53.290  1.00  0.00     0.049 A 
BRANCH  26  30
HETATM   30  O   UNL     1     -40.453  51.380 -54.373  1.00  0.00    -0.356 OA
HETATM   31  C   UNL     1     -39.695  50.603 -53.457  1.00  0.00     0.210 C 
ENDBRANCH  26  30
ENDBRANCH   1  20
TORSDOF 8
ENDMDL
MODEL 9
REMARK VINA RESULT:      -7.4      2.029      2.990
REMARK  8 active torsions:
REMARK  status: ('A' for Active; 'I' for Inactive)
REMARK    1  A    between atoms: O_2  and  C_3 
REMARK    2  A    between atoms: C_11  and  C_12 
REMARK       I    between atoms: C_12  and  N_13 
REMARK    3  A    between atoms: N_13  and  C_14 
REMARK    4  A    between atoms: C_14  and  C_15 
REMARK    5  A    between atoms: C_15  and  C_16 
REMARK    6  A    between atoms: C_16  and  C_17 
REMARK    7  A    between atoms: C_17  and  O_18 
REMARK    8  A    between atoms: O_18  and  C_19 
ROOT
HETATM    1  C   UNL     1     -43.320  60.013 -52.330  1.00  0.00     0.268 C 
HETATM    2  N   UNL     1     -42.365  59.695 -51.401  1.00  0.00    -0.345 N 
HETATM    3  O   UNL     1     -44.277  60.674 -51.923  1.00  0.00    -0.266 OA
HETATM    4  H   UNL     1     -42.623  60.049 -50.489  1.00  0.00     0.163 HD
ENDROOT
BRANCH   2   5
HETATM    5  C   UNL     1     -41.127  58.961 -51.485  1.00  0.00     0.217 C 
BRANCH   5   6
HETATM    6  C   UNL     1     -41.181  57.651 -50.716  1.00  0.00    -0.085 C 
BRANCH   6   7
HETATM    7  C   UNL     1     -41.229  56.528 -50.057  1.00  0.00    -0.078 C 
BRANCH   7   8
HETATM    8  C   UNL     1     -41.285  55.217 -49.288  1.00  0.00     0.269 C 
BRANCH   8   9
HETATM    9  O   UNL     1     -42.010  54.267 -50.055  1.00  0.00    -0.337 OA
BRANCH   9  10
HETATM   10  C   UNL     1     -41.341  53.607 -51.065  1.00  0.00     0.099 A 
HETATM   11  C   UNL     1     -41.865  53.791 -52.359  1.00  0.00     0.100 A 
HETATM   12  C   UNL     1     -41.226  53.127 -53.432  1.00  0.00    -0.005 A 
HETATM   13  N   UNL     1     -42.943  54.579 -52.583  1.00  0.00    -0.257 NA
HETATM   14  C   UNL     1     -41.731  53.301 -54.728  1.00  0.00     0.015 A 
HETATM   15  C   UNL     1     -40.109  52.308 -53.205  1.00  0.00     0.014 A 
HETATM   16  C   UNL     1     -42.834  54.115 -54.940  1.00  0.00     0.020 A 
HETATM   17  C   UNL     1     -43.400  54.729 -53.843  1.00  0.00     0.117 A 
HETATM   18  C   UNL     1     -39.610  52.140 -51.919  1.00  0.00     0.004 A 
HETATM   19  C   UNL     1     -40.223  52.786 -50.850  1.00  0.00     0.039 A 
ENDBRANCH   9  10
ENDBRANCH   8   9
ENDBRANCH   7   8
ENDBRANCH   6   7
ENDBRANCH   5   6
ENDBRANCH   2   5
BRANCH   1  20
HETATM   20  C   UNL     1     -43.234  59.550 -53.698  1.00  0.00     0.102 A 
HETATM   21  N   UNL     1     -42.602  60.150 -54.762  1.00  0.00    -0.351 N 
HETATM   22  C   UNL     1     -42.622  59.343 -55.877  1.00  0.00     0.045 A 
HETATM   23  H   UNL     1     -42.127  61.037 -54.729  1.00  0.00     0.166 HD
HETATM   24  C   UNL     1     -42.009  59.512 -57.129  1.00  0.00     0.067 A 
HETATM   25  C   UNL     1     -43.401  58.236 -55.559  1.00  0.00    -0.007 A 
HETATM   26  C   UNL     1     -42.193  58.502 -58.081  1.00  0.00     0.070 A 
HETATM   27  C   UNL     1     -42.993  57.395 -57.789  1.00  0.00     0.038 A 
HETATM   28  C   UNL     1     -43.603  57.247 -56.537  1.00  0.00     0.016 A 
HETATM   29  C   UNL     1     -43.810  58.395 -54.210  1.00  0.00     0.049 A 
BRANCH  26  30
HETATM   30  O   UNL     1     -41.649  58.492 -59.338  1.00  0.00    -0.356 OA
HETATM   31  C   UNL     1     -42.202  57.566 -60.263  1.00  0.00     0.210 C 
ENDBRANCH  26  30
ENDBRANCH   1  20
TORSDOF 8
ENDMDL
MODEL 10
REMARK VINA RESULT:      -7.2      2.269      6.336
REMARK  8 active torsions:
REMARK  status: ('A' for Active; 'I' for Inactive)
REMARK    1  A    between atoms: O_2  and  C_3 
REMARK    2  A    between atoms: C_11  and  C_12 
REMARK       I    between atoms: C_12  and  N_13 
REMARK    3  A    between atoms: N_13  and  C_14 
REMARK    4  A    between atoms: C_14  and  C_15 
REMARK    5  A    between atoms: C_15  and  C_16 
REMARK    6  A    between atoms: C_16  and  C_17 
REMARK    7  A    between atoms: C_17  and  O_18 
REMARK    8  A    between atoms: O_18  and  C_19 
ROOT
HETATM    1  C   UNL     1     -43.960  57.043 -57.848  1.00  0.00     0.268 C 
HETATM    2  N   UNL     1     -45.142  57.685 -57.589  1.00  0.00    -0.345 N 
HETATM    3  O   UNL     1     -43.576  57.061 -59.018  1.00  0.00    -0.266 OA
HETATM    4  H   UNL     1     -45.535  58.064 -58.440  1.00  0.00     0.163 HD
ENDROOT
BRANCH   2   5
HETATM    5  C   UNL     1     -45.899  57.886 -56.378  1.00  0.00     0.217 C 
BRANCH   5   6
HETATM    6  C   UNL     1     -45.159  58.754 -55.374  1.00  0.00    -0.085 C 
BRANCH   6   7
HETATM    7  C   UNL     1     -44.524  59.498 -54.512  1.00  0.00    -0.078 C 
BRANCH   7   8
HETATM    8  C   UNL     1     -43.784  60.366 -53.507  1.00  0.00     0.269 C 
BRANCH   8   9
HETATM    9  O   UNL     1     -43.931  59.798 -52.214  1.00  0.00    -0.337 OA
BRANCH   9  10
HETATM   10  C   UNL     1     -42.796  59.344 -51.576  1.00  0.00     0.099 A 
HETATM   11  C   UNL     1     -42.715  57.949 -51.401  1.00  0.00     0.100 A 
HETATM   12  C   UNL     1     -41.578  57.429 -50.740  1.00  0.00    -0.005 A 
HETATM   13  N   UNL     1     -43.689  57.121 -51.850  1.00  0.00    -0.257 NA
HETATM   14  C   UNL     1     -41.479  56.043 -50.560  1.00  0.00     0.015 A 
HETATM   15  C   UNL     1     -40.568  58.283 -50.272  1.00  0.00     0.014 A 
HETATM   16  C   UNL     1     -42.483  55.207 -51.030  1.00  0.00     0.020 A 
HETATM   17  C   UNL     1     -43.560  55.791 -51.665  1.00  0.00     0.117 A 
HETATM   18  C   UNL     1     -40.669  59.657 -50.455  1.00  0.00     0.004 A 
HETATM   19  C   UNL     1     -41.779  60.189 -51.104  1.00  0.00     0.039 A 
ENDBRANCH   9  10
ENDBRANCH   8   9
ENDBRANCH   7   8
ENDBRANCH   6   7
ENDBRANCH   5   6
ENDBRANCH   2   5
BRANCH   1  20
HETATM   20  C   UNL     1     -43.235  56.338 -56.813  1.00  0.00     0.102 A 
HETATM   21  N   UNL     1     -43.418  55.047 -56.374  1.00  0.00    -0.351 N 
HETATM   22  C   UNL     1     -42.449  54.685 -55.465  1.00  0.00     0.045 A 
HETATM   23  H   UNL     1     -44.126  54.415 -56.710  1.00  0.00     0.166 HD
HETATM   24  C   UNL     1     -42.195  53.445 -54.858  1.00  0.00     0.067 A 
HETATM   25  C   UNL     1     -41.687  55.821 -55.214  1.00  0.00    -0.007 A 
HETATM   26  C   UNL     1     -41.112  53.368 -53.973  1.00  0.00     0.070 A 
HETATM   27  C   UNL     1     -40.351  54.504 -53.689  1.00  0.00     0.038 A 
HETATM   28  C   UNL     1     -40.624  55.735 -54.299  1.00  0.00     0.016 A 
HETATM   29  C   UNL     1     -42.211  56.856 -56.031  1.00  0.00     0.049 A 
BRANCH  26  30
HETATM   30  O   UNL     1     -40.708  52.236 -53.316  1.00  0.00    -0.356 OA
HETATM   31  C   UNL     1     -40.091  52.422 -52.049  1.00  0.00     0.210 C 
ENDBRANCH  26  30
ENDBRANCH   1  20
TORSDOF 8
ENDMDL
