MODEL 1
REMARK VINA RESULT:      -8.1      0.000      0.000
REMARK  3 active torsions:
REMARK  status: ('A' for Active; 'I' for Inactive)
REMARK    1  A    between atoms: C_6  and  C_7 
REMARK       I    between atoms: C_7  and  N_8 
REMARK    2  A    between atoms: N_8  and  C_9 
REMARK    3  A    between atoms: C_9  and  C_10 
ROOT
HETATM    1  C   UNL     1     -41.983  55.661 -51.551  1.00  0.00     0.271 C 
HETATM    2  N   UNL     1     -41.233  56.635 -52.162  1.00  0.00    -0.341 N 
HETATM    3  O   UNL     1     -43.168  55.833 -51.283  1.00  0.00    -0.266 OA
HETATM    4  H   UNL     1     -40.230  56.505 -52.220  1.00  0.00     0.164 HD
ENDROOT
BRANCH   1   5
HETATM    5  C   UNL     1     -41.271  54.444 -51.232  1.00  0.00     0.133 A 
HETATM    6  N   UNL     1     -40.895  53.487 -52.165  1.00  0.00    -0.300 N 
HETATM    7  C   UNL     1     -40.214  52.490 -51.473  1.00  0.00     0.135 A 
HETATM    8  C   UNL     1     -41.116  53.418 -53.544  1.00  0.00     0.100 A 
HETATM    9  C   UNL     1     -39.720  51.382 -52.219  1.00  0.00     0.057 A 
HETATM   10  N   UNL     1     -40.134  52.757 -50.191  1.00  0.00    -0.233 NA
HETATM   11  C   UNL     1     -39.921  51.311 -53.552  1.00  0.00    -0.057 A 
HETATM   12  C   UNL     1     -39.415  50.176 -54.389  1.00  0.00     0.048 C 
HETATM   13  C   UNL     1     -40.652  52.369 -54.244  1.00  0.00     0.024 A 
HETATM   14  C   UNL     1     -40.764  53.968 -50.024  1.00  0.00     0.066 A 
HETATM   15  C   UNL     1     -40.776  54.576 -48.670  1.00  0.00     0.073 C 
ENDBRANCH   1   5
BRANCH   2  16
HETATM   16  C   UNL     1     -41.723  57.961 -52.588  1.00  0.00     0.079 C 
HETATM   17  C   UNL     1     -42.358  58.705 -51.399  1.00  0.00     0.046 C 
HETATM   18  C   UNL     1     -40.574  58.782 -53.199  1.00  0.00     0.046 C 
BRANCH  16  19
HETATM   19  C   UNL     1     -42.787  57.682 -53.653  1.00  0.00     0.128 A 
HETATM   20  S   UNL     1     -44.388  58.318 -53.571  1.00  0.00    -0.031 SA
HETATM   21  C   UNL     1     -44.716  57.517 -55.052  1.00  0.00     0.187 A 
HETATM   22  N   UNL     1     -45.926  57.582 -55.636  1.00  0.00    -0.377 N 
HETATM   23  N   UNL     1     -43.693  56.843 -55.527  1.00  0.00    -0.124 NA
HETATM   24  H   UNL     1     -46.726  57.823 -55.064  1.00  0.00     0.158 HD
HETATM   25  H   UNL     1     -46.115  56.886 -56.350  1.00  0.00     0.158 HD
HETATM   26  N   UNL     1     -42.577  56.937 -54.724  1.00  0.00    -0.142 NA
ENDBRANCH  16  19
ENDBRANCH   2  16
TORSDOF 3
ENDMDL
MODEL 2
REMARK VINA RESULT:      -7.7      2.130      2.697
REMARK  3 active torsions:
REMARK  status: ('A' for Active; 'I' for Inactive)
REMARK    1  A    between atoms: C_6  and  C_7 
REMARK       I    between atoms: C_7  and  N_8 
REMARK    2  A    between atoms: N_8  and  C_9 
REMARK    3  A    between atoms: C_9  and  C_10 
ROOT
HETATM    1  C   UNL     1     -41.574  56.026 -52.010  1.00  0.00     0.271 C 
HETATM    2  N   UNL     1     -42.706  55.989 -52.786  1.00  0.00    -0.341 N 
HETATM    3  O   UNL     1     -41.004  57.081 -51.752  1.00  0.00    -0.266 OA
HETATM    4  H   UNL     1     -43.047  55.087 -53.098  1.00  0.00     0.164 HD
ENDROOT
BRANCH   1   5
HETATM    5  C   UNL     1     -41.101  54.740 -51.550  1.00  0.00     0.133 A 
HETATM    6  N   UNL     1     -40.706  53.703 -52.386  1.00  0.00    -0.300 N 
HETATM    7  C   UNL     1     -40.296  52.655 -51.568  1.00  0.00     0.135 A 
HETATM    8  C   UNL     1     -40.697  53.607 -53.781  1.00  0.00     0.100 A 
HETATM    9  C   UNL     1     -39.840  51.461 -52.196  1.00  0.00     0.057 A 
HETATM   10  N   UNL     1     -40.400  52.962 -50.297  1.00  0.00    -0.233 NA
HETATM   11  C   UNL     1     -39.818  51.362 -53.543  1.00  0.00    -0.057 A 
HETATM   12  C   UNL     1     -39.338  50.137 -54.259  1.00  0.00     0.048 C 
HETATM   13  C   UNL     1     -40.269  52.478 -54.370  1.00  0.00     0.024 A 
HETATM   14  C   UNL     1     -40.877  54.251 -50.264  1.00  0.00     0.066 A 
HETATM   15  C   UNL     1     -41.035  54.911 -48.944  1.00  0.00     0.073 C 
ENDBRANCH   1   5
BRANCH   2  16
HETATM   16  C   UNL     1     -43.386  57.159 -53.376  1.00  0.00     0.079 C 
HETATM   17  C   UNL     1     -42.358  58.111 -54.013  1.00  0.00     0.046 C 
HETATM   18  C   UNL     1     -44.428  56.702 -54.413  1.00  0.00     0.046 C 
BRANCH  16  19
HETATM   19  C   UNL     1     -44.086  57.858 -52.207  1.00  0.00     0.128 A 
HETATM   20  S   UNL     1     -43.725  59.474 -51.727  1.00  0.00    -0.031 SA
HETATM   21  C   UNL     1     -44.910  59.308 -50.497  1.00  0.00     0.187 A 
HETATM   22  N   UNL     1     -45.177  60.306 -49.636  1.00  0.00    -0.377 N 
HETATM   23  N   UNL     1     -45.496  58.132 -50.483  1.00  0.00    -0.124 NA
HETATM   24  H   UNL     1     -44.478  61.025 -49.497  1.00  0.00     0.158 HD
HETATM   25  H   UNL     1     -45.686  60.048 -48.796  1.00  0.00     0.158 HD
HETATM   26  N   UNL     1     -45.024  57.292 -51.469  1.00  0.00    -0.142 NA
ENDBRANCH  16  19
ENDBRANCH   2  16
TORSDOF 3
ENDMDL
MODEL 3
REMARK VINA RESULT:      -7.6      1.753      2.774
REMARK  3 active torsions:
REMARK  status: ('A' for Active; 'I' for Inactive)
REMARK    1  A    between atoms: C_6  and  C_7 
REMARK       I    between atoms: C_7  and  N_8 
REMARK    2  A    between atoms: N_8  and  C_9 
REMARK    3  A    between atoms: C_9  and  C_10 
ROOT
HETATM    1  C   UNL     1     -42.399  55.520 -51.980  1.00  0.00     0.271 C 
HETATM    2  N   UNL     1     -41.826  56.490 -52.765  1.00  0.00    -0.341 N 
HETATM    3  O   UNL     1     -43.576  55.581 -51.638  1.00  0.00    -0.266 OA
HETATM    4  H   UNL     1     -40.820  56.476 -52.889  1.00  0.00     0.164 HD
ENDROOT
BRANCH   1   5
HETATM    5  C   UNL     1     -41.515  54.452 -51.575  1.00  0.00     0.133 A 
HETATM    6  N   UNL     1     -41.081  53.432 -52.411  1.00  0.00    -0.300 N 
HETATM    7  C   UNL     1     -40.229  52.625 -51.662  1.00  0.00     0.135 A 
HETATM    8  C   UNL     1     -41.384  53.155 -53.748  1.00  0.00     0.100 A 
HETATM    9  C   UNL     1     -39.647  51.496 -52.304  1.00  0.00     0.057 A 
HETATM   10  N   UNL     1     -40.099  53.068 -50.433  1.00  0.00    -0.233 NA
HETATM   11  C   UNL     1     -39.927  51.226 -53.597  1.00  0.00    -0.057 A 
HETATM   12  C   UNL     1     -39.335  50.059 -54.328  1.00  0.00     0.048 C 
HETATM   13  C   UNL     1     -40.835  52.086 -54.350  1.00  0.00     0.024 A 
HETATM   14  C   UNL     1     -40.869  54.205 -50.364  1.00  0.00     0.066 A 
HETATM   15  C   UNL     1     -40.868  54.981 -49.099  1.00  0.00     0.073 C 
ENDBRANCH   1   5
BRANCH   2  16
HETATM   16  C   UNL     1     -42.512  57.679 -53.307  1.00  0.00     0.079 C 
HETATM   17  C   UNL     1     -41.699  58.286 -54.465  1.00  0.00     0.046 C 
HETATM   18  C   UNL     1     -43.933  57.309 -53.769  1.00  0.00     0.046 C 
BRANCH  16  19
HETATM   19  C   UNL     1     -42.585  58.675 -52.147  1.00  0.00     0.128 A 
HETATM   20  S   UNL     1     -44.074  59.217 -51.466  1.00  0.00    -0.031 SA
HETATM   21  C   UNL     1     -43.156  60.175 -50.377  1.00  0.00     0.187 A 
HETATM   22  N   UNL     1     -43.747  60.960 -49.459  1.00  0.00    -0.377 N 
HETATM   23  N   UNL     1     -41.858  60.071 -50.547  1.00  0.00    -0.124 NA
HETATM   24  H   UNL     1     -44.709  61.239 -49.608  1.00  0.00     0.158 HD
HETATM   25  H   UNL     1     -43.162  61.677 -49.041  1.00  0.00     0.158 HD
HETATM   26  N   UNL     1     -41.523  59.205 -51.566  1.00  0.00    -0.142 NA
ENDBRANCH  16  19
ENDBRANCH   2  16
TORSDOF 3
ENDMDL
MODEL 4
REMARK VINA RESULT:      -7.5      3.274      4.549
REMARK  3 active torsions:
REMARK  status: ('A' for Active; 'I' for Inactive)
REMARK    1  A    between atoms: C_6  and  C_7 
REMARK       I    between atoms: C_7  and  N_8 
REMARK    2  A    between atoms: N_8  and  C_9 
REMARK    3  A    between atoms: C_9  and  C_10 
ROOT
HETATM    1  C   UNL     1     -42.610  57.430 -55.267  1.00  0.00     0.271 C 
HETATM    2  N   UNL     1     -43.306  57.099 -56.403  1.00  0.00    -0.341 N 
HETATM    3  O   UNL     1     -42.031  58.506 -55.158  1.00  0.00    -0.266 OA
HETATM    4  H   UNL     1     -43.633  56.145 -56.506  1.00  0.00     0.164 HD
ENDROOT
BRANCH   1   5
HETATM    5  C   UNL     1     -42.593  56.417 -54.237  1.00  0.00     0.133 A 
HETATM    6  N   UNL     1     -41.786  55.287 -54.260  1.00  0.00    -0.300 N 
HETATM    7  C   UNL     1     -42.042  54.580 -53.088  1.00  0.00     0.135 A 
HETATM    8  C   UNL     1     -40.875  54.834 -55.219  1.00  0.00     0.100 A 
HETATM    9  C   UNL     1     -41.327  53.368 -52.875  1.00  0.00     0.057 A 
HETATM   10  N   UNL     1     -42.936  55.185 -52.343  1.00  0.00    -0.233 NA
HETATM   11  C   UNL     1     -40.439  52.927 -53.791  1.00  0.00    -0.057 A 
HETATM   12  C   UNL     1     -39.651  51.664 -53.615  1.00  0.00     0.048 C 
HETATM   13  C   UNL     1     -40.206  53.687 -55.016  1.00  0.00     0.024 A 
HETATM   14  C   UNL     1     -43.276  56.329 -53.024  1.00  0.00     0.066 A 
HETATM   15  C   UNL     1     -44.232  57.271 -52.389  1.00  0.00     0.073 C 
ENDBRANCH   1   5
BRANCH   2  16
HETATM   16  C   UNL     1     -43.474  57.955 -57.593  1.00  0.00     0.079 C 
HETATM   17  C   UNL     1     -44.369  59.163 -57.263  1.00  0.00     0.046 C 
HETATM   18  C   UNL     1     -42.101  58.416 -58.115  1.00  0.00     0.046 C 
BRANCH  16  19
HETATM   19  C   UNL     1     -44.159  57.072 -58.641  1.00  0.00     0.128 A 
HETATM   20  S   UNL     1     -43.359  55.771 -59.441  1.00  0.00    -0.031 SA
HETATM   21  C   UNL     1     -44.820  55.476 -60.291  1.00  0.00     0.187 A 
HETATM   22  N   UNL     1     -44.921  54.491 -61.200  1.00  0.00    -0.377 N 
HETATM   23  N   UNL     1     -45.791  56.303 -59.975  1.00  0.00    -0.124 NA
HETATM   24  H   UNL     1     -44.072  54.133 -61.621  1.00  0.00     0.158 HD
HETATM   25  H   UNL     1     -45.711  54.546 -61.834  1.00  0.00     0.158 HD
HETATM   26  N   UNL     1     -45.414  57.225 -59.022  1.00  0.00    -0.142 NA
ENDBRANCH  16  19
ENDBRANCH   2  16
TORSDOF 3
ENDMDL
MODEL 5
REMARK VINA RESULT:      -7.5      2.015      2.420
REMARK  3 active torsions:
REMARK  status: ('A' for Active; 'I' for Inactive)
REMARK    1  A    between atoms: C_6  and  C_7 
REMARK       I    between atoms: C_7  and  N_8 
REMARK    2  A    between atoms: N_8  and  C_9 
REMARK    3  A    between atoms: C_9  and  C_10 
ROOT
HETATM    1  C   UNL     1     -41.463  56.544 -53.124  1.00  0.00     0.271 C 
HETATM    2  N   UNL     1     -42.783  56.650 -53.487  1.00  0.00    -0.341 N 
HETATM    3  O   UNL     1     -40.646  57.415 -53.407  1.00  0.00    -0.266 OA
HETATM    4  H   UNL     1     -43.380  55.840 -53.369  1.00  0.00     0.164 HD
ENDROOT
BRANCH   1   5
HETATM    5  C   UNL     1     -41.113  55.334 -52.417  1.00  0.00     0.133 A 
HETATM    6  N   UNL     1     -40.725  54.150 -53.031  1.00  0.00    -0.300 N 
HETATM    7  C   UNL     1     -40.450  53.237 -52.016  1.00  0.00     0.135 A 
HETATM    8  C   UNL     1     -40.614  53.815 -54.384  1.00  0.00     0.100 A 
HETATM    9  C   UNL     1     -40.027  51.932 -52.395  1.00  0.00     0.057 A 
HETATM   10  N   UNL     1     -40.631  53.763 -50.828  1.00  0.00    -0.233 NA
HETATM   11  C   UNL     1     -39.908  51.602 -53.699  1.00  0.00    -0.057 A 
HETATM   12  C   UNL     1     -39.456  50.248 -54.156  1.00  0.00     0.048 C 
HETATM   13  C   UNL     1     -40.218  52.581 -54.737  1.00  0.00     0.024 A 
HETATM   14  C   UNL     1     -41.022  55.062 -51.053  1.00  0.00     0.066 A 
HETATM   15  C   UNL     1     -41.237  55.946 -49.880  1.00  0.00     0.073 C 
ENDBRANCH   1   5
BRANCH   2  16
HETATM   16  C   UNL     1     -43.390  57.782 -54.213  1.00  0.00     0.079 C 
HETATM   17  C   UNL     1     -44.924  57.738 -54.088  1.00  0.00     0.046 C 
HETATM   18  C   UNL     1     -42.834  59.115 -53.683  1.00  0.00     0.046 C 
BRANCH  16  19
HETATM   19  C   UNL     1     -42.984  57.595 -55.678  1.00  0.00     0.128 A 
HETATM   20  S   UNL     1     -43.105  56.084 -56.501  1.00  0.00    -0.031 SA
HETATM   21  C   UNL     1     -42.485  56.865 -57.897  1.00  0.00     0.187 A 
HETATM   22  N   UNL     1     -42.285  56.198 -59.048  1.00  0.00    -0.377 N 
HETATM   23  N   UNL     1     -42.222  58.140 -57.717  1.00  0.00    -0.124 NA
HETATM   24  H   UNL     1     -42.190  55.191 -59.012  1.00  0.00     0.158 HD
HETATM   25  H   UNL     1     -41.685  56.653 -59.729  1.00  0.00     0.158 HD
HETATM   26  N   UNL     1     -42.510  58.566 -56.438  1.00  0.00    -0.142 NA
ENDBRANCH  16  19
ENDBRANCH   2  16
TORSDOF 3
ENDMDL
MODEL 6
REMARK VINA RESULT:      -7.4      3.639      5.502
REMARK  3 active torsions:
REMARK  status: ('A' for Active; 'I' for Inactive)
REMARK    1  A    between atoms: C_6  and  C_7 
REMARK       I    between atoms: C_7  and  N_8 
REMARK    2  A    between atoms: N_8  and  C_9 
REMARK    3  A    between atoms: C_9  and  C_10 
ROOT
HETATM    1  C   UNL     1     -42.935  56.382 -56.816  1.00  0.00     0.271 C 
HETATM    2  N   UNL     1     -43.656  55.617 -57.699  1.00  0.00    -0.341 N 
HETATM    3  O   UNL     1     -42.268  57.342 -57.190  1.00  0.00    -0.266 OA
HETATM    4  H   UNL     1     -44.061  54.750 -57.366  1.00  0.00     0.164 HD
ENDROOT
BRANCH   1   5
HETATM    5  C   UNL     1     -43.004  55.959 -55.436  1.00  0.00     0.133 A 
HETATM    6  N   UNL     1     -42.147  55.033 -54.855  1.00  0.00    -0.300 N 
HETATM    7  C   UNL     1     -42.518  54.917 -53.519  1.00  0.00     0.135 A 
HETATM    8  C   UNL     1     -41.099  54.287 -55.404  1.00  0.00     0.100 A 
HETATM    9  C   UNL     1     -41.780  54.016 -52.700  1.00  0.00     0.057 A 
HETATM   10  N   UNL     1     -43.529  55.700 -53.227  1.00  0.00    -0.233 NA
HETATM   11  C   UNL     1     -40.761  53.299 -53.219  1.00  0.00    -0.057 A 
HETATM   12  C   UNL     1     -39.942  52.344 -52.403  1.00  0.00     0.048 C 
HETATM   13  C   UNL     1     -40.407  53.435 -54.630  1.00  0.00     0.024 A 
HETATM   14  C   UNL     1     -43.832  56.366 -54.391  1.00  0.00     0.066 A 
HETATM   15  C   UNL     1     -44.906  57.390 -54.359  1.00  0.00     0.073 C 
ENDBRANCH   1   5
BRANCH   2  16
HETATM   16  C   UNL     1     -43.750  55.839 -59.155  1.00  0.00     0.079 C 
HETATM   17  C   UNL     1     -42.352  56.074 -59.754  1.00  0.00     0.046 C 
HETATM   18  C   UNL     1     -44.443  54.643 -59.832  1.00  0.00     0.046 C 
BRANCH  16  19
HETATM   19  C   UNL     1     -44.605  57.099 -59.324  1.00  0.00     0.128 A 
HETATM   20  S   UNL     1     -44.065  58.491 -60.187  1.00  0.00    -0.031 SA
HETATM   21  C   UNL     1     -45.576  59.223 -59.828  1.00  0.00     0.187 A 
HETATM   22  N   UNL     1     -45.870  60.470 -60.235  1.00  0.00    -0.377 N 
HETATM   23  N   UNL     1     -46.378  58.459 -59.122  1.00  0.00    -0.124 NA
HETATM   24  H   UNL     1     -45.107  61.095 -60.467  1.00  0.00     0.158 HD
HETATM   25  H   UNL     1     -46.653  60.918 -59.772  1.00  0.00     0.158 HD
HETATM   26  N   UNL     1     -45.823  57.232 -58.830  1.00  0.00    -0.142 NA
ENDBRANCH  16  19
ENDBRANCH   2  16
TORSDOF 3
ENDMDL
MODEL 7
REMARK VINA RESULT:      -7.3      2.249      3.528
REMARK  3 active torsions:
REMARK  status: ('A' for Active; 'I' for Inactive)
REMARK    1  A    between atoms: C_6  and  C_7 
REMARK       I    between atoms: C_7  and  N_8 
REMARK    2  A    between atoms: N_8  and  C_9 
REMARK    3  A    between atoms: C_9  and  C_10 
ROOT
HETATM    1  C   UNL     1     -41.674  55.240 -51.145  1.00  0.00     0.271 C 
HETATM    2  N   UNL     1     -41.183  56.012 -52.168  1.00  0.00    -0.341 N 
HETATM    3  O   UNL     1     -42.570  55.639 -50.408  1.00  0.00    -0.266 OA
HETATM    4  H   UNL     1     -40.344  55.703 -52.645  1.00  0.00     0.164 HD
ENDROOT
BRANCH   1   5
HETATM    5  C   UNL     1     -41.044  53.948 -50.990  1.00  0.00     0.133 A 
HETATM    6  N   UNL     1     -40.749  53.088 -52.041  1.00  0.00    -0.300 N 
HETATM    7  C   UNL     1     -40.128  51.971 -51.489  1.00  0.00     0.135 A 
HETATM    8  C   UNL     1     -40.994  53.203 -53.412  1.00  0.00     0.100 A 
HETATM    9  C   UNL     1     -39.724  50.931 -52.374  1.00  0.00     0.057 A 
HETATM   10  N   UNL     1     -40.013  52.074 -50.186  1.00  0.00    -0.233 NA
HETATM   11  C   UNL     1     -39.948  51.037 -53.701  1.00  0.00    -0.057 A 
HETATM   12  C   UNL     1     -39.534  49.981 -54.681  1.00  0.00     0.048 C 
HETATM   13  C   UNL     1     -40.614  52.218 -54.244  1.00  0.00     0.024 A 
HETATM   14  C   UNL     1     -40.554  53.295 -49.861  1.00  0.00     0.066 A 
HETATM   15  C   UNL     1     -40.504  53.733 -48.443  1.00  0.00     0.073 C 
ENDBRANCH   1   5
BRANCH   2  16
HETATM   16  C   UNL     1     -41.654  57.362 -52.532  1.00  0.00     0.079 C 
HETATM   17  C   UNL     1     -41.309  57.674 -54.000  1.00  0.00     0.046 C 
HETATM   18  C   UNL     1     -43.169  57.482 -52.288  1.00  0.00     0.046 C 
BRANCH  16  19
HETATM   19  C   UNL     1     -40.901  58.323 -51.607  1.00  0.00     0.128 A 
HETATM   20  S   UNL     1     -39.266  58.800 -51.879  1.00  0.00    -0.031 SA
HETATM   21  C   UNL     1     -39.376  59.761 -50.461  1.00  0.00     0.187 A 
HETATM   22  N   UNL     1     -38.334  60.487 -50.020  1.00  0.00    -0.377 N 
HETATM   23  N   UNL     1     -40.547  59.698 -49.870  1.00  0.00    -0.124 NA
HETATM   24  H   UNL     1     -37.402  60.228 -50.321  1.00  0.00     0.158 HD
HETATM   25  H   UNL     1     -38.390  60.810 -49.059  1.00  0.00     0.158 HD
HETATM   26  N   UNL     1     -41.431  58.870 -50.528  1.00  0.00    -0.142 NA
ENDBRANCH  16  19
ENDBRANCH   2  16
TORSDOF 3
ENDMDL
MODEL 8
REMARK VINA RESULT:      -7.3      1.869      2.271
REMARK  3 active torsions:
REMARK  status: ('A' for Active; 'I' for Inactive)
REMARK    1  A    between atoms: C_6  and  C_7 
REMARK       I    between atoms: C_7  and  N_8 
REMARK    2  A    between atoms: N_8  and  C_9 
REMARK    3  A    between atoms: C_9  and  C_10 
ROOT
HETATM    1  C   UNL     1     -41.312  56.461 -50.645  1.00  0.00     0.271 C 
HETATM    2  N   UNL     1     -40.258  57.337 -50.730  1.00  0.00    -0.341 N 
HETATM    3  O   UNL     1     -42.474  56.852 -50.605  1.00  0.00    -0.266 OA
HETATM    4  H   UNL     1     -39.320  56.975 -50.603  1.00  0.00     0.164 HD
ENDROOT
BRANCH   1   5
HETATM    5  C   UNL     1     -40.948  55.063 -50.582  1.00  0.00     0.133 A 
HETATM    6  N   UNL     1     -40.738  54.256 -51.693  1.00  0.00    -0.300 N 
HETATM    7  C   UNL     1     -40.382  52.997 -51.219  1.00  0.00     0.135 A 
HETATM    8  C   UNL     1     -40.849  54.534 -53.059  1.00  0.00     0.100 A 
HETATM    9  C   UNL     1     -40.112  51.979 -52.177  1.00  0.00     0.057 A 
HETATM   10  N   UNL     1     -40.351  52.963 -49.908  1.00  0.00    -0.233 NA
HETATM   11  C   UNL     1     -40.208  52.240 -53.499  1.00  0.00    -0.057 A 
HETATM   12  C   UNL     1     -39.924  51.212 -54.551  1.00  0.00     0.048 C 
HETATM   13  C   UNL     1     -40.597  53.570 -53.960  1.00  0.00     0.024 A 
HETATM   14  C   UNL     1     -40.678  54.233 -49.496  1.00  0.00     0.066 A 
HETATM   15  C   UNL     1     -40.658  54.529 -48.041  1.00  0.00     0.073 C 
ENDBRANCH   1   5
BRANCH   2  16
HETATM   16  C   UNL     1     -40.362  58.807 -50.806  1.00  0.00     0.079 C 
HETATM   17  C   UNL     1     -41.278  59.338 -49.688  1.00  0.00     0.046 C 
HETATM   18  C   UNL     1     -38.964  59.445 -50.720  1.00  0.00     0.046 C 
BRANCH  16  19
HETATM   19  C   UNL     1     -40.987  59.103 -52.172  1.00  0.00     0.128 A 
HETATM   20  S   UNL     1     -40.748  58.098 -53.553  1.00  0.00    -0.031 SA
HETATM   21  C   UNL     1     -41.749  59.177 -54.435  1.00  0.00     0.187 A 
HETATM   22  N   UNL     1     -42.017  58.984 -55.739  1.00  0.00    -0.377 N 
HETATM   23  N   UNL     1     -42.196  60.185 -53.722  1.00  0.00    -0.124 NA
HETATM   24  H   UNL     1     -41.388  58.403 -56.281  1.00  0.00     0.158 HD
HETATM   25  H   UNL     1     -42.387  59.783 -56.242  1.00  0.00     0.158 HD
HETATM   26  N   UNL     1     -41.760  60.147 -52.415  1.00  0.00    -0.142 NA
ENDBRANCH  16  19
ENDBRANCH   2  16
TORSDOF 3
ENDMDL
MODEL 9
REMARK VINA RESULT:      -7.1      2.758      3.853
REMARK  3 active torsions:
REMARK  status: ('A' for Active; 'I' for Inactive)
REMARK    1  A    between atoms: C_6  and  C_7 
REMARK       I    between atoms: C_7  and  N_8 
REMARK    2  A    between atoms: N_8  and  C_9 
REMARK    3  A    between atoms: C_9  and  C_10 
ROOT
HETATM    1  C   UNL     1     -42.560  57.524 -54.357  1.00  0.00     0.271 C 
HETATM    2  N   UNL     1     -43.756  57.602 -55.029  1.00  0.00    -0.341 N 
HETATM    3  O   UNL     1     -41.675  58.358 -54.519  1.00  0.00    -0.266 OA
HETATM    4  H   UNL     1     -44.387  56.812 -54.980  1.00  0.00     0.164 HD
ENDROOT
BRANCH   1   5
HETATM    5  C   UNL     1     -42.421  56.385 -53.478  1.00  0.00     0.133 A 
HETATM    6  N   UNL     1     -41.662  55.258 -53.767  1.00  0.00    -0.300 N 
HETATM    7  C   UNL     1     -41.761  54.409 -52.669  1.00  0.00     0.135 A 
HETATM    8  C   UNL     1     -40.921  54.922 -54.905  1.00  0.00     0.100 A 
HETATM    9  C   UNL     1     -41.061  53.170 -52.723  1.00  0.00     0.057 A 
HETATM   10  N   UNL     1     -42.514  54.922 -51.725  1.00  0.00    -0.233 NA
HETATM   11  C   UNL     1     -40.336  52.841 -53.813  1.00  0.00    -0.057 A 
HETATM   12  C   UNL     1     -39.570  51.557 -53.921  1.00  0.00     0.048 C 
HETATM   13  C   UNL     1     -40.265  53.751 -54.953  1.00  0.00     0.024 A 
HETATM   14  C   UNL     1     -42.915  56.149 -52.197  1.00  0.00     0.066 A 
HETATM   15  C   UNL     1     -43.735  57.012 -51.308  1.00  0.00     0.073 C 
ENDBRANCH   1   5
BRANCH   2  16
HETATM   16  C   UNL     1     -44.143  58.662 -55.979  1.00  0.00     0.079 C 
HETATM   17  C   UNL     1     -45.620  58.505 -56.384  1.00  0.00     0.046 C 
HETATM   18  C   UNL     1     -43.887  60.049 -55.364  1.00  0.00     0.046 C 
BRANCH  16  19
HETATM   19  C   UNL     1     -43.246  58.463 -57.204  1.00  0.00     0.128 A 
HETATM   20  S   UNL     1     -43.157  56.975 -58.072  1.00  0.00    -0.031 SA
HETATM   21  C   UNL     1     -42.023  57.725 -59.119  1.00  0.00     0.187 A 
HETATM   22  N   UNL     1     -41.462  57.059 -60.144  1.00  0.00    -0.377 N 
HETATM   23  N   UNL     1     -41.762  58.974 -58.808  1.00  0.00    -0.124 NA
HETATM   24  H   UNL     1     -41.452  56.047 -60.115  1.00  0.00     0.158 HD
HETATM   25  H   UNL     1     -40.628  57.476 -60.544  1.00  0.00     0.158 HD
HETATM   26  N   UNL     1     -42.466  59.405 -57.704  1.00  0.00    -0.142 NA
ENDBRANCH  16  19
ENDBRANCH   2  16
TORSDOF 3
ENDMDL
MODEL 10
REMARK VINA RESULT:      -7.1      2.679      6.217
REMARK  3 active torsions:
REMARK  status: ('A' for Active; 'I' for Inactive)
REMARK    1  A    between atoms: C_6  and  C_7 
REMARK       I    between atoms: C_7  and  N_8 
REMARK    2  A    between atoms: N_8  and  C_9 
REMARK    3  A    between atoms: C_9  and  C_10 
ROOT
HETATM    1  C   UNL     1     -42.556  56.715 -52.994  1.00  0.00     0.271 C 
HETATM    2  N   UNL     1     -41.684  55.672 -52.802  1.00  0.00    -0.341 N 
HETATM    3  O   UNL     1     -43.413  57.001 -52.164  1.00  0.00    -0.266 OA
HETATM    4  H   UNL     1     -41.103  55.381 -53.579  1.00  0.00     0.164 HD
ENDROOT
BRANCH   1   5
HETATM    5  C   UNL     1     -42.402  57.424 -54.244  1.00  0.00     0.133 A 
HETATM    6  N   UNL     1     -42.609  56.861 -55.497  1.00  0.00    -0.300 N 
HETATM    7  C   UNL     1     -42.387  57.864 -56.436  1.00  0.00     0.135 A 
HETATM    8  C   UNL     1     -42.953  55.557 -55.867  1.00  0.00     0.100 A 
HETATM    9  C   UNL     1     -42.539  57.532 -57.812  1.00  0.00     0.057 A 
HETATM   10  N   UNL     1     -42.066  59.001 -55.864  1.00  0.00    -0.233 NA
HETATM   11  C   UNL     1     -42.881  56.278 -58.179  1.00  0.00    -0.057 A 
HETATM   12  C   UNL     1     -43.066  55.874 -59.610  1.00  0.00     0.048 C 
HETATM   13  C   UNL     1     -43.092  55.246 -57.167  1.00  0.00     0.024 A 
HETATM   14  C   UNL     1     -42.087  58.756 -54.512  1.00  0.00     0.066 A 
HETATM   15  C   UNL     1     -41.829  59.887 -53.586  1.00  0.00     0.073 C 
ENDBRANCH   1   5
BRANCH   2  16
HETATM   16  C   UNL     1     -41.636  54.796 -51.615  1.00  0.00     0.079 C 
HETATM   17  C   UNL     1     -40.918  55.507 -50.453  1.00  0.00     0.046 C 
HETATM   18  C   UNL     1     -43.058  54.375 -51.205  1.00  0.00     0.046 C 
BRANCH  16  19
HETATM   19  C   UNL     1     -40.832  53.566 -52.045  1.00  0.00     0.128 A 
HETATM   20  S   UNL     1     -40.910  52.902 -53.635  1.00  0.00    -0.031 SA
HETATM   21  C   UNL     1     -39.781  51.714 -53.128  1.00  0.00     0.187 A 
HETATM   22  N   UNL     1     -39.350  50.750 -53.960  1.00  0.00    -0.377 N 
HETATM   23  N   UNL     1     -39.409  51.839 -51.874  1.00  0.00    -0.124 NA
HETATM   24  H   UNL     1     -39.915  50.521 -54.769  1.00  0.00     0.158 HD
HETATM   25  H   UNL     1     -38.900  49.951 -53.524  1.00  0.00     0.158 HD
HETATM   26  N   UNL     1     -40.012  52.907 -51.245  1.00  0.00    -0.142 NA
ENDBRANCH  16  19
ENDBRANCH   2  16
TORSDOF 3
ENDMDL
