MODEL 1
REMARK VINA RESULT:      -7.6      0.000      0.000
REMARK  5 active torsions:
REMARK  status: ('A' for Active; 'I' for Inactive)
REMARK    1  A    between atoms: C_4  and  O_5 
REMARK    2  A    between atoms: O_5  and  C_6 
REMARK    3  A    between atoms: C_6  and  C_7 
REMARK    4  A    between atoms: C_11  and  N_12 
REMARK       I    between atoms: N_12  and  C_13 
REMARK       I    between atoms: C_13  and  N_14 
REMARK    5  A    between atoms: N_14  and  C_15 
ROOT
HETATM    1  N   UNL     1     -44.150  55.683 -51.506  1.00  0.00    -0.306 N 
HETATM    2  C   UNL     1     -44.320  57.022 -51.296  1.00  0.00     0.325 C 
HETATM    3  N   UNL     1     -43.327  57.848 -51.730  1.00  0.00    -0.305 N 
HETATM    4  O   UNL     1     -45.317  57.359 -50.660  1.00  0.00    -0.247 OA
HETATM    5  H   UNL     1     -44.699  55.153 -50.838  1.00  0.00     0.171 HD
HETATM    6  H   UNL     1     -42.556  57.425 -52.214  1.00  0.00     0.171 HD
ENDROOT
BRANCH   1   7
HETATM    7  C   UNL     1     -43.263  54.933 -52.299  1.00  0.00     0.069 A 
HETATM    8  C   UNL     1     -42.279  54.182 -51.637  1.00  0.00     0.096 A 
HETATM    9  C   UNL     1     -41.297  53.491 -52.347  1.00  0.00     0.046 A 
HETATM   10  C   UNL     1     -41.334  53.470 -53.745  1.00  0.00    -0.059 A 
HETATM   11  C   UNL     1     -40.253  52.785 -54.527  1.00  0.00     0.048 C 
HETATM   12  C   UNL     1     -42.367  54.144 -54.407  1.00  0.00     0.009 A 
HETATM   13  C   UNL     1     -43.334  54.860 -53.690  1.00  0.00     0.033 A 
BRANCH   8  14
HETATM   14  O   UNL     1     -42.206  54.201 -50.266  1.00  0.00    -0.340 OA
BRANCH  14  15
HETATM   15  C   UNL     1     -41.085  54.989 -49.821  1.00  0.00     0.293 C 
BRANCH  15  16
HETATM   16  C   UNL     1     -40.084  54.142 -49.053  1.00  0.00     0.408 C 
HETATM   17  F   UNL     1     -40.306  52.821 -49.224  1.00  0.00    -0.169 F 
HETATM   18  F   UNL     1     -38.825  54.400 -49.479  1.00  0.00    -0.169 F 
HETATM   19  F   UNL     1     -40.123  54.407 -47.728  1.00  0.00    -0.169 F 
ENDBRANCH  15  16
ENDBRANCH  14  15
ENDBRANCH   8  14
ENDBRANCH   1   7
BRANCH   3  20
HETATM   20  C   UNL     1     -43.186  59.203 -51.480  1.00  0.00     0.086 A 
HETATM   21  C   UNL     1     -43.985  60.350 -51.766  1.00  0.00     0.079 A 
HETATM   22  C   UNL     1     -45.316  60.465 -52.415  1.00  0.00     0.075 C 
HETATM   23  N   UNL     1     -43.414  61.471 -51.298  1.00  0.00    -0.177 NA
HETATM   24  N   UNL     1     -42.287  61.051 -50.718  1.00  0.00    -0.280 N 
HETATM   25  H   UNL     1     -41.687  61.748 -50.289  1.00  0.00     0.189 HD
HETATM   26  C   UNL     1     -42.103  59.701 -50.780  1.00  0.00     0.052 A 
HETATM   27  C   UNL     1     -40.902  59.057 -50.198  1.00  0.00     0.072 C 
ENDBRANCH   3  20
TORSDOF 5
ENDMDL
MODEL 2
REMARK VINA RESULT:      -7.5      0.276      1.824
REMARK  5 active torsions:
REMARK  status: ('A' for Active; 'I' for Inactive)
REMARK    1  A    between atoms: C_4  and  O_5 
REMARK    2  A    between atoms: O_5  and  C_6 
REMARK    3  A    between atoms: C_6  and  C_7 
REMARK    4  A    between atoms: C_11  and  N_12 
REMARK       I    between atoms: N_12  and  C_13 
REMARK       I    between atoms: C_13  and  N_14 
REMARK    5  A    between atoms: N_14  and  C_15 
ROOT
HETATM    1  N   UNL     1     -44.080  55.599 -51.455  1.00  0.00    -0.306 N 
HETATM    2  C   UNL     1     -44.255  56.941 -51.266  1.00  0.00     0.325 C 
HETATM    3  N   UNL     1     -43.279  57.765 -51.742  1.00  0.00    -0.305 N 
HETATM    4  O   UNL     1     -45.237  57.283 -50.611  1.00  0.00    -0.247 OA
HETATM    5  H   UNL     1     -44.608  55.079 -50.764  1.00  0.00     0.171 HD
HETATM    6  H   UNL     1     -42.519  57.337 -52.239  1.00  0.00     0.171 HD
ENDROOT
BRANCH   1   7
HETATM    7  C   UNL     1     -43.209  54.840 -52.257  1.00  0.00     0.069 A 
HETATM    8  C   UNL     1     -42.235  54.069 -51.605  1.00  0.00     0.096 A 
HETATM    9  C   UNL     1     -41.268  53.367 -52.325  1.00  0.00     0.046 A 
HETATM   10  C   UNL     1     -41.312  53.355 -53.723  1.00  0.00    -0.059 A 
HETATM   11  C   UNL     1     -40.245  52.658 -54.514  1.00  0.00     0.048 C 
HETATM   12  C   UNL     1     -42.337  54.051 -54.375  1.00  0.00     0.009 A 
HETATM   13  C   UNL     1     -43.288  54.777 -53.649  1.00  0.00     0.033 A 
BRANCH   8  14
HETATM   14  O   UNL     1     -42.155  54.078 -50.235  1.00  0.00    -0.340 OA
BRANCH  14  15
HETATM   15  C   UNL     1     -41.075  54.920 -49.788  1.00  0.00     0.293 C 
BRANCH  15  16
HETATM   16  C   UNL     1     -40.010  54.114 -49.062  1.00  0.00     0.408 C 
HETATM   17  F   UNL     1     -40.016  54.354 -47.732  1.00  0.00    -0.169 F 
HETATM   18  F   UNL     1     -40.222  52.789 -49.236  1.00  0.00    -0.169 F 
HETATM   19  F   UNL     1     -38.773  54.390 -49.532  1.00  0.00    -0.169 F 
ENDBRANCH  15  16
ENDBRANCH  14  15
ENDBRANCH   8  14
ENDBRANCH   1   7
BRANCH   3  20
HETATM   20  C   UNL     1     -43.142  59.125 -51.522  1.00  0.00     0.086 A 
HETATM   21  C   UNL     1     -42.225  59.918 -50.769  1.00  0.00     0.079 A 
HETATM   22  C   UNL     1     -41.032  59.526 -49.976  1.00  0.00     0.075 C 
HETATM   23  N   UNL     1     -42.505  61.225 -50.880  1.00  0.00    -0.177 NA
HETATM   24  N   UNL     1     -43.565  61.269 -51.692  1.00  0.00    -0.280 N 
HETATM   25  H   UNL     1     -43.952  62.180 -51.917  1.00  0.00     0.189 HD
HETATM   26  C   UNL     1     -43.983  60.044 -52.123  1.00  0.00     0.052 A 
HETATM   27  C   UNL     1     -45.151  59.898 -53.022  1.00  0.00     0.072 C 
ENDBRANCH   3  20
TORSDOF 5
ENDMDL
MODEL 3
REMARK VINA RESULT:      -7.5      3.217      3.894
REMARK  5 active torsions:
REMARK  status: ('A' for Active; 'I' for Inactive)
REMARK    1  A    between atoms: C_4  and  O_5 
REMARK    2  A    between atoms: O_5  and  C_6 
REMARK    3  A    between atoms: C_6  and  C_7 
REMARK    4  A    between atoms: C_11  and  N_12 
REMARK       I    between atoms: N_12  and  C_13 
REMARK       I    between atoms: C_13  and  N_14 
REMARK    5  A    between atoms: N_14  and  C_15 
ROOT
HETATM    1  N   UNL     1     -43.619  55.216 -53.485  1.00  0.00    -0.306 N 
HETATM    2  C   UNL     1     -43.697  56.346 -54.249  1.00  0.00     0.325 C 
HETATM    3  N   UNL     1     -42.522  56.875 -54.693  1.00  0.00    -0.305 N 
HETATM    4  O   UNL     1     -44.815  56.833 -54.401  1.00  0.00    -0.247 OA
HETATM    5  H   UNL     1     -44.444  55.132 -52.903  1.00  0.00     0.171 HD
HETATM    6  H   UNL     1     -41.680  56.377 -54.468  1.00  0.00     0.171 HD
ENDROOT
BRANCH   1   7
HETATM    7  C   UNL     1     -42.588  54.296 -53.221  1.00  0.00     0.069 A 
HETATM    8  C   UNL     1     -42.162  54.165 -51.891  1.00  0.00     0.096 A 
HETATM    9  C   UNL     1     -41.079  53.352 -51.555  1.00  0.00     0.046 A 
HETATM   10  C   UNL     1     -40.454  52.582 -52.542  1.00  0.00    -0.059 A 
HETATM   11  C   UNL     1     -39.250  51.750 -52.212  1.00  0.00     0.048 C 
HETATM   12  C   UNL     1     -40.936  52.641 -53.855  1.00  0.00     0.009 A 
HETATM   13  C   UNL     1     -42.005  53.482 -54.192  1.00  0.00     0.033 A 
BRANCH   8  14
HETATM   14  O   UNL     1     -42.742  54.924 -50.905  1.00  0.00    -0.340 OA
BRANCH  14  15
HETATM   15  C   UNL     1     -41.758  55.729 -50.228  1.00  0.00     0.293 C 
BRANCH  15  16
HETATM   16  C   UNL     1     -41.615  57.093 -50.883  1.00  0.00     0.408 C 
HETATM   17  F   UNL     1     -40.836  57.043 -51.985  1.00  0.00    -0.169 F 
HETATM   18  F   UNL     1     -42.826  57.562 -51.263  1.00  0.00    -0.169 F 
HETATM   19  F   UNL     1     -41.081  57.998 -50.033  1.00  0.00    -0.169 F 
ENDBRANCH  15  16
ENDBRANCH  14  15
ENDBRANCH   8  14
ENDBRANCH   1   7
BRANCH   3  20
HETATM   20  C   UNL     1     -42.330  58.093 -55.323  1.00  0.00     0.086 A 
HETATM   21  C   UNL     1     -42.019  59.407 -54.863  1.00  0.00     0.079 A 
HETATM   22  C   UNL     1     -41.737  59.911 -53.495  1.00  0.00     0.075 C 
HETATM   23  N   UNL     1     -41.922  60.272 -55.885  1.00  0.00    -0.177 NA
HETATM   24  N   UNL     1     -42.154  59.529 -56.970  1.00  0.00    -0.280 N 
HETATM   25  H   UNL     1     -42.129  59.991 -57.874  1.00  0.00     0.189 HD
HETATM   26  C   UNL     1     -42.389  58.213 -56.700  1.00  0.00     0.052 A 
HETATM   27  C   UNL     1     -42.675  57.241 -57.781  1.00  0.00     0.072 C 
ENDBRANCH   3  20
TORSDOF 5
ENDMDL
MODEL 4
REMARK VINA RESULT:      -7.5      3.565      4.563
REMARK  5 active torsions:
REMARK  status: ('A' for Active; 'I' for Inactive)
REMARK    1  A    between atoms: C_4  and  O_5 
REMARK    2  A    between atoms: O_5  and  C_6 
REMARK    3  A    between atoms: C_6  and  C_7 
REMARK    4  A    between atoms: C_11  and  N_12 
REMARK       I    between atoms: N_12  and  C_13 
REMARK       I    between atoms: C_13  and  N_14 
REMARK    5  A    between atoms: N_14  and  C_15 
ROOT
HETATM    1  N   UNL     1     -40.715  56.169 -53.825  1.00  0.00    -0.306 N 
HETATM    2  C   UNL     1     -41.729  56.972 -54.268  1.00  0.00     0.325 C 
HETATM    3  N   UNL     1     -42.692  56.386 -55.034  1.00  0.00    -0.305 N 
HETATM    4  O   UNL     1     -41.640  58.169 -54.006  1.00  0.00    -0.247 OA
HETATM    5  H   UNL     1     -39.893  56.727 -53.623  1.00  0.00     0.171 HD
HETATM    6  H   UNL     1     -42.619  55.397 -55.186  1.00  0.00     0.171 HD
ENDROOT
BRANCH   1   7
HETATM    7  C   UNL     1     -40.536  54.776 -53.776  1.00  0.00     0.069 A 
HETATM    8  C   UNL     1     -40.686  54.146 -52.531  1.00  0.00     0.096 A 
HETATM    9  C   UNL     1     -40.428  52.784 -52.373  1.00  0.00     0.046 A 
HETATM   10  C   UNL     1     -40.095  52.005 -53.486  1.00  0.00    -0.059 A 
HETATM   11  C   UNL     1     -39.754  50.553 -53.327  1.00  0.00     0.048 C 
HETATM   12  C   UNL     1     -40.033  52.613 -54.746  1.00  0.00     0.009 A 
HETATM   13  C   UNL     1     -40.265  53.986 -54.894  1.00  0.00     0.033 A 
BRANCH   8  14
HETATM   14  O   UNL     1     -40.991  54.889 -51.417  1.00  0.00    -0.340 OA
BRANCH  14  15
HETATM   15  C   UNL     1     -42.020  54.249 -50.638  1.00  0.00     0.293 C 
BRANCH  15  16
HETATM   16  C   UNL     1     -43.405  54.624 -51.139  1.00  0.00     0.408 C 
HETATM   17  F   UNL     1     -43.459  55.906 -51.560  1.00  0.00    -0.169 F 
HETATM   18  F   UNL     1     -43.755  53.839 -52.185  1.00  0.00    -0.169 F 
HETATM   19  F   UNL     1     -44.342  54.458 -50.179  1.00  0.00    -0.169 F 
ENDBRANCH  15  16
ENDBRANCH  14  15
ENDBRANCH   8  14
ENDBRANCH   1   7
BRANCH   3  20
HETATM   20  C   UNL     1     -43.707  57.012 -55.737  1.00  0.00     0.086 A 
HETATM   21  C   UNL     1     -44.754  57.912 -55.374  1.00  0.00     0.079 A 
HETATM   22  C   UNL     1     -45.081  58.539 -54.069  1.00  0.00     0.075 C 
HETATM   23  N   UNL     1     -45.493  58.255 -56.440  1.00  0.00    -0.177 NA
HETATM   24  N   UNL     1     -44.929  57.602 -57.459  1.00  0.00    -0.280 N 
HETATM   25  H   UNL     1     -45.337  57.720 -58.381  1.00  0.00     0.189 HD
HETATM   26  C   UNL     1     -43.845  56.854 -57.104  1.00  0.00     0.052 A 
HETATM   27  C   UNL     1     -43.098  56.053 -58.102  1.00  0.00     0.072 C 
ENDBRANCH   3  20
TORSDOF 5
ENDMDL
MODEL 5
REMARK VINA RESULT:      -7.3      4.574      6.140
REMARK  5 active torsions:
REMARK  status: ('A' for Active; 'I' for Inactive)
REMARK    1  A    between atoms: C_4  and  O_5 
REMARK    2  A    between atoms: O_5  and  C_6 
REMARK    3  A    between atoms: C_6  and  C_7 
REMARK    4  A    between atoms: C_11  and  N_12 
REMARK       I    between atoms: N_12  and  C_13 
REMARK       I    between atoms: C_13  and  N_14 
REMARK    5  A    between atoms: N_14  and  C_15 
ROOT
HETATM    1  N   UNL     1     -42.245  56.228 -55.162  1.00  0.00    -0.306 N 
HETATM    2  C   UNL     1     -42.875  56.632 -56.306  1.00  0.00     0.325 C 
HETATM    3  N   UNL     1     -42.717  55.849 -57.409  1.00  0.00    -0.305 N 
HETATM    4  O   UNL     1     -43.463  57.710 -56.260  1.00  0.00    -0.247 OA
HETATM    5  H   UNL     1     -42.092  57.022 -54.551  1.00  0.00     0.171 HD
HETATM    6  H   UNL     1     -42.185  55.004 -57.301  1.00  0.00     0.171 HD
ENDROOT
BRANCH   1   7
HETATM    7  C   UNL     1     -41.629  55.027 -54.770  1.00  0.00     0.069 A 
HETATM    8  C   UNL     1     -42.228  54.302 -53.728  1.00  0.00     0.096 A 
HETATM    9  C   UNL     1     -41.629  53.153 -53.210  1.00  0.00     0.046 A 
HETATM   10  C   UNL     1     -40.456  52.658 -53.787  1.00  0.00    -0.059 A 
HETATM   11  C   UNL     1     -39.765  51.461 -53.204  1.00  0.00     0.048 C 
HETATM   12  C   UNL     1     -39.904  53.329 -54.886  1.00  0.00     0.009 A 
HETATM   13  C   UNL     1     -40.493  54.498 -55.384  1.00  0.00     0.033 A 
BRANCH   8  14
HETATM   14  O   UNL     1     -43.368  54.775 -53.128  1.00  0.00    -0.340 OA
BRANCH  14  15
HETATM   15  C   UNL     1     -43.069  55.376 -51.854  1.00  0.00     0.293 C 
BRANCH  15  16
HETATM   16  C   UNL     1     -43.726  54.613 -50.715  1.00  0.00     0.408 C 
HETATM   17  F   UNL     1     -44.230  53.429 -51.127  1.00  0.00    -0.169 F 
HETATM   18  F   UNL     1     -42.824  54.353 -49.740  1.00  0.00    -0.169 F 
HETATM   19  F   UNL     1     -44.731  55.324 -50.157  1.00  0.00    -0.169 F 
ENDBRANCH  15  16
ENDBRANCH  14  15
ENDBRANCH   8  14
ENDBRANCH   1   7
BRANCH   3  20
HETATM   20  C   UNL     1     -43.102  56.134 -58.709  1.00  0.00     0.086 A 
HETATM   21  C   UNL     1     -42.866  57.228 -59.593  1.00  0.00     0.079 A 
HETATM   22  C   UNL     1     -42.050  58.455 -59.417  1.00  0.00     0.075 C 
HETATM   23  N   UNL     1     -43.457  57.030 -60.782  1.00  0.00    -0.177 NA
HETATM   24  N   UNL     1     -44.045  55.837 -60.665  1.00  0.00    -0.280 N 
HETATM   25  H   UNL     1     -44.560  55.482 -61.465  1.00  0.00     0.189 HD
HETATM   26  C   UNL     1     -43.855  55.243 -59.452  1.00  0.00     0.052 A 
HETATM   27  C   UNL     1     -44.443  53.920 -59.138  1.00  0.00     0.072 C 
ENDBRANCH   3  20
TORSDOF 5
ENDMDL
MODEL 6
REMARK VINA RESULT:      -7.3      4.718      6.151
REMARK  5 active torsions:
REMARK  status: ('A' for Active; 'I' for Inactive)
REMARK    1  A    between atoms: C_4  and  O_5 
REMARK    2  A    between atoms: O_5  and  C_6 
REMARK    3  A    between atoms: C_6  and  C_7 
REMARK    4  A    between atoms: C_11  and  N_12 
REMARK       I    between atoms: N_12  and  C_13 
REMARK       I    between atoms: C_13  and  N_14 
REMARK    5  A    between atoms: N_14  and  C_15 
ROOT
HETATM    1  N   UNL     1     -42.520  56.099 -55.004  1.00  0.00    -0.306 N 
HETATM    2  C   UNL     1     -43.099  56.496 -56.177  1.00  0.00     0.325 C 
HETATM    3  N   UNL     1     -42.752  55.810 -57.302  1.00  0.00    -0.305 N 
HETATM    4  O   UNL     1     -43.819  57.490 -56.128  1.00  0.00    -0.247 OA
HETATM    5  H   UNL     1     -42.520  56.864 -54.340  1.00  0.00     0.171 HD
HETATM    6  H   UNL     1     -42.129  55.030 -57.191  1.00  0.00     0.171 HD
ENDROOT
BRANCH   1   7
HETATM    7  C   UNL     1     -41.793  54.957 -54.623  1.00  0.00     0.069 A 
HETATM    8  C   UNL     1     -42.282  54.210 -53.540  1.00  0.00     0.096 A 
HETATM    9  C   UNL     1     -41.570  53.123 -53.032  1.00  0.00     0.046 A 
HETATM   10  C   UNL     1     -40.390  52.709 -53.659  1.00  0.00    -0.059 A 
HETATM   11  C   UNL     1     -39.579  51.582 -53.090  1.00  0.00     0.048 C 
HETATM   12  C   UNL     1     -39.947  53.398 -54.794  1.00  0.00     0.009 A 
HETATM   13  C   UNL     1     -40.650  54.506 -55.283  1.00  0.00     0.033 A 
BRANCH   8  14
HETATM   14  O   UNL     1     -43.426  54.605 -52.892  1.00  0.00    -0.340 OA
BRANCH  14  15
HETATM   15  C   UNL     1     -43.119  55.178 -51.607  1.00  0.00     0.293 C 
BRANCH  15  16
HETATM   16  C   UNL     1     -43.747  56.553 -51.450  1.00  0.00     0.408 C 
HETATM   17  F   UNL     1     -44.637  56.587 -50.434  1.00  0.00    -0.169 F 
HETATM   18  F   UNL     1     -42.795  57.479 -51.188  1.00  0.00    -0.169 F 
HETATM   19  F   UNL     1     -44.385  56.938 -52.578  1.00  0.00    -0.169 F 
ENDBRANCH  15  16
ENDBRANCH  14  15
ENDBRANCH   8  14
ENDBRANCH   1   7
BRANCH   3  20
HETATM   20  C   UNL     1     -43.060  56.129 -58.614  1.00  0.00     0.086 A 
HETATM   21  C   UNL     1     -43.818  55.485 -59.637  1.00  0.00     0.079 A 
HETATM   22  C   UNL     1     -44.603  54.225 -59.611  1.00  0.00     0.075 C 
HETATM   23  N   UNL     1     -43.835  56.214 -60.763  1.00  0.00    -0.177 NA
HETATM   24  N   UNL     1     -43.117  57.299 -60.466  1.00  0.00    -0.280 N 
HETATM   25  H   UNL     1     -42.997  58.001 -61.190  1.00  0.00     0.189 HD
HETATM   26  C   UNL     1     -42.639  57.314 -59.188  1.00  0.00     0.052 A 
HETATM   27  C   UNL     1     -41.813  58.436 -58.684  1.00  0.00     0.072 C 
ENDBRANCH   3  20
TORSDOF 5
ENDMDL
MODEL 7
REMARK VINA RESULT:      -7.2      3.139      3.937
REMARK  5 active torsions:
REMARK  status: ('A' for Active; 'I' for Inactive)
REMARK    1  A    between atoms: C_4  and  O_5 
REMARK    2  A    between atoms: O_5  and  C_6 
REMARK    3  A    between atoms: C_6  and  C_7 
REMARK    4  A    between atoms: C_11  and  N_12 
REMARK       I    between atoms: N_12  and  C_13 
REMARK       I    between atoms: C_13  and  N_14 
REMARK    5  A    between atoms: N_14  and  C_15 
ROOT
HETATM    1  N   UNL     1     -43.299  54.925 -51.061  1.00  0.00    -0.306 N 
HETATM    2  C   UNL     1     -43.673  56.234 -51.176  1.00  0.00     0.325 C 
HETATM    3  N   UNL     1     -42.799  57.075 -51.798  1.00  0.00    -0.305 N 
HETATM    4  O   UNL     1     -44.729  56.556 -50.637  1.00  0.00    -0.247 OA
HETATM    5  H   UNL     1     -43.786  54.491 -50.284  1.00  0.00     0.171 HD
HETATM    6  H   UNL     1     -41.958  56.671 -52.169  1.00  0.00     0.171 HD
ENDROOT
BRANCH   1   7
HETATM    7  C   UNL     1     -42.285  54.152 -51.654  1.00  0.00     0.069 A 
HETATM    8  C   UNL     1     -42.334  53.978 -53.046  1.00  0.00     0.096 A 
HETATM    9  C   UNL     1     -41.427  53.146 -53.703  1.00  0.00     0.046 A 
HETATM   10  C   UNL     1     -40.394  52.537 -52.984  1.00  0.00    -0.059 A 
HETATM   11  C   UNL     1     -39.448  51.590 -53.662  1.00  0.00     0.048 C 
HETATM   12  C   UNL     1     -40.288  52.781 -51.609  1.00  0.00     0.009 A 
HETATM   13  C   UNL     1     -41.218  53.594 -50.950  1.00  0.00     0.033 A 
BRANCH   8  14
HETATM   14  O   UNL     1     -43.349  54.547 -53.775  1.00  0.00    -0.340 OA
BRANCH  14  15
HETATM   15  C   UNL     1     -43.194  54.266 -55.179  1.00  0.00     0.293 C 
BRANCH  15  16
HETATM   16  C   UNL     1     -42.868  55.527 -55.962  1.00  0.00     0.408 C 
HETATM   17  F   UNL     1     -43.662  56.561 -55.605  1.00  0.00    -0.169 F 
HETATM   18  F   UNL     1     -41.587  55.903 -55.737  1.00  0.00    -0.169 F 
HETATM   19  F   UNL     1     -43.005  55.334 -57.293  1.00  0.00    -0.169 F 
ENDBRANCH  15  16
ENDBRANCH  14  15
ENDBRANCH   8  14
ENDBRANCH   1   7
BRANCH   3  20
HETATM   20  C   UNL     1     -42.869  58.455 -51.879  1.00  0.00     0.086 A 
HETATM   21  C   UNL     1     -43.733  59.364 -52.560  1.00  0.00     0.079 A 
HETATM   22  C   UNL     1     -44.927  59.113 -53.406  1.00  0.00     0.075 C 
HETATM   23  N   UNL     1     -43.395  60.638 -52.310  1.00  0.00    -0.177 NA
HETATM   24  N   UNL     1     -42.350  60.548 -51.483  1.00  0.00    -0.280 N 
HETATM   25  H   UNL     1     -41.926  61.411 -51.160  1.00  0.00     0.189 HD
HETATM   26  C   UNL     1     -41.998  59.267 -51.175  1.00  0.00     0.052 A 
HETATM   27  C   UNL     1     -40.855  58.973 -50.279  1.00  0.00     0.072 C 
ENDBRANCH   3  20
TORSDOF 5
ENDMDL
MODEL 8
REMARK VINA RESULT:      -7.1      3.584      6.181
REMARK  5 active torsions:
REMARK  status: ('A' for Active; 'I' for Inactive)
REMARK    1  A    between atoms: C_4  and  O_5 
REMARK    2  A    between atoms: O_5  and  C_6 
REMARK    3  A    between atoms: C_6  and  C_7 
REMARK    4  A    between atoms: C_11  and  N_12 
REMARK       I    between atoms: N_12  and  C_13 
REMARK       I    between atoms: C_13  and  N_14 
REMARK    5  A    between atoms: N_14  and  C_15 
ROOT
HETATM    1  N   UNL     1     -43.656  54.980 -53.989  1.00  0.00    -0.306 N 
HETATM    2  C   UNL     1     -42.922  54.372 -53.010  1.00  0.00     0.325 C 
HETATM    3  N   UNL     1     -41.614  54.113 -53.288  1.00  0.00    -0.305 N 
HETATM    4  O   UNL     1     -43.527  54.038 -51.994  1.00  0.00    -0.247 OA
HETATM    5  H   UNL     1     -44.641  54.778 -53.861  1.00  0.00     0.171 HD
HETATM    6  H   UNL     1     -41.262  54.424 -54.175  1.00  0.00     0.171 HD
ENDROOT
BRANCH   1   7
HETATM    7  C   UNL     1     -43.317  55.637 -55.185  1.00  0.00     0.069 A 
HETATM    8  C   UNL     1     -43.092  57.021 -55.123  1.00  0.00     0.096 A 
HETATM    9  C   UNL     1     -42.850  57.767 -56.277  1.00  0.00     0.046 A 
HETATM   10  C   UNL     1     -42.742  57.122 -57.513  1.00  0.00    -0.059 A 
HETATM   11  C   UNL     1     -42.544  57.914 -58.772  1.00  0.00     0.048 C 
HETATM   12  C   UNL     1     -42.876  55.729 -57.566  1.00  0.00     0.009 A 
HETATM   13  C   UNL     1     -43.148  54.988 -56.409  1.00  0.00     0.033 A 
BRANCH   8  14
HETATM   14  O   UNL     1     -43.212  57.684 -53.927  1.00  0.00    -0.340 OA
BRANCH  14  15
HETATM   15  C   UNL     1     -42.088  58.557 -53.707  1.00  0.00     0.293 C 
BRANCH  15  16
HETATM   16  C   UNL     1     -40.959  57.834 -52.991  1.00  0.00     0.408 C 
HETATM   17  F   UNL     1     -40.040  58.696 -52.501  1.00  0.00    -0.169 F 
HETATM   18  F   UNL     1     -41.443  57.122 -51.947  1.00  0.00    -0.169 F 
HETATM   19  F   UNL     1     -40.325  56.967 -53.812  1.00  0.00    -0.169 F 
ENDBRANCH  15  16
ENDBRANCH  14  15
ENDBRANCH   8  14
ENDBRANCH   1   7
BRANCH   3  20
HETATM   20  C   UNL     1     -40.725  53.359 -52.539  1.00  0.00     0.086 A 
HETATM   21  C   UNL     1     -40.173  53.492 -51.231  1.00  0.00     0.079 A 
HETATM   22  C   UNL     1     -40.420  54.506 -50.174  1.00  0.00     0.075 C 
HETATM   23  N   UNL     1     -39.347  52.474 -50.944  1.00  0.00    -0.177 NA
HETATM   24  N   UNL     1     -39.378  51.705 -52.035  1.00  0.00    -0.280 N 
HETATM   25  H   UNL     1     -38.814  50.861 -52.037  1.00  0.00     0.189 HD
HETATM   26  C   UNL     1     -40.199  52.174 -53.019  1.00  0.00     0.052 A 
HETATM   27  C   UNL     1     -40.352  51.456 -54.306  1.00  0.00     0.072 C 
ENDBRANCH   3  20
TORSDOF 5
ENDMDL
MODEL 9
REMARK VINA RESULT:      -7.0      2.750      3.514
REMARK  5 active torsions:
REMARK  status: ('A' for Active; 'I' for Inactive)
REMARK    1  A    between atoms: C_4  and  O_5 
REMARK    2  A    between atoms: O_5  and  C_6 
REMARK    3  A    between atoms: C_6  and  C_7 
REMARK    4  A    between atoms: C_11  and  N_12 
REMARK       I    between atoms: N_12  and  C_13 
REMARK       I    between atoms: C_13  and  N_14 
REMARK    5  A    between atoms: N_14  and  C_15 
ROOT
HETATM    1  N   UNL     1     -40.198  54.905 -54.073  1.00  0.00    -0.306 N 
HETATM    2  C   UNL     1     -41.081  55.913 -53.800  1.00  0.00     0.325 C 
HETATM    3  N   UNL     1     -42.302  55.551 -53.316  1.00  0.00    -0.305 N 
HETATM    4  O   UNL     1     -40.725  57.052 -54.093  1.00  0.00    -0.247 OA
HETATM    5  H   UNL     1     -39.520  55.214 -54.760  1.00  0.00     0.171 HD
HETATM    6  H   UNL     1     -42.459  54.573 -53.149  1.00  0.00     0.171 HD
ENDROOT
BRANCH   1   7
HETATM    7  C   UNL     1     -40.160  53.538 -53.747  1.00  0.00     0.069 A 
HETATM    8  C   UNL     1     -40.140  53.197 -52.386  1.00  0.00     0.096 A 
HETATM    9  C   UNL     1     -40.002  51.870 -51.975  1.00  0.00     0.046 A 
HETATM   10  C   UNL     1     -39.967  50.847 -52.928  1.00  0.00    -0.059 A 
HETATM   11  C   UNL     1     -39.757  49.422 -52.508  1.00  0.00     0.048 C 
HETATM   12  C   UNL     1     -40.078  51.177 -54.284  1.00  0.00     0.009 A 
HETATM   13  C   UNL     1     -40.187  52.512 -54.692  1.00  0.00     0.033 A 
BRANCH   8  14
HETATM   14  O   UNL     1     -40.152  54.181 -51.430  1.00  0.00    -0.340 OA
BRANCH  14  15
HETATM   15  C   UNL     1     -41.081  53.863 -50.375  1.00  0.00     0.293 C 
BRANCH  15  16
HETATM   16  C   UNL     1     -40.453  54.067 -49.006  1.00  0.00     0.408 C 
HETATM   17  F   UNL     1     -40.578  52.971 -48.226  1.00  0.00    -0.169 F 
HETATM   18  F   UNL     1     -39.130  54.327 -49.129  1.00  0.00    -0.169 F 
HETATM   19  F   UNL     1     -41.010  55.112 -48.355  1.00  0.00    -0.169 F 
ENDBRANCH  15  16
ENDBRANCH  14  15
ENDBRANCH   8  14
ENDBRANCH   1   7
BRANCH   3  20
HETATM   20  C   UNL     1     -43.411  56.360 -53.134  1.00  0.00     0.086 A 
HETATM   21  C   UNL     1     -44.210  57.154 -54.009  1.00  0.00     0.079 A 
HETATM   22  C   UNL     1     -44.139  57.343 -55.480  1.00  0.00     0.075 C 
HETATM   23  N   UNL     1     -45.207  57.760 -53.345  1.00  0.00    -0.177 NA
HETATM   24  N   UNL     1     -45.056  57.355 -52.081  1.00  0.00    -0.280 N 
HETATM   25  H   UNL     1     -45.717  57.699 -51.392  1.00  0.00     0.189 HD
HETATM   26  C   UNL     1     -44.008  56.502 -51.895  1.00  0.00     0.052 A 
HETATM   27  C   UNL     1     -43.682  55.958 -50.556  1.00  0.00     0.072 C 
ENDBRANCH   3  20
TORSDOF 5
ENDMDL
MODEL 10
REMARK VINA RESULT:      -6.9      2.983      4.067
REMARK  5 active torsions:
REMARK  status: ('A' for Active; 'I' for Inactive)
REMARK    1  A    between atoms: C_4  and  O_5 
REMARK    2  A    between atoms: O_5  and  C_6 
REMARK    3  A    between atoms: C_6  and  C_7 
REMARK    4  A    between atoms: C_11  and  N_12 
REMARK       I    between atoms: N_12  and  C_13 
REMARK       I    between atoms: C_13  and  N_14 
REMARK    5  A    between atoms: N_14  and  C_15 
ROOT
HETATM    1  N   UNL     1     -43.963  55.750 -50.818  1.00  0.00    -0.306 N 
HETATM    2  C   UNL     1     -44.283  57.013 -51.232  1.00  0.00     0.325 C 
HETATM    3  N   UNL     1     -43.276  57.764 -51.762  1.00  0.00    -0.305 N 
HETATM    4  O   UNL     1     -45.432  57.391 -51.016  1.00  0.00    -0.247 OA
HETATM    5  H   UNL     1     -44.625  55.437 -50.117  1.00  0.00     0.171 HD
HETATM    6  H   UNL     1     -42.377  57.327 -51.854  1.00  0.00     0.171 HD
ENDROOT
BRANCH   1   7
HETATM    7  C   UNL     1     -42.848  54.919 -51.022  1.00  0.00     0.069 A 
HETATM    8  C   UNL     1     -42.622  54.446 -52.323  1.00  0.00     0.096 A 
HETATM    9  C   UNL     1     -41.599  53.536 -52.595  1.00  0.00     0.046 A 
HETATM   10  C   UNL     1     -40.724  53.149 -51.575  1.00  0.00    -0.059 A 
HETATM   11  C   UNL     1     -39.658  52.125 -51.834  1.00  0.00     0.048 C 
HETATM   12  C   UNL     1     -40.891  53.689 -50.295  1.00  0.00     0.009 A 
HETATM   13  C   UNL     1     -41.937  54.579 -50.021  1.00  0.00     0.033 A 
BRANCH   8  14
HETATM   14  O   UNL     1     -43.477  54.793 -53.340  1.00  0.00    -0.340 OA
BRANCH  14  15
HETATM   15  C   UNL     1     -42.792  55.555 -54.352  1.00  0.00     0.293 C 
BRANCH  15  16
HETATM   16  C   UNL     1     -42.681  54.774 -55.651  1.00  0.00     0.408 C 
HETATM   17  F   UNL     1     -43.498  53.699 -55.663  1.00  0.00    -0.169 F 
HETATM   18  F   UNL     1     -43.024  55.557 -56.701  1.00  0.00    -0.169 F 
HETATM   19  F   UNL     1     -41.418  54.344 -55.865  1.00  0.00    -0.169 F 
ENDBRANCH  15  16
ENDBRANCH  14  15
ENDBRANCH   8  14
ENDBRANCH   1   7
BRANCH   3  20
HETATM   20  C   UNL     1     -43.308  59.110 -52.084  1.00  0.00     0.086 A 
HETATM   21  C   UNL     1     -42.755  60.283 -51.489  1.00  0.00     0.079 A 
HETATM   22  C   UNL     1     -41.883  60.444 -50.298  1.00  0.00     0.075 C 
HETATM   23  N   UNL     1     -43.061  61.380 -52.198  1.00  0.00    -0.177 NA
HETATM   24  N   UNL     1     -43.779  60.921 -53.226  1.00  0.00    -0.280 N 
HETATM   25  H   UNL     1     -44.122  61.595 -53.903  1.00  0.00     0.189 HD
HETATM   26  C   UNL     1     -43.948  59.567 -53.222  1.00  0.00     0.052 A 
HETATM   27  C   UNL     1     -44.726  58.882 -54.280  1.00  0.00     0.072 C 
ENDBRANCH   3  20
TORSDOF 5
ENDMDL
