MODEL 1
REMARK VINA RESULT:      -8.9      0.000      0.000
REMARK  10 active torsions:
REMARK  status: ('A' for Active; 'I' for Inactive)
REMARK    1  A    between atoms: C_3  and  C_4 
REMARK    2  A    between atoms: C_4  and  C_5 
REMARK       I    between atoms: C_5  and  N_6 
REMARK    3  A    between atoms: N_6  and  C_7 
REMARK    4  A    between atoms: C_7  and  C_8 
REMARK    5  A    between atoms: C_18  and  N_19 
REMARK       I    between atoms: N_19  and  C_20 
REMARK    6  A    between atoms: C_20  and  C_21 
REMARK    7  A    between atoms: C_21  and  O_22 
REMARK    8  A    between atoms: C_28  and  C_29 
REMARK    9  A    between atoms: C_29  and  O_30 
REMARK   10  A    between atoms: C_32  and  O_33 
ROOT
HETATM    1  C   UNL     1     -44.285  56.286 -50.902  1.00  0.00     0.016 C 
HETATM    2  C   UNL     1     -43.056  56.979 -51.590  1.00  0.00    -0.030 C 
HETATM    3  C   UNL     1     -42.948  56.276 -53.037  1.00  0.00     0.056 C 
HETATM    4  C   UNL     1     -43.686  57.075 -54.094  1.00  0.00     0.056 A 
HETATM    5  C   UNL     1     -44.399  58.225 -53.842  1.00  0.00     0.012 A 
HETATM    6  S   UNL     1     -45.120  58.806 -55.269  1.00  0.00    -0.055 SA
HETATM    7  C   UNL     1     -44.415  57.523 -56.138  1.00  0.00     0.174 A 
HETATM    8  N   UNL     1     -43.690  56.684 -55.426  1.00  0.00    -0.227 NA
HETATM    9  C   UNL     1     -44.546  58.901 -52.533  1.00  0.00     0.055 C 
HETATM   10  C   UNL     1     -43.360  58.547 -51.599  1.00  0.00     0.012 C 
HETATM   11  C   UNL     1     -42.111  59.515 -51.731  1.00  0.00     0.008 C 
HETATM   12  C   UNL     1     -42.530  60.958 -51.321  1.00  0.00     0.020 C 
HETATM   13  C   UNL     1     -41.021  59.066 -50.711  1.00  0.00     0.128 C 
HETATM   14  C   UNL     1     -40.652  57.594 -50.844  1.00  0.00     0.033 C 
HETATM   15  C   UNL     1     -41.864  56.697 -50.640  1.00  0.00     0.013 C 
ENDROOT
BRANCH   3  16
HETATM   16  C   UNL     1     -41.547  55.851 -53.515  1.00  0.00     0.114 C 
BRANCH  16  17
HETATM   17  C   UNL     1     -41.516  54.399 -53.958  1.00  0.00     0.218 C 
HETATM   18  N   UNL     1     -40.255  53.876 -54.066  1.00  0.00    -0.357 N 
HETATM   19  H   UNL     1     -39.522  54.551 -54.272  1.00  0.00     0.162 HD
HETATM   20  O   UNL     1     -42.543  53.764 -54.176  1.00  0.00    -0.274 OA
BRANCH  18  21
HETATM   21  C   UNL     1     -40.037  52.521 -54.508  1.00  0.00     0.161 C 
BRANCH  21  22
HETATM   22  C   UNL     1     -39.867  51.615 -53.319  1.00  0.00    -0.041 A 
HETATM   23  C   UNL     1     -39.708  50.233 -53.510  1.00  0.00     0.009 A 
HETATM   24  C   UNL     1     -39.584  49.374 -52.418  1.00  0.00     0.001 A 
HETATM   25  C   UNL     1     -39.619  49.887 -51.123  1.00  0.00     0.000 A 
HETATM   26  C   UNL     1     -39.776  51.257 -50.922  1.00  0.00     0.001 A 
HETATM   27  C   UNL     1     -39.900  52.118 -52.014  1.00  0.00     0.009 A 
ENDBRANCH  21  22
ENDBRANCH  18  21
ENDBRANCH  16  17
ENDBRANCH   3  16
BRANCH  11  28
HETATM   28  C   UNL     1     -41.541  59.606 -53.171  1.00  0.00     0.176 C 
BRANCH  28  29
HETATM   29  O   UNL     1     -41.910  60.808 -53.841  1.00  0.00    -0.400 OA
HETATM   30  H   UNL     1     -41.077  61.209 -54.171  1.00  0.00     0.209 HD
ENDBRANCH  28  29
ENDBRANCH  11  28
BRANCH   7  31
HETATM   31  N   UNL     1     -44.576  57.368 -57.490  1.00  0.00    -0.304 N 
HETATM   32  C   UNL     1     -43.607  57.477 -58.464  1.00  0.00     0.247 C 
HETATM   33  O   UNL     1     -42.417  57.737 -58.317  1.00  0.00    -0.271 OA
HETATM   34  H   UNL     1     -45.523  57.168 -57.790  1.00  0.00     0.171 HD
BRANCH  32  35
HETATM   35  C   UNL     1     -44.173  57.184 -59.857  1.00  0.00     0.270 C 
BRANCH  35  36
HETATM   36  O   UNL     1     -43.684  55.968 -60.416  1.00  0.00    -0.387 OA
HETATM   37  C   UNL     1     -44.600  54.892 -60.234  1.00  0.00     0.202 C 
ENDBRANCH  35  36
ENDBRANCH  32  35
ENDBRANCH   7  31
BRANCH  13  38
HETATM   38  O   UNL     1     -39.827  59.837 -50.867  1.00  0.00    -0.395 OA
HETATM   39  H   UNL     1     -39.136  59.240 -51.212  1.00  0.00     0.210 HD
ENDBRANCH  13  38
TORSDOF 10
ENDMDL
MODEL 2
REMARK VINA RESULT:      -8.2      3.227      6.313
REMARK  10 active torsions:
REMARK  status: ('A' for Active; 'I' for Inactive)
REMARK    1  A    between atoms: C_3  and  C_4 
REMARK    2  A    between atoms: C_4  and  C_5 
REMARK       I    between atoms: C_5  and  N_6 
REMARK    3  A    between atoms: N_6  and  C_7 
REMARK    4  A    between atoms: C_7  and  C_8 
REMARK    5  A    between atoms: C_18  and  N_19 
REMARK       I    between atoms: N_19  and  C_20 
REMARK    6  A    between atoms: C_20  and  C_21 
REMARK    7  A    between atoms: C_21  and  O_22 
REMARK    8  A    between atoms: C_28  and  C_29 
REMARK    9  A    between atoms: C_29  and  O_30 
REMARK   10  A    between atoms: C_32  and  O_33 
ROOT
HETATM    1  C   UNL     1     -40.014  58.739 -53.170  1.00  0.00     0.016 C 
HETATM    2  C   UNL     1     -41.387  58.027 -53.441  1.00  0.00    -0.030 C 
HETATM    3  C   UNL     1     -42.148  58.052 -52.020  1.00  0.00     0.056 C 
HETATM    4  C   UNL     1     -43.067  59.254 -51.908  1.00  0.00     0.056 A 
HETATM    5  C   UNL     1     -43.196  60.225 -52.875  1.00  0.00     0.012 A 
HETATM    6  S   UNL     1     -44.284  61.430 -52.370  1.00  0.00    -0.055 SA
HETATM    7  C   UNL     1     -44.545  60.575 -50.921  1.00  0.00     0.174 A 
HETATM    8  N   UNL     1     -43.861  59.458 -50.788  1.00  0.00    -0.227 NA
HETATM    9  C   UNL     1     -42.509  60.260 -54.186  1.00  0.00     0.055 C 
HETATM   10  C   UNL     1     -42.095  58.831 -54.624  1.00  0.00     0.012 C 
HETATM   11  C   UNL     1     -43.202  58.054 -55.453  1.00  0.00     0.008 C 
HETATM   12  C   UNL     1     -43.484  58.818 -56.781  1.00  0.00     0.020 C 
HETATM   13  C   UNL     1     -42.636  56.659 -55.857  1.00  0.00     0.128 C 
HETATM   14  C   UNL     1     -42.111  55.863 -54.671  1.00  0.00     0.033 C 
HETATM   15  C   UNL     1     -41.002  56.612 -53.946  1.00  0.00     0.013 C 
ENDROOT
BRANCH   3  16
HETATM   16  C   UNL     1     -42.844  56.756 -51.566  1.00  0.00     0.114 C 
BRANCH  16  17
HETATM   17  C   UNL     1     -41.915  55.866 -50.760  1.00  0.00     0.218 C 
HETATM   18  N   UNL     1     -41.800  54.592 -51.249  1.00  0.00    -0.357 N 
HETATM   19  H   UNL     1     -42.607  54.253 -51.767  1.00  0.00     0.162 HD
HETATM   20  O   UNL     1     -41.314  56.278 -49.773  1.00  0.00    -0.274 OA
BRANCH  18  21
HETATM   21  C   UNL     1     -40.986  53.602 -50.589  1.00  0.00     0.161 C 
BRANCH  21  22
HETATM   22  C   UNL     1     -40.438  52.631 -51.599  1.00  0.00    -0.041 A 
HETATM   23  C   UNL     1     -40.470  52.949 -52.965  1.00  0.00     0.009 A 
HETATM   24  C   UNL     1     -39.999  52.045 -53.917  1.00  0.00     0.001 A 
HETATM   25  C   UNL     1     -39.492  50.812 -53.513  1.00  0.00     0.000 A 
HETATM   26  C   UNL     1     -39.456  50.485 -52.159  1.00  0.00     0.001 A 
HETATM   27  C   UNL     1     -39.927  51.389 -51.205  1.00  0.00     0.009 A 
ENDBRANCH  21  22
ENDBRANCH  18  21
ENDBRANCH  16  17
ENDBRANCH   3  16
BRANCH  11  28
HETATM   28  C   UNL     1     -44.559  57.926 -54.714  1.00  0.00     0.176 C 
BRANCH  28  29
HETATM   29  O   UNL     1     -45.616  57.486 -55.561  1.00  0.00    -0.400 OA
HETATM   30  H   UNL     1     -45.461  56.531 -55.727  1.00  0.00     0.209 HD
ENDBRANCH  28  29
ENDBRANCH  11  28
BRANCH   7  31
HETATM   31  N   UNL     1     -45.416  61.006 -49.954  1.00  0.00    -0.304 N 
HETATM   32  C   UNL     1     -45.214  62.015 -49.037  1.00  0.00     0.247 C 
HETATM   33  O   UNL     1     -44.219  62.720 -48.902  1.00  0.00    -0.271 OA
HETATM   34  H   UNL     1     -46.295  60.503 -49.912  1.00  0.00     0.171 HD
BRANCH  32  35
HETATM   35  C   UNL     1     -46.447  62.229 -48.154  1.00  0.00     0.270 C 
BRANCH  35  36
HETATM   36  O   UNL     1     -46.744  61.110 -47.325  1.00  0.00    -0.387 OA
HETATM   37  C   UNL     1     -45.770  60.932 -46.301  1.00  0.00     0.202 C 
ENDBRANCH  35  36
ENDBRANCH  32  35
ENDBRANCH   7  31
BRANCH  13  38
HETATM   38  O   UNL     1     -43.635  55.873 -56.511  1.00  0.00    -0.395 OA
HETATM   39  H   UNL     1     -44.332  56.482 -56.817  1.00  0.00     0.210 HD
ENDBRANCH  13  38
TORSDOF 10
ENDMDL
MODEL 3
REMARK VINA RESULT:      -8.1      2.370      6.912
REMARK  10 active torsions:
REMARK  status: ('A' for Active; 'I' for Inactive)
REMARK    1  A    between atoms: C_3  and  C_4 
REMARK    2  A    between atoms: C_4  and  C_5 
REMARK       I    between atoms: C_5  and  N_6 
REMARK    3  A    between atoms: N_6  and  C_7 
REMARK    4  A    between atoms: C_7  and  C_8 
REMARK    5  A    between atoms: C_18  and  N_19 
REMARK       I    between atoms: N_19  and  C_20 
REMARK    6  A    between atoms: C_20  and  C_21 
REMARK    7  A    between atoms: C_21  and  O_22 
REMARK    8  A    between atoms: C_28  and  C_29 
REMARK    9  A    between atoms: C_29  and  O_30 
REMARK   10  A    between atoms: C_32  and  O_33 
ROOT
HETATM    1  C   UNL     1     -41.781  56.882 -59.956  1.00  0.00     0.016 C 
HETATM    2  C   UNL     1     -43.186  56.669 -59.289  1.00  0.00    -0.030 C 
HETATM    3  C   UNL     1     -42.877  56.564 -57.710  1.00  0.00     0.056 C 
HETATM    4  C   UNL     1     -43.026  57.911 -57.029  1.00  0.00     0.056 A 
HETATM    5  C   UNL     1     -43.335  59.082 -57.684  1.00  0.00     0.012 A 
HETATM    6  S   UNL     1     -43.371  60.385 -56.592  1.00  0.00    -0.055 SA
HETATM    7  C   UNL     1     -43.011  59.316 -55.317  1.00  0.00     0.174 A 
HETATM    8  N   UNL     1     -42.854  58.054 -55.659  1.00  0.00    -0.227 NA
HETATM    9  C   UNL     1     -43.609  59.237 -59.131  1.00  0.00     0.055 C 
HETATM   10  C   UNL     1     -44.100  57.898 -59.739  1.00  0.00     0.012 C 
HETATM   11  C   UNL     1     -45.669  57.683 -59.672  1.00  0.00     0.008 C 
HETATM   12  C   UNL     1     -46.379  58.791 -60.507  1.00  0.00     0.020 C 
HETATM   13  C   UNL     1     -46.018  56.325 -60.353  1.00  0.00     0.128 C 
HETATM   14  C   UNL     1     -45.230  55.154 -59.782  1.00  0.00     0.033 C 
HETATM   15  C   UNL     1     -43.731  55.366 -59.932  1.00  0.00     0.013 C 
ENDROOT
BRANCH   3  16
HETATM   16  C   UNL     1     -43.583  55.444 -56.923  1.00  0.00     0.114 C 
BRANCH  16  17
HETATM   17  C   UNL     1     -42.614  54.674 -56.042  1.00  0.00     0.218 C 
HETATM   18  N   UNL     1     -41.387  55.267 -55.912  1.00  0.00    -0.357 N 
HETATM   19  H   UNL     1     -41.104  55.853 -56.694  1.00  0.00     0.162 HD
HETATM   20  O   UNL     1     -42.932  53.625 -55.490  1.00  0.00    -0.274 OA
BRANCH  18  21
HETATM   21  C   UNL     1     -40.334  54.656 -55.140  1.00  0.00     0.161 C 
BRANCH  21  22
HETATM   22  C   UNL     1     -40.670  54.714 -53.675  1.00  0.00    -0.041 A 
HETATM   23  C   UNL     1     -41.103  55.921 -53.104  1.00  0.00     0.009 A 
HETATM   24  C   UNL     1     -41.385  56.001 -51.740  1.00  0.00     0.001 A 
HETATM   25  C   UNL     1     -41.236  54.876 -50.932  1.00  0.00     0.000 A 
HETATM   26  C   UNL     1     -40.808  53.672 -51.489  1.00  0.00     0.001 A 
HETATM   27  C   UNL     1     -40.525  53.590 -52.854  1.00  0.00     0.009 A 
ENDBRANCH  21  22
ENDBRANCH  18  21
ENDBRANCH  16  17
ENDBRANCH   3  16
BRANCH  11  28
HETATM   28  C   UNL     1     -46.249  57.765 -58.235  1.00  0.00     0.176 C 
BRANCH  28  29
HETATM   29  O   UNL     1     -47.529  58.387 -58.185  1.00  0.00    -0.400 OA
HETATM   30  H   UNL     1     -47.383  59.340 -58.366  1.00  0.00     0.209 HD
ENDBRANCH  28  29
ENDBRANCH  11  28
BRANCH   7  31
HETATM   31  N   UNL     1     -42.901  59.727 -54.014  1.00  0.00    -0.304 N 
HETATM   32  C   UNL     1     -41.759  59.765 -53.243  1.00  0.00     0.247 C 
HETATM   33  O   UNL     1     -40.622  59.436 -53.567  1.00  0.00    -0.271 OA
HETATM   34  H   UNL     1     -43.770  60.017 -53.580  1.00  0.00     0.171 HD
BRANCH  32  35
HETATM   35  C   UNL     1     -42.038  60.337 -51.850  1.00  0.00     0.270 C 
BRANCH  35  36
HETATM   36  O   UNL     1     -41.957  59.359 -50.817  1.00  0.00    -0.387 OA
HETATM   37  C   UNL     1     -40.743  59.462 -50.080  1.00  0.00     0.202 C 
ENDBRANCH  35  36
ENDBRANCH  32  35
ENDBRANCH   7  31
BRANCH  13  38
HETATM   38  O   UNL     1     -47.410  56.029 -60.219  1.00  0.00    -0.395 OA
HETATM   39  H   UNL     1     -47.836  56.807 -59.812  1.00  0.00     0.210 HD
ENDBRANCH  13  38
TORSDOF 10
ENDMDL
MODEL 4
REMARK VINA RESULT:      -7.6      2.956      6.607
REMARK  10 active torsions:
REMARK  status: ('A' for Active; 'I' for Inactive)
REMARK    1  A    between atoms: C_3  and  C_4 
REMARK    2  A    between atoms: C_4  and  C_5 
REMARK       I    between atoms: C_5  and  N_6 
REMARK    3  A    between atoms: N_6  and  C_7 
REMARK    4  A    between atoms: C_7  and  C_8 
REMARK    5  A    between atoms: C_18  and  N_19 
REMARK       I    between atoms: N_19  and  C_20 
REMARK    6  A    between atoms: C_20  and  C_21 
REMARK    7  A    between atoms: C_21  and  O_22 
REMARK    8  A    between atoms: C_28  and  C_29 
REMARK    9  A    between atoms: C_29  and  O_30 
REMARK   10  A    between atoms: C_32  and  O_33 
ROOT
HETATM    1  C   UNL     1     -41.607  59.664 -57.634  1.00  0.00     0.016 C 
HETATM    2  C   UNL     1     -42.808  58.729 -57.249  1.00  0.00    -0.030 C 
HETATM    3  C   UNL     1     -42.635  58.470 -55.668  1.00  0.00     0.056 C 
HETATM    4  C   UNL     1     -43.454  59.455 -54.855  1.00  0.00     0.056 A 
HETATM    5  C   UNL     1     -44.209  60.471 -55.397  1.00  0.00     0.012 A 
HETATM    6  S   UNL     1     -44.946  61.388 -54.170  1.00  0.00    -0.055 SA
HETATM    7  C   UNL     1     -44.253  60.364 -53.000  1.00  0.00     0.174 A 
HETATM    8  N   UNL     1     -43.497  59.393 -53.469  1.00  0.00    -0.227 NA
HETATM    9  C   UNL     1     -44.387  60.764 -56.838  1.00  0.00     0.055 C 
HETATM   10  C   UNL     1     -44.141  59.490 -57.688  1.00  0.00     0.012 C 
HETATM   11  C   UNL     1     -45.431  58.596 -57.918  1.00  0.00     0.008 C 
HETATM   12  C   UNL     1     -46.492  59.415 -58.713  1.00  0.00     0.020 C 
HETATM   13  C   UNL     1     -45.045  57.383 -58.817  1.00  0.00     0.128 C 
HETATM   14  C   UNL     1     -43.861  56.594 -58.275  1.00  0.00     0.033 C 
HETATM   15  C   UNL     1     -42.624  57.470 -58.137  1.00  0.00     0.013 C 
ENDROOT
BRANCH   3  16
HETATM   16  C   UNL     1     -42.811  57.026 -55.162  1.00  0.00     0.114 C 
BRANCH  16  17
HETATM   17  C   UNL     1     -41.768  56.659 -54.121  1.00  0.00     0.218 C 
HETATM   18  N   UNL     1     -42.040  55.502 -53.443  1.00  0.00    -0.357 N 
HETATM   19  H   UNL     1     -43.027  55.264 -53.370  1.00  0.00     0.162 HD
HETATM   20  O   UNL     1     -40.767  57.343 -53.935  1.00  0.00    -0.274 OA
BRANCH  18  21
HETATM   21  C   UNL     1     -41.175  55.021 -52.395  1.00  0.00     0.161 C 
BRANCH  21  22
HETATM   22  C   UNL     1     -40.686  53.637 -52.727  1.00  0.00    -0.041 A 
HETATM   23  C   UNL     1     -40.036  52.871 -51.747  1.00  0.00     0.009 A 
HETATM   24  C   UNL     1     -39.546  51.600 -52.047  1.00  0.00     0.001 A 
HETATM   25  C   UNL     1     -39.699  51.082 -53.331  1.00  0.00     0.000 A 
HETATM   26  C   UNL     1     -40.343  51.834 -54.313  1.00  0.00     0.001 A 
HETATM   27  C   UNL     1     -40.835  53.106 -54.014  1.00  0.00     0.009 A 
ENDBRANCH  21  22
ENDBRANCH  18  21
ENDBRANCH  16  17
ENDBRANCH   3  16
BRANCH  11  28
HETATM   28  C   UNL     1     -46.114  58.137 -56.603  1.00  0.00     0.176 C 
BRANCH  28  29
HETATM   29  O   UNL     1     -47.430  57.632 -56.805  1.00  0.00    -0.400 OA
HETATM   30  H   UNL     1     -48.046  58.359 -56.571  1.00  0.00     0.209 HD
ENDBRANCH  28  29
ENDBRANCH  11  28
BRANCH   7  31
HETATM   31  N   UNL     1     -44.468  60.523 -51.656  1.00  0.00    -0.304 N 
HETATM   32  C   UNL     1     -45.634  60.278 -50.961  1.00  0.00     0.247 C 
HETATM   33  O   UNL     1     -46.704  59.875 -51.406  1.00  0.00    -0.271 OA
HETATM   34  H   UNL     1     -43.676  60.877 -51.132  1.00  0.00     0.171 HD
BRANCH  32  35
HETATM   35  C   UNL     1     -45.459  60.529 -49.461  1.00  0.00     0.270 C 
BRANCH  35  36
HETATM   36  O   UNL     1     -46.377  61.487 -48.942  1.00  0.00    -0.387 OA
HETATM   37  C   UNL     1     -46.189  61.705 -47.547  1.00  0.00     0.202 C 
ENDBRANCH  35  36
ENDBRANCH  32  35
ENDBRANCH   7  31
BRANCH  13  38
HETATM   38  O   UNL     1     -46.147  56.484 -58.962  1.00  0.00    -0.395 OA
HETATM   39  H   UNL     1     -45.790  55.577 -58.929  1.00  0.00     0.210 HD
ENDBRANCH  13  38
TORSDOF 10
ENDMDL
MODEL 5
REMARK VINA RESULT:      -7.6      1.854      3.079
REMARK  10 active torsions:
REMARK  status: ('A' for Active; 'I' for Inactive)
REMARK    1  A    between atoms: C_3  and  C_4 
REMARK    2  A    between atoms: C_4  and  C_5 
REMARK       I    between atoms: C_5  and  N_6 
REMARK    3  A    between atoms: N_6  and  C_7 
REMARK    4  A    between atoms: C_7  and  C_8 
REMARK    5  A    between atoms: C_18  and  N_19 
REMARK       I    between atoms: N_19  and  C_20 
REMARK    6  A    between atoms: C_20  and  C_21 
REMARK    7  A    between atoms: C_21  and  O_22 
REMARK    8  A    between atoms: C_28  and  C_29 
REMARK    9  A    between atoms: C_29  and  O_30 
REMARK   10  A    between atoms: C_32  and  O_33 
ROOT
HETATM    1  C   UNL     1     -45.505  59.054 -50.679  1.00  0.00     0.016 C 
HETATM    2  C   UNL     1     -44.348  59.779 -51.453  1.00  0.00    -0.030 C 
HETATM    3  C   UNL     1     -43.551  58.594 -52.201  1.00  0.00     0.056 C 
HETATM    4  C   UNL     1     -44.053  58.402 -53.619  1.00  0.00     0.056 A 
HETATM    5  C   UNL     1     -45.090  59.114 -54.179  1.00  0.00     0.012 A 
HETATM    6  S   UNL     1     -45.389  58.585 -55.767  1.00  0.00    -0.055 SA
HETATM    7  C   UNL     1     -44.105  57.475 -55.630  1.00  0.00     0.174 A 
HETATM    8  N   UNL     1     -43.481  57.466 -54.470  1.00  0.00    -0.227 NA
HETATM    9  C   UNL     1     -45.866  60.196 -53.531  1.00  0.00     0.055 C 
HETATM   10  C   UNL     1     -45.038  60.861 -52.402  1.00  0.00     0.012 C 
HETATM   11  C   UNL     1     -44.132  62.072 -52.880  1.00  0.00     0.008 C 
HETATM   12  C   UNL     1     -45.041  63.208 -53.437  1.00  0.00     0.020 C 
HETATM   13  C   UNL     1     -43.395  62.665 -51.641  1.00  0.00     0.128 C 
HETATM   14  C   UNL     1     -42.622  61.617 -50.851  1.00  0.00     0.033 C 
HETATM   15  C   UNL     1     -43.538  60.511 -50.350  1.00  0.00     0.013 C 
ENDROOT
BRANCH   3  16
HETATM   16  C   UNL     1     -42.012  58.626 -52.138  1.00  0.00     0.114 C 
BRANCH  16  17
HETATM   17  C   UNL     1     -41.454  57.465 -51.334  1.00  0.00     0.218 C 
HETATM   18  N   UNL     1     -41.549  56.253 -51.964  1.00  0.00    -0.357 N 
HETATM   19  H   UNL     1     -42.314  56.170 -52.630  1.00  0.00     0.162 HD
HETATM   20  O   UNL     1     -40.948  57.625 -50.228  1.00  0.00    -0.274 OA
BRANCH  18  21
HETATM   21  C   UNL     1     -41.100  55.038 -51.332  1.00  0.00     0.161 C 
BRANCH  21  22
HETATM   22  C   UNL     1     -40.707  54.030 -52.377  1.00  0.00    -0.041 A 
HETATM   23  C   UNL     1     -40.872  54.332 -53.737  1.00  0.00     0.009 A 
HETATM   24  C   UNL     1     -40.546  53.395 -54.718  1.00  0.00     0.001 A 
HETATM   25  C   UNL     1     -40.053  52.145 -54.349  1.00  0.00     0.000 A 
HETATM   26  C   UNL     1     -39.885  51.834 -53.001  1.00  0.00     0.001 A 
HETATM   27  C   UNL     1     -40.210  52.771 -52.018  1.00  0.00     0.009 A 
ENDBRANCH  21  22
ENDBRANCH  18  21
ENDBRANCH  16  17
ENDBRANCH   3  16
BRANCH  11  28
HETATM   28  C   UNL     1     -43.138  61.699 -54.010  1.00  0.00     0.176 C 
BRANCH  28  29
HETATM   29  O   UNL     1     -42.848  62.789 -54.880  1.00  0.00    -0.400 OA
HETATM   30  H   UNL     1     -43.475  62.720 -55.632  1.00  0.00     0.209 HD
ENDBRANCH  28  29
ENDBRANCH  11  28
BRANCH   7  31
HETATM   31  N   UNL     1     -43.730  56.647 -56.655  1.00  0.00    -0.304 N 
HETATM   32  C   UNL     1     -43.221  57.014 -57.883  1.00  0.00     0.247 C 
HETATM   33  O   UNL     1     -43.008  58.149 -58.300  1.00  0.00    -0.271 OA
HETATM   34  H   UNL     1     -43.864  55.658 -56.481  1.00  0.00     0.171 HD
BRANCH  32  35
HETATM   35  C   UNL     1     -42.875  55.792 -58.738  1.00  0.00     0.270 C 
BRANCH  35  36
HETATM   36  O   UNL     1     -43.347  55.895 -60.079  1.00  0.00    -0.387 OA
HETATM   37  C   UNL     1     -44.744  55.636 -60.173  1.00  0.00     0.202 C 
ENDBRANCH  35  36
ENDBRANCH  32  35
ENDBRANCH   7  31
BRANCH  13  38
HETATM   38  O   UNL     1     -42.478  63.688 -52.034  1.00  0.00    -0.395 OA
HETATM   39  H   UNL     1     -41.924  63.325 -52.751  1.00  0.00     0.210 HD
ENDBRANCH  13  38
TORSDOF 10
ENDMDL
MODEL 6
REMARK VINA RESULT:      -7.6      2.638      7.036
REMARK  10 active torsions:
REMARK  status: ('A' for Active; 'I' for Inactive)
REMARK    1  A    between atoms: C_3  and  C_4 
REMARK    2  A    between atoms: C_4  and  C_5 
REMARK       I    between atoms: C_5  and  N_6 
REMARK    3  A    between atoms: N_6  and  C_7 
REMARK    4  A    between atoms: C_7  and  C_8 
REMARK    5  A    between atoms: C_18  and  N_19 
REMARK       I    between atoms: N_19  and  C_20 
REMARK    6  A    between atoms: C_20  and  C_21 
REMARK    7  A    between atoms: C_21  and  O_22 
REMARK    8  A    between atoms: C_28  and  C_29 
REMARK    9  A    between atoms: C_29  and  O_30 
REMARK   10  A    between atoms: C_32  and  O_33 
ROOT
HETATM    1  C   UNL     1     -41.649  59.964 -54.380  1.00  0.00     0.016 C 
HETATM    2  C   UNL     1     -42.941  59.321 -53.762  1.00  0.00    -0.030 C 
HETATM    3  C   UNL     1     -42.693  57.731 -53.860  1.00  0.00     0.056 C 
HETATM    4  C   UNL     1     -42.099  57.186 -52.575  1.00  0.00     0.056 A 
HETATM    5  C   UNL     1     -41.767  57.958 -51.485  1.00  0.00     0.012 A 
HETATM    6  S   UNL     1     -41.088  56.997 -50.257  1.00  0.00    -0.055 SA
HETATM    7  C   UNL     1     -41.309  55.616 -51.228  1.00  0.00     0.174 A 
HETATM    8  N   UNL     1     -41.843  55.832 -52.412  1.00  0.00    -0.227 NA
HETATM    9  C   UNL     1     -41.955  59.421 -51.350  1.00  0.00     0.055 C 
HETATM   10  C   UNL     1     -43.088  59.913 -52.287  1.00  0.00     0.012 C 
HETATM   11  C   UNL     1     -44.537  59.872 -51.643  1.00  0.00     0.008 C 
HETATM   12  C   UNL     1     -44.583  60.829 -50.414  1.00  0.00     0.020 C 
HETATM   13  C   UNL     1     -45.560  60.430 -52.677  1.00  0.00     0.128 C 
HETATM   14  C   UNL     1     -45.487  59.727 -54.025  1.00  0.00     0.033 C 
HETATM   15  C   UNL     1     -44.102  59.852 -54.643  1.00  0.00     0.013 C 
ENDROOT
BRANCH   3  16
HETATM   16  C   UNL     1     -43.860  56.861 -54.364  1.00  0.00     0.114 C 
BRANCH  16  17
HETATM   17  C   UNL     1     -43.447  55.977 -55.527  1.00  0.00     0.218 C 
HETATM   18  N   UNL     1     -43.228  56.658 -56.695  1.00  0.00    -0.357 N 
HETATM   19  H   UNL     1     -43.752  57.525 -56.795  1.00  0.00     0.162 HD
HETATM   20  O   UNL     1     -43.307  54.765 -55.404  1.00  0.00    -0.274 OA
BRANCH  18  21
HETATM   21  C   UNL     1     -42.862  55.973 -57.909  1.00  0.00     0.161 C 
BRANCH  21  22
HETATM   22  C   UNL     1     -44.020  55.975 -58.870  1.00  0.00    -0.041 A 
HETATM   23  C   UNL     1     -44.153  54.940 -59.808  1.00  0.00     0.009 A 
HETATM   24  C   UNL     1     -45.200  54.945 -60.729  1.00  0.00     0.001 A 
HETATM   25  C   UNL     1     -46.125  55.986 -60.724  1.00  0.00     0.000 A 
HETATM   26  C   UNL     1     -46.003  57.020 -59.796  1.00  0.00     0.001 A 
HETATM   27  C   UNL     1     -44.956  57.016 -58.873  1.00  0.00     0.009 A 
ENDBRANCH  21  22
ENDBRANCH  18  21
ENDBRANCH  16  17
ENDBRANCH   3  16
BRANCH  11  28
HETATM   28  C   UNL     1     -44.951  58.467 -51.131  1.00  0.00     0.176 C 
BRANCH  28  29
HETATM   29  O   UNL     1     -45.800  58.518 -49.989  1.00  0.00    -0.400 OA
HETATM   30  H   UNL     1     -45.426  59.204 -49.395  1.00  0.00     0.209 HD
ENDBRANCH  28  29
ENDBRANCH  11  28
BRANCH   7  31
HETATM   31  N   UNL     1     -40.968  54.356 -50.811  1.00  0.00    -0.304 N 
HETATM   32  C   UNL     1     -40.608  53.284 -51.599  1.00  0.00     0.247 C 
HETATM   33  O   UNL     1     -40.526  53.243 -52.822  1.00  0.00    -0.271 OA
HETATM   34  H   UNL     1     -41.007  54.209 -49.809  1.00  0.00     0.171 HD
BRANCH  32  35
HETATM   35  C   UNL     1     -40.249  52.058 -50.753  1.00  0.00     0.270 C 
BRANCH  35  36
HETATM   36  O   UNL     1     -39.408  51.132 -51.436  1.00  0.00    -0.387 OA
HETATM   37  C   UNL     1     -39.531  49.814 -50.912  1.00  0.00     0.202 C 
ENDBRANCH  35  36
ENDBRANCH  32  35
ENDBRANCH   7  31
BRANCH  13  38
HETATM   38  O   UNL     1     -46.898  60.309 -52.187  1.00  0.00    -0.395 OA
HETATM   39  H   UNL     1     -46.857  60.350 -51.213  1.00  0.00     0.210 HD
ENDBRANCH  13  38
TORSDOF 10
ENDMDL
MODEL 7
REMARK VINA RESULT:      -7.4      3.354      6.377
REMARK  10 active torsions:
REMARK  status: ('A' for Active; 'I' for Inactive)
REMARK    1  A    between atoms: C_3  and  C_4 
REMARK    2  A    between atoms: C_4  and  C_5 
REMARK       I    between atoms: C_5  and  N_6 
REMARK    3  A    between atoms: N_6  and  C_7 
REMARK    4  A    between atoms: C_7  and  C_8 
REMARK    5  A    between atoms: C_18  and  N_19 
REMARK       I    between atoms: N_19  and  C_20 
REMARK    6  A    between atoms: C_20  and  C_21 
REMARK    7  A    between atoms: C_21  and  O_22 
REMARK    8  A    between atoms: C_28  and  C_29 
REMARK    9  A    between atoms: C_29  and  O_30 
REMARK   10  A    between atoms: C_32  and  O_33 
ROOT
HETATM    1  C   UNL     1     -43.055  61.711 -54.043  1.00  0.00     0.016 C 
HETATM    2  C   UNL     1     -44.009  61.114 -52.949  1.00  0.00    -0.030 C 
HETATM    3  C   UNL     1     -43.691  59.534 -52.947  1.00  0.00     0.056 C 
HETATM    4  C   UNL     1     -42.658  59.182 -51.894  1.00  0.00     0.056 A 
HETATM    5  C   UNL     1     -42.035  60.100 -51.079  1.00  0.00     0.012 A 
HETATM    6  S   UNL     1     -40.911  59.331 -50.061  1.00  0.00    -0.055 SA
HETATM    7  C   UNL     1     -41.344  57.828 -50.734  1.00  0.00     0.174 A 
HETATM    8  N   UNL     1     -42.261  57.869 -51.678  1.00  0.00    -0.227 NA
HETATM    9  C   UNL     1     -42.276  61.561 -51.053  1.00  0.00     0.055 C 
HETATM   10  C   UNL     1     -43.693  61.890 -51.590  1.00  0.00     0.012 C 
HETATM   11  C   UNL     1     -44.830  61.887 -50.485  1.00  0.00     0.008 C 
HETATM   12  C   UNL     1     -44.529  62.996 -49.432  1.00  0.00     0.020 C 
HETATM   13  C   UNL     1     -46.182  62.273 -51.158  1.00  0.00     0.128 C 
HETATM   14  C   UNL     1     -46.517  61.402 -52.361  1.00  0.00     0.033 C 
HETATM   15  C   UNL     1     -45.436  61.488 -53.429  1.00  0.00     0.013 C 
ENDROOT
BRANCH   3  16
HETATM   16  C   UNL     1     -44.891  58.569 -52.916  1.00  0.00     0.114 C 
BRANCH  16  17
HETATM   17  C   UNL     1     -44.832  57.555 -54.045  1.00  0.00     0.218 C 
HETATM   18  N   UNL     1     -44.093  56.439 -53.754  1.00  0.00    -0.357 N 
HETATM   19  H   UNL     1     -43.351  56.577 -53.071  1.00  0.00     0.162 HD
HETATM   20  O   UNL     1     -45.418  57.731 -55.108  1.00  0.00    -0.274 OA
BRANCH  18  21
HETATM   21  C   UNL     1     -43.901  55.389 -54.722  1.00  0.00     0.161 C 
BRANCH  21  22
HETATM   22  C   UNL     1     -42.607  54.670 -54.452  1.00  0.00    -0.041 A 
HETATM   23  C   UNL     1     -41.590  54.674 -55.419  1.00  0.00     0.009 A 
HETATM   24  C   UNL     1     -40.398  53.984 -55.200  1.00  0.00     0.001 A 
HETATM   25  C   UNL     1     -40.211  53.281 -54.012  1.00  0.00     0.000 A 
HETATM   26  C   UNL     1     -41.214  53.270 -53.044  1.00  0.00     0.001 A 
HETATM   27  C   UNL     1     -42.408  53.961 -53.262  1.00  0.00     0.009 A 
ENDBRANCH  21  22
ENDBRANCH  18  21
ENDBRANCH  16  17
ENDBRANCH   3  16
BRANCH  11  28
HETATM   28  C   UNL     1     -44.941  60.550 -49.708  1.00  0.00     0.176 C 
BRANCH  28  29
HETATM   29  O   UNL     1     -44.547  60.663 -48.344  1.00  0.00    -0.400 OA
HETATM   30  H   UNL     1     -43.620  60.986 -48.348  1.00  0.00     0.209 HD
ENDBRANCH  28  29
ENDBRANCH  11  28
BRANCH   7  31
HETATM   31  N   UNL     1     -40.788  56.645 -50.321  1.00  0.00    -0.304 N 
HETATM   32  C   UNL     1     -41.449  55.482 -49.987  1.00  0.00     0.247 C 
HETATM   33  O   UNL     1     -42.659  55.278 -49.989  1.00  0.00    -0.271 OA
HETATM   34  H   UNL     1     -39.778  56.648 -50.243  1.00  0.00     0.171 HD
BRANCH  32  35
HETATM   35  C   UNL     1     -40.471  54.361 -49.625  1.00  0.00     0.270 C 
BRANCH  35  36
HETATM   36  O   UNL     1     -40.907  53.571 -48.522  1.00  0.00    -0.387 OA
HETATM   37  C   UNL     1     -40.130  53.811 -47.354  1.00  0.00     0.202 C 
ENDBRANCH  35  36
ENDBRANCH  32  35
ENDBRANCH   7  31
BRANCH  13  38
HETATM   38  O   UNL     1     -47.262  62.175 -50.226  1.00  0.00    -0.395 OA
HETATM   39  H   UNL     1     -47.039  62.736 -49.460  1.00  0.00     0.210 HD
ENDBRANCH  13  38
TORSDOF 10
ENDMDL
MODEL 8
REMARK VINA RESULT:      -7.3      2.262      6.271
REMARK  10 active torsions:
REMARK  status: ('A' for Active; 'I' for Inactive)
REMARK    1  A    between atoms: C_3  and  C_4 
REMARK    2  A    between atoms: C_4  and  C_5 
REMARK       I    between atoms: C_5  and  N_6 
REMARK    3  A    between atoms: N_6  and  C_7 
REMARK    4  A    between atoms: C_7  and  C_8 
REMARK    5  A    between atoms: C_18  and  N_19 
REMARK       I    between atoms: N_19  and  C_20 
REMARK    6  A    between atoms: C_20  and  C_21 
REMARK    7  A    between atoms: C_21  and  O_22 
REMARK    8  A    between atoms: C_28  and  C_29 
REMARK    9  A    between atoms: C_29  and  O_30 
REMARK   10  A    between atoms: C_32  and  O_33 
ROOT
HETATM    1  C   UNL     1     -45.463  59.388 -55.593  1.00  0.00     0.016 C 
HETATM    2  C   UNL     1     -44.045  59.568 -56.243  1.00  0.00    -0.030 C 
HETATM    3  C   UNL     1     -43.043  58.771 -55.263  1.00  0.00     0.056 C 
HETATM    4  C   UNL     1     -42.817  57.351 -55.743  1.00  0.00     0.056 A 
HETATM    5  C   UNL     1     -43.429  56.796 -56.845  1.00  0.00     0.012 A 
HETATM    6  S   UNL     1     -42.958  55.173 -57.037  1.00  0.00    -0.055 SA
HETATM    7  C   UNL     1     -41.947  55.314 -55.674  1.00  0.00     0.174 A 
HETATM    8  N   UNL     1     -41.952  56.490 -55.081  1.00  0.00    -0.227 NA
HETATM    9  C   UNL     1     -44.369  57.476 -57.765  1.00  0.00     0.055 C 
HETATM   10  C   UNL     1     -44.149  59.010 -57.735  1.00  0.00     0.012 C 
HETATM   11  C   UNL     1     -43.072  59.538 -58.771  1.00  0.00     0.008 C 
HETATM   12  C   UNL     1     -43.553  59.227 -60.220  1.00  0.00     0.020 C 
HETATM   13  C   UNL     1     -42.987  61.091 -58.658  1.00  0.00     0.128 C 
HETATM   14  C   UNL     1     -42.732  61.570 -57.235  1.00  0.00     0.033 C 
HETATM   15  C   UNL     1     -43.826  61.103 -56.286  1.00  0.00     0.013 C 
ENDROOT
BRANCH   3  16
HETATM   16  C   UNL     1     -41.720  59.464 -54.887  1.00  0.00     0.114 C 
BRANCH  16  17
HETATM   17  C   UNL     1     -41.501  59.490 -53.384  1.00  0.00     0.218 C 
HETATM   18  N   UNL     1     -40.994  58.325 -52.874  1.00  0.00    -0.357 N 
HETATM   19  H   UNL     1     -41.221  57.486 -53.403  1.00  0.00     0.162 HD
HETATM   20  O   UNL     1     -41.746  60.486 -52.709  1.00  0.00    -0.274 OA
BRANCH  18  21
HETATM   21  C   UNL     1     -40.757  58.162 -51.462  1.00  0.00     0.161 C 
BRANCH  21  22
HETATM   22  C   UNL     1     -41.528  56.979 -50.944  1.00  0.00    -0.041 A 
HETATM   23  C   UNL     1     -40.883  56.013 -50.157  1.00  0.00     0.009 A 
HETATM   24  C   UNL     1     -41.574  54.891 -49.698  1.00  0.00     0.001 A 
HETATM   25  C   UNL     1     -42.919  54.723 -50.022  1.00  0.00     0.000 A 
HETATM   26  C   UNL     1     -43.570  55.677 -50.803  1.00  0.00     0.001 A 
HETATM   27  C   UNL     1     -42.879  56.800 -51.263  1.00  0.00     0.009 A 
ENDBRANCH  21  22
ENDBRANCH  18  21
ENDBRANCH  16  17
ENDBRANCH   3  16
BRANCH  11  28
HETATM   28  C   UNL     1     -41.677  58.878 -58.611  1.00  0.00     0.176 C 
BRANCH  28  29
HETATM   29  O   UNL     1     -41.468  57.793 -59.509  1.00  0.00    -0.400 OA
HETATM   30  H   UNL     1     -41.809  58.084 -60.382  1.00  0.00     0.209 HD
ENDBRANCH  28  29
ENDBRANCH  11  28
BRANCH   7  31
HETATM   31  N   UNL     1     -41.167  54.283 -55.222  1.00  0.00    -0.304 N 
HETATM   32  C   UNL     1     -41.364  53.520 -54.090  1.00  0.00     0.247 C 
HETATM   33  O   UNL     1     -42.268  53.615 -53.267  1.00  0.00    -0.271 OA
HETATM   34  H   UNL     1     -40.349  54.083 -55.785  1.00  0.00     0.171 HD
BRANCH  32  35
HETATM   35  C   UNL     1     -40.299  52.427 -53.955  1.00  0.00     0.270 C 
BRANCH  35  36
HETATM   36  O   UNL     1     -40.729  51.161 -54.445  1.00  0.00    -0.387 OA
HETATM   37  C   UNL     1     -39.785  50.132 -54.164  1.00  0.00     0.202 C 
ENDBRANCH  35  36
ENDBRANCH  32  35
ENDBRANCH   7  31
BRANCH  13  38
HETATM   38  O   UNL     1     -41.948  61.608 -59.492  1.00  0.00    -0.395 OA
HETATM   39  H   UNL     1     -41.530  60.850 -59.942  1.00  0.00     0.210 HD
ENDBRANCH  13  38
TORSDOF 10
ENDMDL
MODEL 9
REMARK VINA RESULT:      -7.2      3.174      7.179
REMARK  10 active torsions:
REMARK  status: ('A' for Active; 'I' for Inactive)
REMARK    1  A    between atoms: C_3  and  C_4 
REMARK    2  A    between atoms: C_4  and  C_5 
REMARK       I    between atoms: C_5  and  N_6 
REMARK    3  A    between atoms: N_6  and  C_7 
REMARK    4  A    between atoms: C_7  and  C_8 
REMARK    5  A    between atoms: C_18  and  N_19 
REMARK       I    between atoms: N_19  and  C_20 
REMARK    6  A    between atoms: C_20  and  C_21 
REMARK    7  A    between atoms: C_21  and  O_22 
REMARK    8  A    between atoms: C_28  and  C_29 
REMARK    9  A    between atoms: C_29  and  O_30 
REMARK   10  A    between atoms: C_32  and  O_33 
ROOT
HETATM    1  C   UNL     1     -39.979  58.591 -52.846  1.00  0.00     0.016 C 
HETATM    2  C   UNL     1     -41.135  57.726 -52.228  1.00  0.00    -0.030 C 
HETATM    3  C   UNL     1     -42.491  58.450 -52.713  1.00  0.00     0.056 C 
HETATM    4  C   UNL     1     -43.026  57.823 -53.985  1.00  0.00     0.056 A 
HETATM    5  C   UNL     1     -42.407  56.800 -54.668  1.00  0.00     0.012 A 
HETATM    6  S   UNL     1     -43.285  56.397 -56.067  1.00  0.00    -0.055 SA
HETATM    7  C   UNL     1     -44.448  57.574 -55.666  1.00  0.00     0.174 A 
HETATM    8  N   UNL     1     -44.213  58.255 -54.563  1.00  0.00    -0.227 NA
HETATM    9  C   UNL     1     -41.154  56.113 -54.278  1.00  0.00     0.055 C 
HETATM   10  C   UNL     1     -40.919  56.233 -52.750  1.00  0.00     0.012 C 
HETATM   11  C   UNL     1     -41.581  55.075 -51.893  1.00  0.00     0.008 C 
HETATM   12  C   UNL     1     -40.949  53.708 -52.294  1.00  0.00     0.020 C 
HETATM   13  C   UNL     1     -41.230  55.300 -50.391  1.00  0.00     0.128 C 
HETATM   14  C   UNL     1     -41.596  56.693 -49.897  1.00  0.00     0.033 C 
HETATM   15  C   UNL     1     -40.884  57.773 -50.698  1.00  0.00     0.013 C 
ENDROOT
BRANCH   3  16
HETATM   16  C   UNL     1     -43.600  58.652 -51.664  1.00  0.00     0.114 C 
BRANCH  16  17
HETATM   17  C   UNL     1     -43.928  60.120 -51.461  1.00  0.00     0.218 C 
HETATM   18  N   UNL     1     -44.377  60.423 -50.203  1.00  0.00    -0.357 N 
HETATM   19  H   UNL     1     -44.843  59.661 -49.714  1.00  0.00     0.162 HD
HETATM   20  O   UNL     1     -43.779  60.949 -52.353  1.00  0.00    -0.274 OA
BRANCH  18  21
HETATM   21  C   UNL     1     -44.767  61.763 -49.844  1.00  0.00     0.161 C 
BRANCH  21  22
HETATM   22  C   UNL     1     -45.019  61.846 -48.363  1.00  0.00    -0.041 A 
HETATM   23  C   UNL     1     -44.904  63.079 -47.702  1.00  0.00     0.009 A 
HETATM   24  C   UNL     1     -45.101  63.168 -46.324  1.00  0.00     0.001 A 
HETATM   25  C   UNL     1     -45.413  62.024 -45.591  1.00  0.00     0.000 A 
HETATM   26  C   UNL     1     -45.530  60.795 -46.238  1.00  0.00     0.001 A 
HETATM   27  C   UNL     1     -45.334  60.704 -47.617  1.00  0.00     0.009 A 
ENDBRANCH  21  22
ENDBRANCH  18  21
ENDBRANCH  16  17
ENDBRANCH   3  16
BRANCH  11  28
HETATM   28  C   UNL     1     -43.112  54.939 -52.106  1.00  0.00     0.176 C 
BRANCH  28  29
HETATM   29  O   UNL     1     -43.647  53.738 -51.558  1.00  0.00    -0.400 OA
HETATM   30  H   UNL     1     -43.151  52.999 -51.971  1.00  0.00     0.209 HD
ENDBRANCH  28  29
ENDBRANCH  11  28
BRANCH   7  31
HETATM   31  N   UNL     1     -45.566  57.800 -56.426  1.00  0.00    -0.304 N 
HETATM   32  C   UNL     1     -45.643  58.501 -57.610  1.00  0.00     0.247 C 
HETATM   33  O   UNL     1     -44.733  59.062 -58.213  1.00  0.00    -0.271 OA
HETATM   34  H   UNL     1     -46.425  57.415 -56.052  1.00  0.00     0.171 HD
BRANCH  32  35
HETATM   35  C   UNL     1     -47.064  58.487 -58.182  1.00  0.00     0.270 C 
BRANCH  35  36
HETATM   36  O   UNL     1     -47.105  58.191 -59.575  1.00  0.00    -0.387 OA
HETATM   37  C   UNL     1     -46.962  56.797 -59.828  1.00  0.00     0.202 C 
ENDBRANCH  35  36
ENDBRANCH  32  35
ENDBRANCH   7  31
BRANCH  13  38
HETATM   38  O   UNL     1     -41.897  54.346 -49.562  1.00  0.00    -0.395 OA
HETATM   39  H   UNL     1     -42.648  53.990 -50.072  1.00  0.00     0.210 HD
ENDBRANCH  13  38
TORSDOF 10
ENDMDL
MODEL 10
REMARK VINA RESULT:      -7.2      2.540      6.778
REMARK  10 active torsions:
REMARK  status: ('A' for Active; 'I' for Inactive)
REMARK    1  A    between atoms: C_3  and  C_4 
REMARK    2  A    between atoms: C_4  and  C_5 
REMARK       I    between atoms: C_5  and  N_6 
REMARK    3  A    between atoms: N_6  and  C_7 
REMARK    4  A    between atoms: C_7  and  C_8 
REMARK    5  A    between atoms: C_18  and  N_19 
REMARK       I    between atoms: N_19  and  C_20 
REMARK    6  A    between atoms: C_20  and  C_21 
REMARK    7  A    between atoms: C_21  and  O_22 
REMARK    8  A    between atoms: C_28  and  C_29 
REMARK    9  A    between atoms: C_29  and  O_30 
REMARK   10  A    between atoms: C_32  and  O_33 
ROOT
HETATM    1  C   UNL     1     -42.564  60.867 -54.924  1.00  0.00     0.016 C 
HETATM    2  C   UNL     1     -43.690  60.170 -54.081  1.00  0.00    -0.030 C 
HETATM    3  C   UNL     1     -43.822  58.694 -54.716  1.00  0.00     0.056 C 
HETATM    4  C   UNL     1     -42.971  57.691 -53.962  1.00  0.00     0.056 A 
HETATM    5  C   UNL     1     -42.150  58.010 -52.903  1.00  0.00     0.012 A 
HETATM    6  S   UNL     1     -41.326  56.629 -52.350  1.00  0.00    -0.055 SA
HETATM    7  C   UNL     1     -42.131  55.690 -53.520  1.00  0.00     0.174 A 
HETATM    8  N   UNL     1     -42.963  56.346 -54.303  1.00  0.00    -0.227 NA
HETATM    9  C   UNL     1     -41.978  59.348 -52.294  1.00  0.00     0.055 C 
HETATM   10  C   UNL     1     -43.225  60.232 -52.555  1.00  0.00     0.012 C 
HETATM   11  C   UNL     1     -44.362  60.102 -51.457  1.00  0.00     0.008 C 
HETATM   12  C   UNL     1     -43.808  60.580 -50.081  1.00  0.00     0.020 C 
HETATM   13  C   UNL     1     -45.526  61.070 -51.825  1.00  0.00     0.128 C 
HETATM   14  C   UNL     1     -46.041  60.869 -53.244  1.00  0.00     0.033 C 
HETATM   15  C   UNL     1     -44.937  61.073 -54.271  1.00  0.00     0.013 C 
ENDROOT
BRANCH   3  16
HETATM   16  C   UNL     1     -45.243  58.159 -54.974  1.00  0.00     0.114 C 
BRANCH  16  17
HETATM   17  C   UNL     1     -45.625  58.247 -56.441  1.00  0.00     0.218 C 
HETATM   18  N   UNL     1     -44.570  58.500 -57.278  1.00  0.00    -0.357 N 
HETATM   19  H   UNL     1     -43.797  59.010 -56.857  1.00  0.00     0.162 HD
HETATM   20  O   UNL     1     -46.779  58.084 -56.823  1.00  0.00    -0.274 OA
BRANCH  18  21
HETATM   21  C   UNL     1     -44.755  58.650 -58.699  1.00  0.00     0.161 C 
BRANCH  21  22
HETATM   22  C   UNL     1     -44.815  57.297 -59.355  1.00  0.00    -0.041 A 
HETATM   23  C   UNL     1     -45.899  56.969 -60.184  1.00  0.00     0.009 A 
HETATM   24  C   UNL     1     -45.988  55.707 -60.772  1.00  0.00     0.001 A 
HETATM   25  C   UNL     1     -44.994  54.760 -60.537  1.00  0.00     0.000 A 
HETATM   26  C   UNL     1     -43.912  55.075 -59.717  1.00  0.00     0.001 A 
HETATM   27  C   UNL     1     -43.822  56.337 -59.127  1.00  0.00     0.009 A 
ENDBRANCH  21  22
ENDBRANCH  18  21
ENDBRANCH  16  17
ENDBRANCH   3  16
BRANCH  11  28
HETATM   28  C   UNL     1     -44.870  58.650 -51.254  1.00  0.00     0.176 C 
BRANCH  28  29
HETATM   29  O   UNL     1     -45.417  58.427 -49.958  1.00  0.00    -0.400 OA
HETATM   30  H   UNL     1     -44.863  58.939 -49.330  1.00  0.00     0.209 HD
ENDBRANCH  28  29
ENDBRANCH  11  28
BRANCH   7  31
HETATM   31  N   UNL     1     -41.942  54.338 -53.642  1.00  0.00    -0.304 N 
HETATM   32  C   UNL     1     -40.955  53.693 -54.357  1.00  0.00     0.247 C 
HETATM   33  O   UNL     1     -40.058  54.198 -55.025  1.00  0.00    -0.271 OA
HETATM   34  H   UNL     1     -42.624  53.763 -53.161  1.00  0.00     0.171 HD
BRANCH  32  35
HETATM   35  C   UNL     1     -41.051  52.172 -54.204  1.00  0.00     0.270 C 
BRANCH  35  36
HETATM   36  O   UNL     1     -39.793  51.516 -54.328  1.00  0.00    -0.387 OA
HETATM   37  C   UNL     1     -39.785  50.251 -53.673  1.00  0.00     0.202 C 
ENDBRANCH  35  36
ENDBRANCH  32  35
ENDBRANCH   7  31
BRANCH  13  38
HETATM   38  O   UNL     1     -46.627  60.910 -50.928  1.00  0.00    -0.395 OA
HETATM   39  H   UNL     1     -47.248  60.279 -51.337  1.00  0.00     0.210 HD
ENDBRANCH  13  38
TORSDOF 10
ENDMDL
