MODEL 1
REMARK VINA RESULT:      -7.6      0.000      0.000
REMARK  9 active torsions:
REMARK  status: ('A' for Active; 'I' for Inactive)
REMARK    1  A    between atoms: C_2  and  C_3 
REMARK    2  A    between atoms: C_3  and  O_4 
REMARK    3  A    between atoms: C_3  and  C_5 
REMARK    4  A    between atoms: C_5  and  N_6 
REMARK    5  A    between atoms: N_6  and  C_8 
REMARK    6  A    between atoms: N_6  and  C_21 
REMARK    7  A    between atoms: C_8  and  C_9 
REMARK    8  A    between atoms: C_10  and  C_11 
REMARK    9  A    between atoms: C_21  and  C_22 
ROOT
HETATM    1  N   UNL     1     -41.505  54.138 -52.321  1.00  0.00    -0.061 N 
HETATM    2  H   UNL     1     -41.634  53.367 -51.662  1.00  0.00     0.280 HD
ENDROOT
BRANCH   1   3
HETATM    3  C   UNL     1     -40.962  55.293 -51.488  1.00  0.00     0.267 C 
BRANCH   3   4
HETATM    4  C   UNL     1     -41.756  55.538 -50.183  1.00  0.00     0.143 C 
BRANCH   4   5
HETATM    5  C   UNL     1     -41.249  54.591 -49.085  1.00  0.00     0.029 C 
HETATM    6  C   UNL     1     -39.773  54.241 -49.224  1.00  0.00     0.007 C 
ENDBRANCH   4   5
BRANCH   4   7
HETATM    7  O   UNL     1     -41.578  56.894 -49.777  1.00  0.00    -0.394 OA
HETATM    8  H   UNL     1     -42.293  57.140 -49.161  1.00  0.00     0.210 HD
ENDBRANCH   4   7
ENDBRANCH   3   4
ENDBRANCH   1   3
BRANCH   1   9
HETATM    9  C   UNL     1     -42.876  54.333 -52.941  1.00  0.00     0.277 C 
BRANCH   9  10
HETATM   10  C   UNL     1     -43.003  54.837 -54.337  1.00  0.00     0.016 A 
HETATM   11  C   UNL     1     -42.841  56.208 -54.735  1.00  0.00     0.096 A 
HETATM   12  N   UNL     1     -43.078  56.362 -56.044  1.00  0.00    -0.174 NA
HETATM   13  N   UNL     1     -43.306  55.132 -56.502  1.00  0.00    -0.288 N 
HETATM   14  H   UNL     1     -43.474  55.014 -57.497  1.00  0.00     0.188 HD
HETATM   15  C   UNL     1     -43.302  54.183 -55.519  1.00  0.00     0.120 A 
BRANCH  11  16
HETATM   16  C   UNL     1     -42.519  57.369 -53.906  1.00  0.00    -0.005 A 
HETATM   17  C   UNL     1     -43.460  57.909 -53.019  1.00  0.00     0.014 A 
HETATM   18  C   UNL     1     -43.138  59.027 -52.247  1.00  0.00     0.001 A 
HETATM   19  C   UNL     1     -41.873  59.606 -52.345  1.00  0.00     0.000 A 
HETATM   20  C   UNL     1     -40.924  59.062 -53.209  1.00  0.00     0.001 A 
HETATM   21  C   UNL     1     -41.245  57.946 -53.984  1.00  0.00     0.014 A 
ENDBRANCH  11  16
ENDBRANCH   9  10
ENDBRANCH   1   9
BRANCH   1  22
HETATM   22  C   UNL     1     -40.512  53.626 -53.346  1.00  0.00     0.273 C 
BRANCH  22  23
HETATM   23  C   UNL     1     -40.184  52.166 -53.176  1.00  0.00    -0.033 A 
HETATM   24  C   UNL     1     -39.794  51.656 -51.927  1.00  0.00     0.009 A 
HETATM   25  C   UNL     1     -39.462  50.308 -51.788  1.00  0.00     0.001 A 
HETATM   26  C   UNL     1     -39.520  49.455 -52.888  1.00  0.00     0.000 A 
HETATM   27  C   UNL     1     -39.917  49.946 -54.129  1.00  0.00     0.001 A 
HETATM   28  C   UNL     1     -40.249  51.294 -54.274  1.00  0.00     0.009 A 
ENDBRANCH  22  23
ENDBRANCH   1  22
TORSDOF 9
ENDMDL
MODEL 2
REMARK VINA RESULT:      -7.3      2.025      5.645
REMARK  9 active torsions:
REMARK  status: ('A' for Active; 'I' for Inactive)
REMARK    1  A    between atoms: C_2  and  C_3 
REMARK    2  A    between atoms: C_3  and  O_4 
REMARK    3  A    between atoms: C_3  and  C_5 
REMARK    4  A    between atoms: C_5  and  N_6 
REMARK    5  A    between atoms: N_6  and  C_8 
REMARK    6  A    between atoms: N_6  and  C_21 
REMARK    7  A    between atoms: C_8  and  C_9 
REMARK    8  A    between atoms: C_10  and  C_11 
REMARK    9  A    between atoms: C_21  and  C_22 
ROOT
HETATM    1  N   UNL     1     -42.952  56.647 -51.836  1.00  0.00    -0.061 N 
HETATM    2  H   UNL     1     -42.107  56.567 -52.405  1.00  0.00     0.280 HD
ENDROOT
BRANCH   1   3
HETATM    3  C   UNL     1     -42.793  57.950 -51.061  1.00  0.00     0.267 C 
BRANCH   3   4
HETATM    4  C   UNL     1     -41.318  58.378 -50.870  1.00  0.00     0.143 C 
BRANCH   4   5
HETATM    5  C   UNL     1     -40.913  59.349 -51.988  1.00  0.00     0.029 C 
HETATM    6  C   UNL     1     -40.462  58.647 -53.262  1.00  0.00     0.007 C 
ENDBRANCH   4   5
BRANCH   4   7
HETATM    7  O   UNL     1     -41.178  59.012 -49.600  1.00  0.00    -0.394 OA
HETATM    8  H   UNL     1     -41.315  59.972 -49.705  1.00  0.00     0.210 HD
ENDBRANCH   4   7
ENDBRANCH   3   4
ENDBRANCH   1   3
BRANCH   1   9
HETATM    9  C   UNL     1     -42.975  55.370 -51.019  1.00  0.00     0.277 C 
BRANCH   9  10
HETATM   10  C   UNL     1     -41.739  54.894 -50.336  1.00  0.00     0.016 A 
HETATM   11  C   UNL     1     -40.644  54.228 -50.987  1.00  0.00     0.096 A 
HETATM   12  N   UNL     1     -39.707  53.865 -50.103  1.00  0.00    -0.174 NA
HETATM   13  N   UNL     1     -40.129  54.343 -48.933  1.00  0.00    -0.288 N 
HETATM   14  H   UNL     1     -39.536  54.209 -48.118  1.00  0.00     0.188 HD
HETATM   15  C   UNL     1     -41.354  54.942 -49.009  1.00  0.00     0.120 A 
BRANCH  11  16
HETATM   16  C   UNL     1     -40.490  53.890 -52.401  1.00  0.00    -0.005 A 
HETATM   17  C   UNL     1     -40.490  52.557 -52.831  1.00  0.00     0.014 A 
HETATM   18  C   UNL     1     -40.326  52.253 -54.185  1.00  0.00     0.001 A 
HETATM   19  C   UNL     1     -40.173  53.278 -55.118  1.00  0.00     0.000 A 
HETATM   20  C   UNL     1     -40.194  54.608 -54.702  1.00  0.00     0.001 A 
HETATM   21  C   UNL     1     -40.354  54.913 -53.349  1.00  0.00     0.014 A 
ENDBRANCH  11  16
ENDBRANCH   9  10
ENDBRANCH   1   9
BRANCH   1  22
HETATM   22  C   UNL     1     -44.099  56.680 -52.826  1.00  0.00     0.273 C 
BRANCH  22  23
HETATM   23  C   UNL     1     -43.736  56.114 -54.174  1.00  0.00    -0.033 A 
HETATM   24  C   UNL     1     -43.880  54.744 -54.442  1.00  0.00     0.009 A 
HETATM   25  C   UNL     1     -43.510  54.225 -55.683  1.00  0.00     0.001 A 
HETATM   26  C   UNL     1     -43.000  55.066 -56.670  1.00  0.00     0.000 A 
HETATM   27  C   UNL     1     -42.863  56.430 -56.420  1.00  0.00     0.001 A 
HETATM   28  C   UNL     1     -43.230  56.953 -55.180  1.00  0.00     0.009 A 
ENDBRANCH  22  23
ENDBRANCH   1  22
TORSDOF 9
ENDMDL
MODEL 3
REMARK VINA RESULT:      -7.3      1.732      6.630
REMARK  9 active torsions:
REMARK  status: ('A' for Active; 'I' for Inactive)
REMARK    1  A    between atoms: C_2  and  C_3 
REMARK    2  A    between atoms: C_3  and  O_4 
REMARK    3  A    between atoms: C_3  and  C_5 
REMARK    4  A    between atoms: C_5  and  N_6 
REMARK    5  A    between atoms: N_6  and  C_8 
REMARK    6  A    between atoms: N_6  and  C_21 
REMARK    7  A    between atoms: C_8  and  C_9 
REMARK    8  A    between atoms: C_10  and  C_11 
REMARK    9  A    between atoms: C_21  and  C_22 
ROOT
HETATM    1  N   UNL     1     -42.199  56.034 -51.532  1.00  0.00    -0.061 N 
HETATM    2  H   UNL     1     -42.014  56.716 -52.271  1.00  0.00     0.280 HD
ENDROOT
BRANCH   1   3
HETATM    3  C   UNL     1     -41.351  56.484 -50.348  1.00  0.00     0.267 C 
BRANCH   3   4
HETATM    4  C   UNL     1     -40.717  57.882 -50.539  1.00  0.00     0.143 C 
BRANCH   4   5
HETATM    5  C   UNL     1     -40.743  58.261 -52.027  1.00  0.00     0.029 C 
HETATM    6  C   UNL     1     -41.453  59.581 -52.300  1.00  0.00     0.007 C 
ENDBRANCH   4   5
BRANCH   4   7
HETATM    7  O   UNL     1     -41.455  58.836 -49.779  1.00  0.00    -0.394 OA
HETATM    8  H   UNL     1     -41.191  59.735 -50.051  1.00  0.00     0.210 HD
ENDBRANCH   4   7
ENDBRANCH   3   4
ENDBRANCH   1   3
BRANCH   1   9
HETATM    9  C   UNL     1     -41.838  54.700 -52.158  1.00  0.00     0.277 C 
BRANCH   9  10
HETATM   10  C   UNL     1     -41.306  54.643 -53.549  1.00  0.00     0.016 A 
HETATM   11  C   UNL     1     -40.583  53.535 -54.109  1.00  0.00     0.096 A 
HETATM   12  N   UNL     1     -40.180  53.803 -55.357  1.00  0.00    -0.174 NA
HETATM   13  N   UNL     1     -40.687  55.003 -55.635  1.00  0.00    -0.288 N 
HETATM   14  H   UNL     1     -40.531  55.387 -56.563  1.00  0.00     0.188 HD
HETATM   15  C   UNL     1     -41.346  55.566 -54.579  1.00  0.00     0.120 A 
BRANCH  11  16
HETATM   16  C   UNL     1     -40.227  52.264 -53.480  1.00  0.00    -0.005 A 
HETATM   17  C   UNL     1     -40.201  51.073 -54.217  1.00  0.00     0.014 A 
HETATM   18  C   UNL     1     -39.875  49.866 -53.595  1.00  0.00     0.001 A 
HETATM   19  C   UNL     1     -39.560  49.842 -52.236  1.00  0.00     0.000 A 
HETATM   20  C   UNL     1     -39.563  51.025 -51.500  1.00  0.00     0.001 A 
HETATM   21  C   UNL     1     -39.892  52.232 -52.119  1.00  0.00     0.014 A 
ENDBRANCH  11  16
ENDBRANCH   9  10
ENDBRANCH   1   9
BRANCH   1  22
HETATM   22  C   UNL     1     -43.688  56.125 -51.266  1.00  0.00     0.273 C 
BRANCH  22  23
HETATM   23  C   UNL     1     -44.327  57.342 -51.882  1.00  0.00    -0.033 A 
HETATM   24  C   UNL     1     -44.345  57.519 -53.274  1.00  0.00     0.009 A 
HETATM   25  C   UNL     1     -44.911  58.666 -53.833  1.00  0.00     0.001 A 
HETATM   26  C   UNL     1     -45.469  59.643 -53.011  1.00  0.00     0.000 A 
HETATM   27  C   UNL     1     -45.468  59.473 -51.628  1.00  0.00     0.001 A 
HETATM   28  C   UNL     1     -44.901  58.329 -51.065  1.00  0.00     0.009 A 
ENDBRANCH  22  23
ENDBRANCH   1  22
TORSDOF 9
ENDMDL
MODEL 4
REMARK VINA RESULT:      -7.2      1.668      2.358
REMARK  9 active torsions:
REMARK  status: ('A' for Active; 'I' for Inactive)
REMARK    1  A    between atoms: C_2  and  C_3 
REMARK    2  A    between atoms: C_3  and  O_4 
REMARK    3  A    between atoms: C_3  and  C_5 
REMARK    4  A    between atoms: C_5  and  N_6 
REMARK    5  A    between atoms: N_6  and  C_8 
REMARK    6  A    between atoms: N_6  and  C_21 
REMARK    7  A    between atoms: C_8  and  C_9 
REMARK    8  A    between atoms: C_10  and  C_11 
REMARK    9  A    between atoms: C_21  and  C_22 
ROOT
HETATM    1  N   UNL     1     -41.779  54.271 -53.974  1.00  0.00    -0.061 N 
HETATM    2  H   UNL     1     -41.825  53.492 -54.634  1.00  0.00     0.280 HD
ENDROOT
BRANCH   1   3
HETATM    3  C   UNL     1     -43.139  54.295 -53.285  1.00  0.00     0.267 C 
BRANCH   3   4
HETATM    4  C   UNL     1     -43.062  54.638 -51.779  1.00  0.00     0.143 C 
BRANCH   4   5
HETATM    5  C   UNL     1     -43.211  56.155 -51.587  1.00  0.00     0.029 C 
HETATM    6  C   UNL     1     -41.970  56.813 -50.998  1.00  0.00     0.007 C 
ENDBRANCH   4   5
BRANCH   4   7
HETATM    7  O   UNL     1     -44.108  53.956 -51.091  1.00  0.00    -0.394 OA
HETATM    8  H   UNL     1     -44.346  54.459 -50.289  1.00  0.00     0.210 HD
ENDBRANCH   4   7
ENDBRANCH   3   4
ENDBRANCH   1   3
BRANCH   1   9
HETATM    9  C   UNL     1     -41.433  55.470 -54.835  1.00  0.00     0.277 C 
BRANCH   9  10
HETATM   10  C   UNL     1     -42.410  55.981 -55.837  1.00  0.00     0.016 A 
HETATM   11  C   UNL     1     -43.107  57.235 -55.742  1.00  0.00     0.096 A 
HETATM   12  N   UNL     1     -43.964  57.388 -56.759  1.00  0.00    -0.174 NA
HETATM   13  N   UNL     1     -43.779  56.319 -57.533  1.00  0.00    -0.288 N 
HETATM   14  H   UNL     1     -44.313  56.253 -58.395  1.00  0.00     0.188 HD
HETATM   15  C   UNL     1     -42.882  55.430 -57.015  1.00  0.00     0.120 A 
BRANCH  11  16
HETATM   16  C   UNL     1     -43.016  58.254 -54.698  1.00  0.00    -0.005 A 
HETATM   17  C   UNL     1     -41.799  58.882 -54.403  1.00  0.00     0.014 A 
HETATM   18  C   UNL     1     -41.729  59.842 -53.391  1.00  0.00     0.001 A 
HETATM   19  C   UNL     1     -42.875  60.191 -52.677  1.00  0.00     0.000 A 
HETATM   20  C   UNL     1     -44.094  59.587 -52.978  1.00  0.00     0.001 A 
HETATM   21  C   UNL     1     -44.165  58.624 -53.986  1.00  0.00     0.014 A 
ENDBRANCH  11  16
ENDBRANCH   9  10
ENDBRANCH   1   9
BRANCH   1  22
HETATM   22  C   UNL     1     -40.642  53.931 -53.032  1.00  0.00     0.273 C 
BRANCH  22  23
HETATM   23  C   UNL     1     -40.266  52.472 -53.058  1.00  0.00    -0.033 A 
HETATM   24  C   UNL     1     -40.360  51.726 -54.243  1.00  0.00     0.009 A 
HETATM   25  C   UNL     1     -40.040  50.368 -54.249  1.00  0.00     0.001 A 
HETATM   26  C   UNL     1     -39.619  49.743 -53.077  1.00  0.00     0.000 A 
HETATM   27  C   UNL     1     -39.511  50.475 -51.897  1.00  0.00     0.001 A 
HETATM   28  C   UNL     1     -39.831  51.833 -51.886  1.00  0.00     0.009 A 
ENDBRANCH  22  23
ENDBRANCH   1  22
TORSDOF 9
ENDMDL
MODEL 5
REMARK VINA RESULT:      -7.1      2.839      5.843
REMARK  9 active torsions:
REMARK  status: ('A' for Active; 'I' for Inactive)
REMARK    1  A    between atoms: C_2  and  C_3 
REMARK    2  A    between atoms: C_3  and  O_4 
REMARK    3  A    between atoms: C_3  and  C_5 
REMARK    4  A    between atoms: C_5  and  N_6 
REMARK    5  A    between atoms: N_6  and  C_8 
REMARK    6  A    between atoms: N_6  and  C_21 
REMARK    7  A    between atoms: C_8  and  C_9 
REMARK    8  A    between atoms: C_10  and  C_11 
REMARK    9  A    between atoms: C_21  and  C_22 
ROOT
HETATM    1  N   UNL     1     -43.176  57.878 -54.592  1.00  0.00    -0.061 N 
HETATM    2  H   UNL     1     -42.166  57.811 -54.447  1.00  0.00     0.280 HD
ENDROOT
BRANCH   1   3
HETATM    3  C   UNL     1     -43.349  58.790 -55.801  1.00  0.00     0.267 C 
BRANCH   3   4
HETATM    4  C   UNL     1     -42.010  59.217 -56.448  1.00  0.00     0.143 C 
BRANCH   4   5
HETATM    5  C   UNL     1     -42.131  59.147 -57.977  1.00  0.00     0.029 C 
HETATM    6  C   UNL     1     -42.279  57.726 -58.506  1.00  0.00     0.007 C 
ENDBRANCH   4   5
BRANCH   4   7
HETATM    7  O   UNL     1     -41.703  60.550 -56.044  1.00  0.00    -0.394 OA
HETATM    8  H   UNL     1     -40.787  60.761 -56.308  1.00  0.00     0.210 HD
ENDBRANCH   4   7
ENDBRANCH   3   4
ENDBRANCH   1   3
BRANCH   1   9
HETATM    9  C   UNL     1     -43.710  58.394 -53.269  1.00  0.00     0.277 C 
BRANCH   9  10
HETATM   10  C   UNL     1     -42.771  58.870 -52.215  1.00  0.00     0.016 A 
HETATM   11  C   UNL     1     -42.069  58.020 -51.294  1.00  0.00     0.096 A 
HETATM   12  N   UNL     1     -41.349  58.740 -50.425  1.00  0.00    -0.174 NA
HETATM   13  N   UNL     1     -41.506  60.006 -50.810  1.00  0.00    -0.288 N 
HETATM   14  H   UNL     1     -41.005  60.728 -50.300  1.00  0.00     0.188 HD
HETATM   15  C   UNL     1     -42.370  60.145 -51.859  1.00  0.00     0.120 A 
BRANCH  11  16
HETATM   16  C   UNL     1     -42.103  56.562 -51.188  1.00  0.00    -0.005 A 
HETATM   17  C   UNL     1     -40.921  55.809 -51.171  1.00  0.00     0.014 A 
HETATM   18  C   UNL     1     -40.974  54.416 -51.085  1.00  0.00     0.001 A 
HETATM   19  C   UNL     1     -42.205  53.766 -51.004  1.00  0.00     0.000 A 
HETATM   20  C   UNL     1     -43.385  54.508 -50.999  1.00  0.00     0.001 A 
HETATM   21  C   UNL     1     -43.334  55.900 -51.088  1.00  0.00     0.014 A 
ENDBRANCH  11  16
ENDBRANCH   9  10
ENDBRANCH   1   9
BRANCH   1  22
HETATM   22  C   UNL     1     -43.638  56.457 -54.848  1.00  0.00     0.273 C 
BRANCH  22  23
HETATM   23  C   UNL     1     -42.523  55.447 -54.766  1.00  0.00    -0.033 A 
HETATM   24  C   UNL     1     -41.181  55.850 -54.841  1.00  0.00     0.009 A 
HETATM   25  C   UNL     1     -40.156  54.903 -54.797  1.00  0.00     0.001 A 
HETATM   26  C   UNL     1     -40.460  53.549 -54.672  1.00  0.00     0.000 A 
HETATM   27  C   UNL     1     -41.788  53.138 -54.585  1.00  0.00     0.001 A 
HETATM   28  C   UNL     1     -42.815  54.081 -54.630  1.00  0.00     0.009 A 
ENDBRANCH  22  23
ENDBRANCH   1  22
TORSDOF 9
ENDMDL
MODEL 6
REMARK VINA RESULT:      -7.1      3.446      5.986
REMARK  9 active torsions:
REMARK  status: ('A' for Active; 'I' for Inactive)
REMARK    1  A    between atoms: C_2  and  C_3 
REMARK    2  A    between atoms: C_3  and  O_4 
REMARK    3  A    between atoms: C_3  and  C_5 
REMARK    4  A    between atoms: C_5  and  N_6 
REMARK    5  A    between atoms: N_6  and  C_8 
REMARK    6  A    between atoms: N_6  and  C_21 
REMARK    7  A    between atoms: C_8  and  C_9 
REMARK    8  A    between atoms: C_10  and  C_11 
REMARK    9  A    between atoms: C_21  and  C_22 
ROOT
HETATM    1  N   UNL     1     -42.766  56.975 -57.045  1.00  0.00    -0.061 N 
HETATM    2  H   UNL     1     -41.817  57.100 -56.687  1.00  0.00     0.280 HD
ENDROOT
BRANCH   1   3
HETATM    3  C   UNL     1     -42.697  57.370 -58.516  1.00  0.00     0.267 C 
BRANCH   3   4
HETATM    4  C   UNL     1     -42.623  56.160 -59.477  1.00  0.00     0.143 C 
BRANCH   4   5
HETATM    5  C   UNL     1     -43.921  56.070 -60.293  1.00  0.00     0.029 C 
HETATM    6  C   UNL     1     -44.628  54.728 -60.157  1.00  0.00     0.007 C 
ENDBRANCH   4   5
BRANCH   4   7
HETATM    7  O   UNL     1     -41.509  56.326 -60.351  1.00  0.00    -0.394 OA
HETATM    8  H   UNL     1     -40.849  56.902 -59.923  1.00  0.00     0.210 HD
ENDBRANCH   4   7
ENDBRANCH   3   4
ENDBRANCH   1   3
BRANCH   1   9
HETATM    9  C   UNL     1     -43.622  57.848 -56.147  1.00  0.00     0.277 C 
BRANCH   9  10
HETATM   10  C   UNL     1     -43.019  59.009 -55.434  1.00  0.00     0.016 A 
HETATM   11  C   UNL     1     -42.518  58.978 -54.088  1.00  0.00     0.096 A 
HETATM   12  N   UNL     1     -42.097  60.188 -53.703  1.00  0.00    -0.174 NA
HETATM   13  N   UNL     1     -42.239  60.964 -54.776  1.00  0.00    -0.288 N 
HETATM   14  H   UNL     1     -41.938  61.932 -54.712  1.00  0.00     0.188 HD
HETATM   15  C   UNL     1     -42.815  60.317 -55.833  1.00  0.00     0.120 A 
BRANCH  11  16
HETATM   16  C   UNL     1     -42.473  57.853 -53.155  1.00  0.00    -0.005 A 
HETATM   17  C   UNL     1     -43.581  57.014 -52.979  1.00  0.00     0.014 A 
HETATM   18  C   UNL     1     -43.525  55.954 -52.071  1.00  0.00     0.001 A 
HETATM   19  C   UNL     1     -42.359  55.717 -51.343  1.00  0.00     0.000 A 
HETATM   20  C   UNL     1     -41.245  56.534 -51.527  1.00  0.00     0.001 A 
HETATM   21  C   UNL     1     -41.301  57.596 -52.431  1.00  0.00     0.014 A 
ENDBRANCH  11  16
ENDBRANCH   9  10
ENDBRANCH   1   9
BRANCH   1  22
HETATM   22  C   UNL     1     -43.082  55.507 -56.838  1.00  0.00     0.273 C 
BRANCH  22  23
HETATM   23  C   UNL     1     -42.240  54.865 -55.767  1.00  0.00    -0.033 A 
HETATM   24  C   UNL     1     -40.939  55.321 -55.504  1.00  0.00     0.009 A 
HETATM   25  C   UNL     1     -40.155  54.698 -54.531  1.00  0.00     0.001 A 
HETATM   26  C   UNL     1     -40.663  53.621 -53.808  1.00  0.00     0.000 A 
HETATM   27  C   UNL     1     -41.957  53.166 -54.052  1.00  0.00     0.001 A 
HETATM   28  C   UNL     1     -42.743  53.784 -55.024  1.00  0.00     0.009 A 
ENDBRANCH  22  23
ENDBRANCH   1  22
TORSDOF 9
ENDMDL
MODEL 7
REMARK VINA RESULT:      -7.1      2.617      5.479
REMARK  9 active torsions:
REMARK  status: ('A' for Active; 'I' for Inactive)
REMARK    1  A    between atoms: C_2  and  C_3 
REMARK    2  A    between atoms: C_3  and  O_4 
REMARK    3  A    between atoms: C_3  and  C_5 
REMARK    4  A    between atoms: C_5  and  N_6 
REMARK    5  A    between atoms: N_6  and  C_8 
REMARK    6  A    between atoms: N_6  and  C_21 
REMARK    7  A    between atoms: C_8  and  C_9 
REMARK    8  A    between atoms: C_10  and  C_11 
REMARK    9  A    between atoms: C_21  and  C_22 
ROOT
HETATM    1  N   UNL     1     -43.763  56.455 -53.922  1.00  0.00    -0.061 N 
HETATM    2  H   UNL     1     -42.919  56.853 -54.338  1.00  0.00     0.280 HD
ENDROOT
BRANCH   1   3
HETATM    3  C   UNL     1     -44.911  57.313 -54.442  1.00  0.00     0.267 C 
BRANCH   3   4
HETATM    4  C   UNL     1     -44.558  58.106 -55.723  1.00  0.00     0.143 C 
BRANCH   4   5
HETATM    5  C   UNL     1     -43.047  58.379 -55.759  1.00  0.00     0.029 C 
HETATM    6  C   UNL     1     -42.404  58.041 -57.098  1.00  0.00     0.007 C 
ENDBRANCH   4   5
BRANCH   4   7
HETATM    7  O   UNL     1     -44.942  57.344 -56.865  1.00  0.00    -0.394 OA
HETATM    8  H   UNL     1     -45.489  56.589 -56.576  1.00  0.00     0.210 HD
ENDBRANCH   4   7
ENDBRANCH   3   4
ENDBRANCH   1   3
BRANCH   1   9
HETATM    9  C   UNL     1     -43.502  56.504 -52.429  1.00  0.00     0.277 C 
BRANCH   9  10
HETATM   10  C   UNL     1     -42.472  57.428 -51.877  1.00  0.00     0.016 A 
HETATM   11  C   UNL     1     -41.395  57.037 -51.009  1.00  0.00     0.096 A 
HETATM   12  N   UNL     1     -40.673  58.098 -50.630  1.00  0.00    -0.174 NA
HETATM   13  N   UNL     1     -41.201  59.130 -51.284  1.00  0.00    -0.288 N 
HETATM   14  H   UNL     1     -40.771  60.044 -51.167  1.00  0.00     0.188 HD
HETATM   15  C   UNL     1     -42.299  58.792 -52.023  1.00  0.00     0.120 A 
BRANCH  11  16
HETATM   16  C   UNL     1     -41.069  55.705 -50.500  1.00  0.00    -0.005 A 
HETATM   17  C   UNL     1     -41.208  55.396 -49.141  1.00  0.00     0.014 A 
HETATM   18  C   UNL     1     -40.877  54.123 -48.671  1.00  0.00     0.001 A 
HETATM   19  C   UNL     1     -40.417  53.148 -49.556  1.00  0.00     0.000 A 
HETATM   20  C   UNL     1     -40.296  53.440 -50.913  1.00  0.00     0.001 A 
HETATM   21  C   UNL     1     -40.623  54.714 -51.384  1.00  0.00     0.014 A 
ENDBRANCH  11  16
ENDBRANCH   9  10
ENDBRANCH   1   9
BRANCH   1  22
HETATM   22  C   UNL     1     -43.818  55.024 -54.419  1.00  0.00     0.273 C 
BRANCH  22  23
HETATM   23  C   UNL     1     -42.458  54.392 -54.556  1.00  0.00    -0.033 A 
HETATM   24  C   UNL     1     -42.258  53.038 -54.244  1.00  0.00     0.009 A 
HETATM   25  C   UNL     1     -40.987  52.470 -54.344  1.00  0.00     0.001 A 
HETATM   26  C   UNL     1     -39.906  53.244 -54.761  1.00  0.00     0.000 A 
HETATM   27  C   UNL     1     -40.093  54.585 -55.084  1.00  0.00     0.001 A 
HETATM   28  C   UNL     1     -41.362  55.158 -54.985  1.00  0.00     0.009 A 
ENDBRANCH  22  23
ENDBRANCH   1  22
TORSDOF 9
ENDMDL
MODEL 8
REMARK VINA RESULT:      -7.1      2.130      6.967
REMARK  9 active torsions:
REMARK  status: ('A' for Active; 'I' for Inactive)
REMARK    1  A    between atoms: C_2  and  C_3 
REMARK    2  A    between atoms: C_3  and  O_4 
REMARK    3  A    between atoms: C_3  and  C_5 
REMARK    4  A    between atoms: C_5  and  N_6 
REMARK    5  A    between atoms: N_6  and  C_8 
REMARK    6  A    between atoms: N_6  and  C_21 
REMARK    7  A    between atoms: C_8  and  C_9 
REMARK    8  A    between atoms: C_10  and  C_11 
REMARK    9  A    between atoms: C_21  and  C_22 
ROOT
HETATM    1  N   UNL     1     -43.075  55.537 -52.297  1.00  0.00    -0.061 N 
HETATM    2  H   UNL     1     -43.756  56.169 -51.870  1.00  0.00     0.280 HD
ENDROOT
BRANCH   1   3
HETATM    3  C   UNL     1     -43.675  55.148 -53.643  1.00  0.00     0.267 C 
BRANCH   3   4
HETATM    4  C   UNL     1     -43.909  56.353 -54.585  1.00  0.00     0.143 C 
BRANCH   4   5
HETATM    5  C   UNL     1     -43.343  56.037 -55.977  1.00  0.00     0.029 C 
HETATM    6  C   UNL     1     -42.122  55.127 -55.940  1.00  0.00     0.007 C 
ENDBRANCH   4   5
BRANCH   4   7
HETATM    7  O   UNL     1     -45.309  56.609 -54.676  1.00  0.00    -0.394 OA
HETATM    8  H   UNL     1     -45.642  56.884 -53.800  1.00  0.00     0.210 HD
ENDBRANCH   4   7
ENDBRANCH   3   4
ENDBRANCH   1   3
BRANCH   1   9
HETATM    9  C   UNL     1     -42.911  54.423 -51.280  1.00  0.00     0.277 C 
BRANCH   9  10
HETATM   10  C   UNL     1     -41.692  54.361 -50.426  1.00  0.00     0.016 A 
HETATM   11  C   UNL     1     -40.527  53.570 -50.712  1.00  0.00     0.096 A 
HETATM   12  N   UNL     1     -39.623  53.670 -49.730  1.00  0.00    -0.174 NA
HETATM   13  N   UNL     1     -40.136  54.553 -48.874  1.00  0.00    -0.288 N 
HETATM   14  H   UNL     1     -39.585  54.808 -48.060  1.00  0.00     0.188 HD
HETATM   15  C   UNL     1     -41.386  54.977 -49.226  1.00  0.00     0.120 A 
BRANCH  11  16
HETATM   16  C   UNL     1     -40.274  52.695 -51.856  1.00  0.00    -0.005 A 
HETATM   17  C   UNL     1     -40.479  53.142 -53.168  1.00  0.00     0.014 A 
HETATM   18  C   UNL     1     -40.247  52.286 -54.248  1.00  0.00     0.001 A 
HETATM   19  C   UNL     1     -39.798  50.985 -54.026  1.00  0.00     0.000 A 
HETATM   20  C   UNL     1     -39.571  50.539 -52.725  1.00  0.00     0.001 A 
HETATM   21  C   UNL     1     -39.806  51.392 -51.644  1.00  0.00     0.014 A 
ENDBRANCH  11  16
ENDBRANCH   9  10
ENDBRANCH   1   9
BRANCH   1  22
HETATM   22  C   UNL     1     -41.801  56.348 -52.425  1.00  0.00     0.273 C 
BRANCH  22  23
HETATM   23  C   UNL     1     -41.871  57.677 -51.721  1.00  0.00    -0.033 A 
HETATM   24  C   UNL     1     -40.759  58.185 -51.030  1.00  0.00     0.009 A 
HETATM   25  C   UNL     1     -40.844  59.403 -50.354  1.00  0.00     0.001 A 
HETATM   26  C   UNL     1     -42.035  60.127 -50.363  1.00  0.00     0.000 A 
HETATM   27  C   UNL     1     -43.141  59.639 -51.054  1.00  0.00     0.001 A 
HETATM   28  C   UNL     1     -43.061  58.422 -51.731  1.00  0.00     0.009 A 
ENDBRANCH  22  23
ENDBRANCH   1  22
TORSDOF 9
ENDMDL
MODEL 9
REMARK VINA RESULT:      -7.0      1.388      2.114
REMARK  9 active torsions:
REMARK  status: ('A' for Active; 'I' for Inactive)
REMARK    1  A    between atoms: C_2  and  C_3 
REMARK    2  A    between atoms: C_3  and  O_4 
REMARK    3  A    between atoms: C_3  and  C_5 
REMARK    4  A    between atoms: C_5  and  N_6 
REMARK    5  A    between atoms: N_6  and  C_8 
REMARK    6  A    between atoms: N_6  and  C_21 
REMARK    7  A    between atoms: C_8  and  C_9 
REMARK    8  A    between atoms: C_10  and  C_11 
REMARK    9  A    between atoms: C_21  and  C_22 
ROOT
HETATM    1  N   UNL     1     -42.291  55.296 -52.349  1.00  0.00    -0.061 N 
HETATM    2  H   UNL     1     -42.356  54.553 -51.649  1.00  0.00     0.280 HD
ENDROOT
BRANCH   1   3
HETATM    3  C   UNL     1     -42.298  56.598 -51.554  1.00  0.00     0.267 C 
BRANCH   3   4
HETATM    4  C   UNL     1     -41.019  56.812 -50.710  1.00  0.00     0.143 C 
BRANCH   4   5
HETATM    5  C   UNL     1     -40.469  58.225 -50.958  1.00  0.00     0.029 C 
HETATM    6  C   UNL     1     -41.378  59.327 -50.432  1.00  0.00     0.007 C 
ENDBRANCH   4   5
BRANCH   4   7
HETATM    7  O   UNL     1     -41.339  56.649 -49.330  1.00  0.00    -0.394 OA
HETATM    8  H   UNL     1     -41.281  57.515 -48.884  1.00  0.00     0.210 HD
ENDBRANCH   4   7
ENDBRANCH   3   4
ENDBRANCH   1   3
BRANCH   1   9
HETATM    9  C   UNL     1     -43.475  55.053 -53.264  1.00  0.00     0.277 C 
BRANCH   9  10
HETATM   10  C   UNL     1     -43.340  55.250 -54.734  1.00  0.00     0.016 A 
HETATM   11  C   UNL     1     -43.189  56.524 -55.383  1.00  0.00     0.096 A 
HETATM   12  N   UNL     1     -43.156  56.386 -56.714  1.00  0.00    -0.174 NA
HETATM   13  N   UNL     1     -43.202  55.072 -56.928  1.00  0.00    -0.288 N 
HETATM   14  H   UNL     1     -43.149  54.740 -57.888  1.00  0.00     0.188 HD
HETATM   15  C   UNL     1     -43.342  54.345 -55.780  1.00  0.00     0.120 A 
BRANCH  11  16
HETATM   16  C   UNL     1     -43.124  57.854 -54.781  1.00  0.00    -0.005 A 
HETATM   17  C   UNL     1     -41.911  58.550 -54.690  1.00  0.00     0.014 A 
HETATM   18  C   UNL     1     -41.866  59.814 -54.097  1.00  0.00     0.001 A 
HETATM   19  C   UNL     1     -43.033  60.396 -53.602  1.00  0.00     0.000 A 
HETATM   20  C   UNL     1     -44.247  59.721 -53.708  1.00  0.00     0.001 A 
HETATM   21  C   UNL     1     -44.293  58.456 -54.297  1.00  0.00     0.014 A 
ENDBRANCH  11  16
ENDBRANCH   9  10
ENDBRANCH   1   9
BRANCH   1  22
HETATM   22  C   UNL     1     -40.983  55.049 -53.074  1.00  0.00     0.273 C 
BRANCH  22  23
HETATM   23  C   UNL     1     -40.523  53.617 -52.995  1.00  0.00    -0.033 A 
HETATM   24  C   UNL     1     -40.132  53.052 -51.771  1.00  0.00     0.009 A 
HETATM   25  C   UNL     1     -39.677  51.734 -51.714  1.00  0.00     0.001 A 
HETATM   26  C   UNL     1     -39.613  50.966 -52.875  1.00  0.00     0.000 A 
HETATM   27  C   UNL     1     -40.008  51.511 -54.094  1.00  0.00     0.001 A 
HETATM   28  C   UNL     1     -40.463  52.829 -54.156  1.00  0.00     0.009 A 
ENDBRANCH  22  23
ENDBRANCH   1  22
TORSDOF 9
ENDMDL
MODEL 10
REMARK VINA RESULT:      -7.0      2.654      4.845
REMARK  9 active torsions:
REMARK  status: ('A' for Active; 'I' for Inactive)
REMARK    1  A    between atoms: C_2  and  C_3 
REMARK    2  A    between atoms: C_3  and  O_4 
REMARK    3  A    between atoms: C_3  and  C_5 
REMARK    4  A    between atoms: C_5  and  N_6 
REMARK    5  A    between atoms: N_6  and  C_8 
REMARK    6  A    between atoms: N_6  and  C_21 
REMARK    7  A    between atoms: C_8  and  C_9 
REMARK    8  A    between atoms: C_10  and  C_11 
REMARK    9  A    between atoms: C_21  and  C_22 
ROOT
HETATM    1  N   UNL     1     -42.470  55.352 -54.665  1.00  0.00    -0.061 N 
HETATM    2  H   UNL     1     -41.940  55.490 -53.802  1.00  0.00     0.280 HD
ENDROOT
BRANCH   1   3
HETATM    3  C   UNL     1     -41.815  56.271 -55.690  1.00  0.00     0.267 C 
BRANCH   3   4
HETATM    4  C   UNL     1     -42.741  56.631 -56.876  1.00  0.00     0.143 C 
BRANCH   4   5
HETATM    5  C   UNL     1     -42.606  58.126 -57.201  1.00  0.00     0.029 C 
HETATM    6  C   UNL     1     -43.928  58.783 -57.578  1.00  0.00     0.007 C 
ENDBRANCH   4   5
BRANCH   4   7
HETATM    7  O   UNL     1     -42.369  55.851 -58.011  1.00  0.00    -0.394 OA
HETATM    8  H   UNL     1     -41.688  56.330 -58.520  1.00  0.00     0.210 HD
ENDBRANCH   4   7
ENDBRANCH   3   4
ENDBRANCH   1   3
BRANCH   1   9
HETATM    9  C   UNL     1     -43.901  55.675 -54.280  1.00  0.00     0.277 C 
BRANCH   9  10
HETATM   10  C   UNL     1     -44.231  56.979 -53.640  1.00  0.00     0.016 A 
HETATM   11  C   UNL     1     -43.817  57.377 -52.322  1.00  0.00     0.096 A 
HETATM   12  N   UNL     1     -44.319  58.576 -52.001  1.00  0.00    -0.174 NA
HETATM   13  N   UNL     1     -44.967  58.984 -53.091  1.00  0.00    -0.288 N 
HETATM   14  H   UNL     1     -45.399  59.904 -53.076  1.00  0.00     0.188 HD
HETATM   15  C   UNL     1     -44.972  58.056 -54.093  1.00  0.00     0.120 A 
BRANCH  11  16
HETATM   16  C   UNL     1     -43.008  56.636 -51.356  1.00  0.00    -0.005 A 
HETATM   17  C   UNL     1     -41.737  57.088 -50.978  1.00  0.00     0.014 A 
HETATM   18  C   UNL     1     -40.972  56.358 -50.065  1.00  0.00     0.001 A 
HETATM   19  C   UNL     1     -41.476  55.180 -49.514  1.00  0.00     0.000 A 
HETATM   20  C   UNL     1     -42.748  54.734 -49.868  1.00  0.00     0.001 A 
HETATM   21  C   UNL     1     -43.512  55.461 -50.783  1.00  0.00     0.014 A 
ENDBRANCH  11  16
ENDBRANCH   9  10
ENDBRANCH   1   9
BRANCH   1  22
HETATM   22  C   UNL     1     -42.314  53.882 -54.999  1.00  0.00     0.273 C 
BRANCH  22  23
HETATM   23  C   UNL     1     -41.341  53.169 -54.098  1.00  0.00    -0.033 A 
HETATM   24  C   UNL     1     -40.785  51.935 -54.472  1.00  0.00     0.009 A 
HETATM   25  C   UNL     1     -39.909  51.267 -53.615  1.00  0.00     0.001 A 
HETATM   26  C   UNL     1     -39.573  51.825 -52.383  1.00  0.00     0.000 A 
HETATM   27  C   UNL     1     -40.109  53.055 -52.006  1.00  0.00     0.001 A 
HETATM   28  C   UNL     1     -40.987  53.725 -52.859  1.00  0.00     0.009 A 
ENDBRANCH  22  23
ENDBRANCH   1  22
TORSDOF 9
ENDMDL
