MODEL 1
REMARK VINA RESULT:      -9.3      0.000      0.000
REMARK  3 active torsions:
REMARK  status: ('A' for Active; 'I' for Inactive)
REMARK    1  A    between atoms: C_4  and  C_5 
REMARK    2  A    between atoms: C_11  and  C_12 
REMARK    3  A    between atoms: C_21  and  N_22 
ROOT
HETATM    1  C   UNL     1     -40.551  53.036 -50.225  1.00  0.00     0.071 A 
HETATM    2  N   UNL     1     -40.619  53.065 -48.848  1.00  0.00    -0.274 N 
HETATM    3  H   UNL     1     -40.443  52.298 -48.207  1.00  0.00     0.189 HD
HETATM    4  N   UNL     1     -40.911  54.273 -48.333  1.00  0.00    -0.148 NA
HETATM    5  C   UNL     1     -41.029  55.019 -49.422  1.00  0.00     0.199 A 
HETATM    6  C   UNL     1     -40.870  54.324 -50.628  1.00  0.00     0.036 A 
HETATM    7  C   UNL     1     -40.998  55.027 -51.946  1.00  0.00     0.079 A 
HETATM    8  C   UNL     1     -41.128  56.546 -51.695  1.00  0.00     0.063 A 
HETATM    9  C   UNL     1     -41.199  57.428 -52.930  1.00  0.00     0.020 C 
HETATM   10  N   UNL     1     -41.259  58.161 -53.955  1.00  0.00    -0.096 N 
HETATM   11  C   UNL     1     -41.250  57.109 -50.466  1.00  0.00     0.139 A 
HETATM   12  O   UNL     1     -41.248  56.340 -49.299  1.00  0.00    -0.277 OA
ENDROOT
BRANCH   7  13
HETATM   13  C   UNL     1     -42.166  54.516 -52.863  1.00  0.00     0.022 C 
HETATM   14  C   UNL     1     -43.345  55.460 -52.926  1.00  0.00    -0.025 C 
HETATM   15  C   UNL     1     -43.878  55.916 -54.069  1.00  0.00    -0.030 C 
HETATM   16  C   UNL     1     -43.328  55.593 -55.423  1.00  0.00     0.027 C 
HETATM   17  C   UNL     1     -41.902  55.046 -55.368  1.00  0.00     0.004 C 
HETATM   18  C   UNL     1     -41.729  54.011 -54.260  1.00  0.00     0.010 C 
ENDBRANCH   7  13
BRANCH  11  19
HETATM   19  N   UNL     1     -41.406  58.455 -50.218  1.00  0.00    -0.282 NA
HETATM   20  H   UNL     1     -42.260  58.880 -50.572  1.00  0.00     0.126 HD
HETATM   21  H   UNL     1     -41.217  58.684 -49.245  1.00  0.00     0.126 HD
ENDBRANCH  11  19
BRANCH   1  22
HETATM   22  C   UNL     1     -40.177  51.826 -50.942  1.00  0.00    -0.007 A 
HETATM   23  C   UNL     1     -39.805  51.887 -52.292  1.00  0.00     0.014 A 
HETATM   24  C   UNL     1     -39.456  50.726 -52.984  1.00  0.00     0.001 A 
HETATM   25  C   UNL     1     -39.482  49.493 -52.332  1.00  0.00     0.000 A 
HETATM   26  C   UNL     1     -39.856  49.422 -50.992  1.00  0.00     0.001 A 
HETATM   27  C   UNL     1     -40.204  50.583 -50.299  1.00  0.00     0.014 A 
ENDBRANCH   1  22
TORSDOF 3
ENDMDL
MODEL 2
REMARK VINA RESULT:      -8.9      2.843      4.276
REMARK  3 active torsions:
REMARK  status: ('A' for Active; 'I' for Inactive)
REMARK    1  A    between atoms: C_4  and  C_5 
REMARK    2  A    between atoms: C_11  and  C_12 
REMARK    3  A    between atoms: C_21  and  N_22 
ROOT
HETATM    1  C   UNL     1     -43.212  56.306 -51.289  1.00  0.00     0.071 A 
HETATM    2  N   UNL     1     -44.391  56.316 -50.573  1.00  0.00    -0.274 N 
HETATM    3  H   UNL     1     -44.628  55.743 -49.770  1.00  0.00     0.189 HD
HETATM    4  N   UNL     1     -45.284  57.232 -50.990  1.00  0.00    -0.148 NA
HETATM    5  C   UNL     1     -44.642  57.809 -51.995  1.00  0.00     0.199 A 
HETATM    6  C   UNL     1     -43.381  57.266 -52.274  1.00  0.00     0.036 A 
HETATM    7  C   UNL     1     -42.544  57.798 -53.398  1.00  0.00     0.079 A 
HETATM    8  C   UNL     1     -43.221  59.060 -53.976  1.00  0.00     0.063 A 
HETATM    9  C   UNL     1     -42.472  59.777 -55.087  1.00  0.00     0.020 C 
HETATM   10  N   UNL     1     -41.851  60.372 -56.010  1.00  0.00    -0.096 N 
HETATM   11  C   UNL     1     -44.447  59.507 -53.603  1.00  0.00     0.139 A 
HETATM   12  O   UNL     1     -45.205  58.854 -52.627  1.00  0.00    -0.277 OA
ENDROOT
BRANCH   7  13
HETATM   13  C   UNL     1     -42.230  56.767 -54.540  1.00  0.00     0.022 C 
HETATM   14  C   UNL     1     -40.992  55.937 -54.285  1.00  0.00    -0.025 C 
HETATM   15  C   UNL     1     -40.967  54.597 -54.327  1.00  0.00    -0.030 C 
HETATM   16  C   UNL     1     -42.181  53.757 -54.571  1.00  0.00     0.027 C 
HETATM   17  C   UNL     1     -43.485  54.526 -54.367  1.00  0.00     0.004 C 
HETATM   18  C   UNL     1     -43.436  55.914 -55.003  1.00  0.00     0.010 C 
ENDBRANCH   7  13
BRANCH  11  19
HETATM   19  N   UNL     1     -45.089  60.606 -54.130  1.00  0.00    -0.282 NA
HETATM   20  H   UNL     1     -45.896  60.415 -54.720  1.00  0.00     0.126 HD
HETATM   21  H   UNL     1     -45.269  61.314 -53.423  1.00  0.00     0.126 HD
ENDBRANCH  11  19
BRANCH   1  22
HETATM   22  C   UNL     1     -42.111  55.426 -50.925  1.00  0.00    -0.007 A 
HETATM   23  C   UNL     1     -42.243  54.036 -51.051  1.00  0.00     0.014 A 
HETATM   24  C   UNL     1     -41.192  53.189 -50.693  1.00  0.00     0.001 A 
HETATM   25  C   UNL     1     -40.003  53.726 -50.201  1.00  0.00     0.000 A 
HETATM   26  C   UNL     1     -39.865  55.106 -50.066  1.00  0.00     0.001 A 
HETATM   27  C   UNL     1     -40.915  55.954 -50.426  1.00  0.00     0.014 A 
ENDBRANCH   1  22
TORSDOF 3
ENDMDL
MODEL 3
REMARK VINA RESULT:      -8.8      2.610      4.186
REMARK  3 active torsions:
REMARK  status: ('A' for Active; 'I' for Inactive)
REMARK    1  A    between atoms: C_4  and  C_5 
REMARK    2  A    between atoms: C_11  and  C_12 
REMARK    3  A    between atoms: C_21  and  N_22 
ROOT
HETATM    1  C   UNL     1     -40.745  56.971 -50.887  1.00  0.00     0.071 A 
HETATM    2  N   UNL     1     -40.339  58.107 -50.219  1.00  0.00    -0.274 N 
HETATM    3  H   UNL     1     -39.936  58.163 -49.289  1.00  0.00     0.189 HD
HETATM    4  N   UNL     1     -40.468  59.243 -50.928  1.00  0.00    -0.148 NA
HETATM    5  C   UNL     1     -40.969  58.801 -52.073  1.00  0.00     0.199 A 
HETATM    6  C   UNL     1     -41.214  57.421 -52.111  1.00  0.00     0.036 A 
HETATM    7  C   UNL     1     -41.801  56.777 -53.330  1.00  0.00     0.079 A 
HETATM    8  C   UNL     1     -41.875  57.822 -54.465  1.00  0.00     0.063 A 
HETATM    9  C   UNL     1     -42.387  57.323 -55.807  1.00  0.00     0.020 C 
HETATM   10  N   UNL     1     -42.811  56.909 -56.920  1.00  0.00    -0.096 N 
HETATM   11  C   UNL     1     -41.584  59.139 -54.311  1.00  0.00     0.139 A 
HETATM   12  O   UNL     1     -41.165  59.663 -53.086  1.00  0.00    -0.277 OA
ENDROOT
BRANCH   7  13
HETATM   13  C   UNL     1     -43.200  56.095 -53.114  1.00  0.00     0.022 C 
HETATM   14  C   UNL     1     -43.111  54.622 -52.783  1.00  0.00    -0.025 C 
HETATM   15  C   UNL     1     -43.699  54.058 -51.718  1.00  0.00    -0.030 C 
HETATM   16  C   UNL     1     -44.465  54.832 -50.692  1.00  0.00     0.027 C 
HETATM   17  C   UNL     1     -44.178  56.332 -50.744  1.00  0.00     0.004 C 
HETATM   18  C   UNL     1     -44.165  56.861 -52.177  1.00  0.00     0.010 C 
ENDBRANCH   7  13
BRANCH  11  19
HETATM   19  N   UNL     1     -41.680  60.096 -55.297  1.00  0.00    -0.282 NA
HETATM   20  H   UNL     1     -42.463  60.741 -55.222  1.00  0.00     0.126 HD
HETATM   21  H   UNL     1     -40.791  60.563 -55.458  1.00  0.00     0.126 HD
ENDBRANCH  11  19
BRANCH   1  22
HETATM   22  C   UNL     1     -40.608  55.650 -50.291  1.00  0.00    -0.007 A 
HETATM   23  C   UNL     1     -40.066  54.590 -51.032  1.00  0.00     0.014 A 
HETATM   24  C   UNL     1     -39.944  53.320 -50.466  1.00  0.00     0.001 A 
HETATM   25  C   UNL     1     -40.368  53.098 -49.156  1.00  0.00     0.000 A 
HETATM   26  C   UNL     1     -40.914  54.143 -48.415  1.00  0.00     0.001 A 
HETATM   27  C   UNL     1     -41.035  55.415 -48.979  1.00  0.00     0.014 A 
ENDBRANCH   1  22
TORSDOF 3
ENDMDL
MODEL 4
REMARK VINA RESULT:      -8.6      2.495      3.919
REMARK  3 active torsions:
REMARK  status: ('A' for Active; 'I' for Inactive)
REMARK    1  A    between atoms: C_4  and  C_5 
REMARK    2  A    between atoms: C_11  and  C_12 
REMARK    3  A    between atoms: C_21  and  N_22 
ROOT
HETATM    1  C   UNL     1     -41.213  56.330 -52.642  1.00  0.00     0.071 A 
HETATM    2  N   UNL     1     -41.208  56.618 -51.293  1.00  0.00    -0.274 N 
HETATM    3  H   UNL     1     -40.955  55.996 -50.532  1.00  0.00     0.189 HD
HETATM    4  N   UNL     1     -41.540  57.887 -50.996  1.00  0.00    -0.148 NA
HETATM    5  C   UNL     1     -41.758  58.407 -52.195  1.00  0.00     0.199 A 
HETATM    6  C   UNL     1     -41.625  57.502 -53.258  1.00  0.00     0.036 A 
HETATM    7  C   UNL     1     -41.863  57.935 -54.673  1.00  0.00     0.079 A 
HETATM    8  C   UNL     1     -42.065  59.466 -54.703  1.00  0.00     0.063 A 
HETATM    9  C   UNL     1     -42.252  60.093 -56.075  1.00  0.00     0.020 C 
HETATM   10  N   UNL     1     -42.409  60.614 -57.213  1.00  0.00    -0.096 N 
HETATM   11  C   UNL     1     -42.152  60.247 -53.596  1.00  0.00     0.139 A 
HETATM   12  O   UNL     1     -42.044  59.715 -52.309  1.00  0.00    -0.277 OA
ENDROOT
BRANCH   7  13
HETATM   13  C   UNL     1     -43.048  57.206 -55.402  1.00  0.00     0.022 C 
HETATM   14  C   UNL     1     -42.606  56.328 -56.550  1.00  0.00    -0.025 C 
HETATM   15  C   UNL     1     -42.945  55.038 -56.680  1.00  0.00    -0.030 C 
HETATM   16  C   UNL     1     -43.754  54.292 -55.666  1.00  0.00     0.027 C 
HETATM   17  C   UNL     1     -43.810  55.000 -54.314  1.00  0.00     0.004 C 
HETATM   18  C   UNL     1     -44.058  56.500 -54.464  1.00  0.00     0.010 C 
ENDBRANCH   7  13
BRANCH  11  19
HETATM   19  N   UNL     1     -42.371  61.607 -53.596  1.00  0.00    -0.282 NA
HETATM   20  H   UNL     1     -41.763  62.159 -52.996  1.00  0.00     0.126 HD
HETATM   21  H   UNL     1     -42.446  61.977 -54.540  1.00  0.00     0.126 HD
ENDBRANCH  11  19
BRANCH   1  22
HETATM   22  C   UNL     1     -40.810  55.024 -53.141  1.00  0.00    -0.007 A 
HETATM   23  C   UNL     1     -40.298  54.887 -54.438  1.00  0.00     0.014 A 
HETATM   24  C   UNL     1     -39.921  53.633 -54.923  1.00  0.00     0.001 A 
HETATM   25  C   UNL     1     -40.058  52.505 -54.116  1.00  0.00     0.000 A 
HETATM   26  C   UNL     1     -40.573  52.630 -52.827  1.00  0.00     0.001 A 
HETATM   27  C   UNL     1     -40.948  53.884 -52.341  1.00  0.00     0.014 A 
ENDBRANCH   1  22
TORSDOF 3
ENDMDL
MODEL 5
REMARK VINA RESULT:      -8.5     14.355     16.936
REMARK  3 active torsions:
REMARK  status: ('A' for Active; 'I' for Inactive)
REMARK    1  A    between atoms: C_4  and  C_5 
REMARK    2  A    between atoms: C_11  and  C_12 
REMARK    3  A    between atoms: C_21  and  N_22 
ROOT
HETATM    1  C   UNL     1     -34.123  40.250 -54.355  1.00  0.00     0.071 A 
HETATM    2  N   UNL     1     -32.908  40.767 -53.959  1.00  0.00    -0.274 N 
HETATM    3  H   UNL     1     -32.705  41.280 -53.108  1.00  0.00     0.189 HD
HETATM    4  N   UNL     1     -31.893  40.502 -54.802  1.00  0.00    -0.148 NA
HETATM    5  C   UNL     1     -32.494  39.800 -55.751  1.00  0.00     0.199 A 
HETATM    6  C   UNL     1     -33.876  39.641 -55.575  1.00  0.00     0.036 A 
HETATM    7  C   UNL     1     -34.698  38.890 -56.578  1.00  0.00     0.079 A 
HETATM    8  C   UNL     1     -33.757  38.239 -57.615  1.00  0.00     0.063 A 
HETATM    9  C   UNL     1     -34.419  37.375 -58.676  1.00  0.00     0.020 C 
HETATM   10  N   UNL     1     -34.968  36.659 -59.557  1.00  0.00    -0.096 N 
HETATM   11  C   UNL     1     -32.417  38.451 -57.669  1.00  0.00     0.139 A 
HETATM   12  O   UNL     1     -31.764  39.281 -56.754  1.00  0.00    -0.277 OA
ENDROOT
BRANCH   7  13
HETATM   13  C   UNL     1     -35.810  39.736 -57.295  1.00  0.00     0.022 C 
HETATM   14  C   UNL     1     -37.150  39.696 -56.594  1.00  0.00    -0.025 C 
HETATM   15  C   UNL     1     -37.841  40.788 -56.237  1.00  0.00    -0.030 C 
HETATM   16  C   UNL     1     -37.338  42.183 -56.434  1.00  0.00     0.027 C 
HETATM   17  C   UNL     1     -35.835  42.241 -56.697  1.00  0.00     0.004 C 
HETATM   18  C   UNL     1     -35.387  41.172 -57.692  1.00  0.00     0.010 C 
ENDBRANCH   7  13
BRANCH  11  19
HETATM   19  N   UNL     1     -31.563  37.914 -58.607  1.00  0.00    -0.282 NA
HETATM   20  H   UNL     1     -31.879  37.947 -59.573  1.00  0.00     0.126 HD
HETATM   21  H   UNL     1     -30.610  38.249 -58.485  1.00  0.00     0.126 HD
ENDBRANCH  11  19
BRANCH   1  22
HETATM   22  C   UNL     1     -35.311  40.383 -53.524  1.00  0.00    -0.007 A 
HETATM   23  C   UNL     1     -35.982  39.244 -53.058  1.00  0.00     0.014 A 
HETATM   24  C   UNL     1     -37.128  39.370 -52.270  1.00  0.00     0.001 A 
HETATM   25  C   UNL     1     -37.615  40.635 -51.947  1.00  0.00     0.000 A 
HETATM   26  C   UNL     1     -36.959  41.773 -52.412  1.00  0.00     0.001 A 
HETATM   27  C   UNL     1     -35.812  41.649 -53.199  1.00  0.00     0.014 A 
ENDBRANCH   1  22
TORSDOF 3
ENDMDL
MODEL 6
REMARK VINA RESULT:      -8.4     13.835     16.629
REMARK  3 active torsions:
REMARK  status: ('A' for Active; 'I' for Inactive)
REMARK    1  A    between atoms: C_4  and  C_5 
REMARK    2  A    between atoms: C_11  and  C_12 
REMARK    3  A    between atoms: C_21  and  N_22 
ROOT
HETATM    1  C   UNL     1     -34.130  40.446 -54.705  1.00  0.00     0.071 A 
HETATM    2  N   UNL     1     -34.222  41.626 -55.413  1.00  0.00    -0.274 N 
HETATM    3  H   UNL     1     -33.607  41.949 -56.153  1.00  0.00     0.189 HD
HETATM    4  N   UNL     1     -35.283  42.387 -55.087  1.00  0.00    -0.148 NA
HETATM    5  C   UNL     1     -35.869  41.659 -54.148  1.00  0.00     0.199 A 
HETATM    6  C   UNL     1     -35.197  40.473 -53.820  1.00  0.00     0.036 A 
HETATM    7  C   UNL     1     -35.725  39.556 -52.760  1.00  0.00     0.079 A 
HETATM    8  C   UNL     1     -37.116  40.055 -52.310  1.00  0.00     0.063 A 
HETATM    9  C   UNL     1     -37.837  39.201 -51.279  1.00  0.00     0.020 C 
HETATM   10  N   UNL     1     -38.435  38.493 -50.424  1.00  0.00    -0.096 N 
HETATM   11  C   UNL     1     -37.679  41.220 -52.721  1.00  0.00     0.139 A 
HETATM   12  O   UNL     1     -37.036  42.072 -53.623  1.00  0.00    -0.277 OA
ENDROOT
BRANCH   7  13
HETATM   13  C   UNL     1     -34.781  39.358 -51.520  1.00  0.00     0.022 C 
HETATM   14  C   UNL     1     -33.784  38.234 -51.690  1.00  0.00    -0.025 C 
HETATM   15  C   UNL     1     -32.462  38.372 -51.516  1.00  0.00    -0.030 C 
HETATM   16  C   UNL     1     -31.806  39.677 -51.191  1.00  0.00     0.027 C 
HETATM   17  C   UNL     1     -32.705  40.880 -51.472  1.00  0.00     0.004 C 
HETATM   18  C   UNL     1     -34.132  40.655 -50.977  1.00  0.00     0.010 C 
ENDBRANCH   7  13
BRANCH  11  19
HETATM   19  N   UNL     1     -38.899  41.705 -52.305  1.00  0.00    -0.282 NA
HETATM   20  H   UNL     1     -39.612  41.011 -52.096  1.00  0.00     0.126 HD
HETATM   21  H   UNL     1     -38.797  42.407 -51.574  1.00  0.00     0.126 HD
ENDBRANCH  11  19
BRANCH   1  22
HETATM   22  C   UNL     1     -33.082  39.474 -54.982  1.00  0.00    -0.007 A 
HETATM   23  C   UNL     1     -33.410  38.145 -55.283  1.00  0.00     0.014 A 
HETATM   24  C   UNL     1     -32.406  37.209 -55.539  1.00  0.00     0.001 A 
HETATM   25  C   UNL     1     -31.067  37.593 -55.489  1.00  0.00     0.000 A 
HETATM   26  C   UNL     1     -30.732  38.910 -55.184  1.00  0.00     0.001 A 
HETATM   27  C   UNL     1     -31.735  39.848 -54.930  1.00  0.00     0.014 A 
ENDBRANCH   1  22
TORSDOF 3
ENDMDL
MODEL 7
REMARK VINA RESULT:      -8.4      3.705      5.787
REMARK  3 active torsions:
REMARK  status: ('A' for Active; 'I' for Inactive)
REMARK    1  A    between atoms: C_4  and  C_5 
REMARK    2  A    between atoms: C_11  and  C_12 
REMARK    3  A    between atoms: C_21  and  N_22 
ROOT
HETATM    1  C   UNL     1     -42.862  56.033 -54.440  1.00  0.00     0.071 A 
HETATM    2  N   UNL     1     -42.663  55.719 -55.768  1.00  0.00    -0.274 N 
HETATM    3  H   UNL     1     -42.172  54.913 -56.143  1.00  0.00     0.189 HD
HETATM    4  N   UNL     1     -43.234  56.578 -56.632  1.00  0.00    -0.148 NA
HETATM    5  C   UNL     1     -43.807  57.452 -55.818  1.00  0.00     0.199 A 
HETATM    6  C   UNL     1     -43.585  57.215 -54.454  1.00  0.00     0.036 A 
HETATM    7  C   UNL     1     -44.149  58.132 -53.411  1.00  0.00     0.079 A 
HETATM    8  C   UNL     1     -45.084  59.155 -54.093  1.00  0.00     0.063 A 
HETATM    9  C   UNL     1     -45.802  60.128 -53.172  1.00  0.00     0.020 C 
HETATM   10  N   UNL     1     -46.398  60.936 -52.409  1.00  0.00    -0.096 N 
HETATM   11  C   UNL     1     -45.237  59.272 -55.436  1.00  0.00     0.139 A 
HETATM   12  O   UNL     1     -44.557  58.442 -56.331  1.00  0.00    -0.277 OA
ENDROOT
BRANCH   7  13
HETATM   13  C   UNL     1     -43.082  58.865 -52.522  1.00  0.00     0.022 C 
HETATM   14  C   UNL     1     -42.675  58.084 -51.293  1.00  0.00    -0.025 C 
HETATM   15  C   UNL     1     -41.405  57.803 -50.970  1.00  0.00    -0.030 C 
HETATM   16  C   UNL     1     -40.235  58.178 -51.825  1.00  0.00     0.027 C 
HETATM   17  C   UNL     1     -40.635  58.537 -53.255  1.00  0.00     0.004 C 
HETATM   18  C   UNL     1     -41.867  59.438 -53.294  1.00  0.00     0.010 C 
ENDBRANCH   7  13
BRANCH  11  19
HETATM   19  N   UNL     1     -46.034  60.201 -56.069  1.00  0.00    -0.282 NA
HETATM   20  H   UNL     1     -46.919  60.416 -55.617  1.00  0.00     0.126 HD
HETATM   21  H   UNL     1     -45.508  61.030 -56.336  1.00  0.00     0.126 HD
ENDBRANCH  11  19
BRANCH   1  22
HETATM   22  C   UNL     1     -42.372  55.171 -53.375  1.00  0.00    -0.007 A 
HETATM   23  C   UNL     1     -43.238  54.726 -52.367  1.00  0.00     0.014 A 
HETATM   24  C   UNL     1     -42.768  53.908 -51.338  1.00  0.00     0.001 A 
HETATM   25  C   UNL     1     -41.426  53.532 -51.306  1.00  0.00     0.000 A 
HETATM   26  C   UNL     1     -40.555  53.975 -52.299  1.00  0.00     0.001 A 
HETATM   27  C   UNL     1     -41.025  54.792 -53.330  1.00  0.00     0.014 A 
ENDBRANCH   1  22
TORSDOF 3
ENDMDL
MODEL 8
REMARK VINA RESULT:      -8.3      1.352      2.001
REMARK  3 active torsions:
REMARK  status: ('A' for Active; 'I' for Inactive)
REMARK    1  A    between atoms: C_4  and  C_5 
REMARK    2  A    between atoms: C_11  and  C_12 
REMARK    3  A    between atoms: C_21  and  N_22 
ROOT
HETATM    1  C   UNL     1     -40.829  54.262 -51.396  1.00  0.00     0.071 A 
HETATM    2  N   UNL     1     -40.854  54.186 -50.019  1.00  0.00    -0.274 N 
HETATM    3  H   UNL     1     -40.662  53.373 -49.444  1.00  0.00     0.189 HD
HETATM    4  N   UNL     1     -41.127  55.352 -49.405  1.00  0.00    -0.148 NA
HETATM    5  C   UNL     1     -41.276  56.179 -50.430  1.00  0.00     0.199 A 
HETATM    6  C   UNL     1     -41.155  55.576 -51.690  1.00  0.00     0.036 A 
HETATM    7  C   UNL     1     -41.321  56.377 -52.946  1.00  0.00     0.079 A 
HETATM    8  C   UNL     1     -41.439  57.873 -52.577  1.00  0.00     0.063 A 
HETATM    9  C   UNL     1     -41.546  58.846 -53.740  1.00  0.00     0.020 C 
HETATM   10  N   UNL     1     -41.635  59.654 -54.704  1.00  0.00    -0.096 N 
HETATM   11  C   UNL     1     -41.522  58.341 -51.306  1.00  0.00     0.139 A 
HETATM   12  O   UNL     1     -41.487  57.487 -50.202  1.00  0.00    -0.277 OA
ENDROOT
BRANCH   7  13
HETATM   13  C   UNL     1     -42.518  55.938 -53.863  1.00  0.00     0.022 C 
HETATM   14  C   UNL     1     -43.758  56.786 -53.690  1.00  0.00    -0.025 C 
HETATM   15  C   UNL     1     -44.403  57.384 -54.702  1.00  0.00    -0.030 C 
HETATM   16  C   UNL     1     -43.935  57.334 -56.123  1.00  0.00     0.027 C 
HETATM   17  C   UNL     1     -42.477  56.897 -56.252  1.00  0.00     0.004 C 
HETATM   18  C   UNL     1     -42.154  55.708 -55.350  1.00  0.00     0.010 C 
ENDBRANCH   7  13
BRANCH  11  19
HETATM   19  N   UNL     1     -41.667  59.665 -50.953  1.00  0.00    -0.282 NA
HETATM   20  H   UNL     1     -41.028  60.012 -50.242  1.00  0.00     0.126 HD
HETATM   21  H   UNL     1     -41.725  60.269 -51.770  1.00  0.00     0.126 HD
ENDBRANCH  11  19
BRANCH   1  22
HETATM   22  C   UNL     1     -40.480  53.109 -52.212  1.00  0.00    -0.007 A 
HETATM   23  C   UNL     1     -39.802  52.019 -51.649  1.00  0.00     0.014 A 
HETATM   24  C   UNL     1     -39.457  50.916 -52.433  1.00  0.00     0.001 A 
HETATM   25  C   UNL     1     -39.783  50.897 -53.788  1.00  0.00     0.000 A 
HETATM   26  C   UNL     1     -40.451  51.978 -54.359  1.00  0.00     0.001 A 
HETATM   27  C   UNL     1     -40.798  53.081 -53.575  1.00  0.00     0.014 A 
ENDBRANCH   1  22
TORSDOF 3
ENDMDL
MODEL 9
REMARK VINA RESULT:      -8.2      2.410      3.263
REMARK  3 active torsions:
REMARK  status: ('A' for Active; 'I' for Inactive)
REMARK    1  A    between atoms: C_4  and  C_5 
REMARK    2  A    between atoms: C_11  and  C_12 
REMARK    3  A    between atoms: C_21  and  N_22 
ROOT
HETATM    1  C   UNL     1     -42.825  54.982 -51.196  1.00  0.00     0.071 A 
HETATM    2  N   UNL     1     -43.907  54.514 -50.480  1.00  0.00    -0.274 N 
HETATM    3  H   UNL     1     -44.019  53.595 -50.064  1.00  0.00     0.189 HD
HETATM    4  N   UNL     1     -44.885  55.420 -50.298  1.00  0.00    -0.148 NA
HETATM    5  C   UNL     1     -44.397  56.485 -50.918  1.00  0.00     0.199 A 
HETATM    6  C   UNL     1     -43.156  56.283 -51.539  1.00  0.00     0.036 A 
HETATM    7  C   UNL     1     -42.487  57.388 -52.300  1.00  0.00     0.079 A 
HETATM    8  C   UNL     1     -43.286  58.694 -52.097  1.00  0.00     0.063 A 
HETATM    9  C   UNL     1     -42.710  59.942 -52.747  1.00  0.00     0.020 C 
HETATM   10  N   UNL     1     -42.234  60.978 -53.286  1.00  0.00    -0.096 N 
HETATM   11  C   UNL     1     -44.476  58.769 -51.449  1.00  0.00     0.139 A 
HETATM   12  O   UNL     1     -45.079  57.643 -50.882  1.00  0.00    -0.277 OA
ENDROOT
BRANCH   7  13
HETATM   13  C   UNL     1     -42.269  57.104 -53.829  1.00  0.00     0.022 C 
HETATM   14  C   UNL     1     -40.978  56.378 -54.134  1.00  0.00    -0.025 C 
HETATM   15  C   UNL     1     -40.905  55.250 -54.854  1.00  0.00    -0.030 C 
HETATM   16  C   UNL     1     -42.106  54.537 -55.393  1.00  0.00     0.027 C 
HETATM   17  C   UNL     1     -43.406  54.973 -54.721  1.00  0.00     0.004 C 
HETATM   18  C   UNL     1     -43.487  56.490 -54.562  1.00  0.00     0.010 C 
ENDBRANCH   7  13
BRANCH  11  19
HETATM   19  N   UNL     1     -45.225  59.913 -51.289  1.00  0.00    -0.282 NA
HETATM   20  H   UNL     1     -44.951  60.527 -50.526  1.00  0.00     0.126 HD
HETATM   21  H   UNL     1     -45.358  60.404 -52.170  1.00  0.00     0.126 HD
ENDBRANCH  11  19
BRANCH   1  22
HETATM   22  C   UNL     1     -41.650  54.153 -51.423  1.00  0.00    -0.007 A 
HETATM   23  C   UNL     1     -41.647  53.191 -52.442  1.00  0.00     0.014 A 
HETATM   24  C   UNL     1     -40.525  52.388 -52.655  1.00  0.00     0.001 A 
HETATM   25  C   UNL     1     -39.399  52.537 -51.847  1.00  0.00     0.000 A 
HETATM   26  C   UNL     1     -39.395  53.486 -50.827  1.00  0.00     0.001 A 
HETATM   27  C   UNL     1     -40.516  54.291 -50.614  1.00  0.00     0.014 A 
ENDBRANCH   1  22
TORSDOF 3
ENDMDL
MODEL 10
REMARK VINA RESULT:      -8.2      3.148      4.868
REMARK  3 active torsions:
REMARK  status: ('A' for Active; 'I' for Inactive)
REMARK    1  A    between atoms: C_4  and  C_5 
REMARK    2  A    between atoms: C_11  and  C_12 
REMARK    3  A    between atoms: C_21  and  N_22 
ROOT
HETATM    1  C   UNL     1     -41.122  57.032 -53.518  1.00  0.00     0.071 A 
HETATM    2  N   UNL     1     -39.984  57.735 -53.856  1.00  0.00    -0.274 N 
HETATM    3  H   UNL     1     -39.238  57.436 -54.476  1.00  0.00     0.189 HD
HETATM    4  N   UNL     1     -39.914  58.966 -53.319  1.00  0.00    -0.148 NA
HETATM    5  C   UNL     1     -41.041  59.033 -52.625  1.00  0.00     0.199 A 
HETATM    6  C   UNL     1     -41.817  57.866 -52.657  1.00  0.00     0.036 A 
HETATM    7  C   UNL     1     -43.109  57.780 -51.902  1.00  0.00     0.079 A 
HETATM    8  C   UNL     1     -43.445  59.170 -51.319  1.00  0.00     0.063 A 
HETATM    9  C   UNL     1     -44.765  59.287 -50.574  1.00  0.00     0.020 C 
HETATM   10  N   UNL     1     -45.860  59.383 -49.955  1.00  0.00    -0.096 N 
HETATM   11  C   UNL     1     -42.614  60.242 -51.374  1.00  0.00     0.139 A 
HETATM   12  O   UNL     1     -41.365  60.176 -51.996  1.00  0.00    -0.277 OA
ENDROOT
BRANCH   7  13
HETATM   13  C   UNL     1     -43.151  56.684 -50.778  1.00  0.00     0.022 C 
HETATM   14  C   UNL     1     -43.749  55.371 -51.232  1.00  0.00    -0.025 C 
HETATM   15  C   UNL     1     -43.144  54.183 -51.090  1.00  0.00    -0.030 C 
HETATM   16  C   UNL     1     -41.771  54.021 -50.517  1.00  0.00     0.027 C 
HETATM   17  C   UNL     1     -40.981  55.328 -50.489  1.00  0.00     0.004 C 
HETATM   18  C   UNL     1     -41.829  56.498 -49.994  1.00  0.00     0.010 C 
ENDBRANCH   7  13
BRANCH  11  19
HETATM   19  N   UNL     1     -42.874  61.480 -50.828  1.00  0.00    -0.282 NA
HETATM   20  H   UNL     1     -43.066  61.499 -49.830  1.00  0.00     0.126 HD
HETATM   21  H   UNL     1     -42.186  62.172 -51.118  1.00  0.00     0.126 HD
ENDBRANCH  11  19
BRANCH   1  22
HETATM   22  C   UNL     1     -41.390  55.712 -54.070  1.00  0.00    -0.007 A 
HETATM   23  C   UNL     1     -42.628  55.430 -54.664  1.00  0.00     0.014 A 
HETATM   24  C   UNL     1     -42.892  54.161 -55.184  1.00  0.00     0.001 A 
HETATM   25  C   UNL     1     -41.921  53.163 -55.108  1.00  0.00     0.000 A 
HETATM   26  C   UNL     1     -40.690  53.432 -54.514  1.00  0.00     0.001 A 
HETATM   27  C   UNL     1     -40.425  54.701 -53.995  1.00  0.00     0.014 A 
ENDBRANCH   1  22
TORSDOF 3
ENDMDL
