MODEL 1
REMARK VINA RESULT:      -8.3      0.000      0.000
REMARK  3 active torsions:
REMARK  status: ('A' for Active; 'I' for Inactive)
REMARK    1  A    between atoms: C_2  and  C_3 
REMARK    2  A    between atoms: C_12  and  C_13 
REMARK    3  A    between atoms: C_13  and  C_14 
ROOT
HETATM    1  C   UNL     1     -39.959  51.927 -53.075  1.00  0.00    -0.027 A 
HETATM    2  C   UNL     1     -39.944  51.727 -51.685  1.00  0.00     0.039 A 
HETATM    3  C   UNL     1     -39.631  50.389 -51.071  1.00  0.00     0.071 C 
HETATM    4  N   UNL     1     -40.172  52.696 -50.783  1.00  0.00    -0.245 NA
HETATM    5  C   UNL     1     -40.470  53.904 -51.286  1.00  0.00     0.111 A 
HETATM    6  C   UNL     1     -40.576  54.257 -52.626  1.00  0.00     0.034 A 
HETATM    7  C   UNL     1     -40.254  53.232 -53.578  1.00  0.00    -0.038 A 
HETATM    8  C   UNL     1     -40.227  53.491 -55.065  1.00  0.00     0.050 C 
HETATM    9  S   UNL     1     -40.733  55.193 -50.217  1.00  0.00    -0.063 SA
HETATM   10  C   UNL     1     -41.070  56.281 -51.492  1.00  0.00     0.085 A 
HETATM   11  C   UNL     1     -40.995  55.649 -52.724  1.00  0.00     0.061 A 
HETATM   12  N   UNL     1     -41.253  56.275 -53.898  1.00  0.00    -0.397 N 
HETATM   13  H   UNL     1     -41.555  57.242 -53.965  1.00  0.00     0.156 HD
HETATM   14  H   UNL     1     -41.507  55.749 -54.728  1.00  0.00     0.156 HD
ENDROOT
BRANCH  10  15
HETATM   15  C   UNL     1     -41.357  57.655 -51.115  1.00  0.00     0.201 C 
HETATM   16  O   UNL     1     -40.489  58.462 -50.780  1.00  0.00    -0.286 OA
BRANCH  15  17
HETATM   17  C   UNL     1     -42.759  58.165 -51.113  1.00  0.00     0.018 A 
HETATM   18  C   UNL     1     -43.045  59.537 -51.069  1.00  0.00     0.055 A 
HETATM   19  C   UNL     1     -44.373  59.911 -51.094  1.00  0.00     0.106 A 
HETATM   20  C   UNL     1     -45.392  58.989 -51.172  1.00  0.00     0.105 A 
HETATM   21  O   UNL     1     -44.837  61.190 -51.049  1.00  0.00    -0.323 OA
HETATM   22  O   UNL     1     -46.620  59.572 -51.188  1.00  0.00    -0.323 OA
HETATM   23  C   UNL     1     -45.145  57.636 -51.233  1.00  0.00     0.040 A 
HETATM   24  C   UNL     1     -46.261  60.968 -51.133  1.00  0.00     0.352 A 
HETATM   25  C   UNL     1     -43.810  57.223 -51.208  1.00  0.00     0.018 A 
ENDBRANCH  15  17
ENDBRANCH  10  15
BRANCH   1  26
HETATM   26  C   UNL     1     -39.698  50.755 -54.006  1.00  0.00     0.036 C 
HETATM   27  C   UNL     1     -40.987  50.073 -54.444  1.00  0.00     0.010 C 
ENDBRANCH   1  26
TORSDOF 3
ENDMDL
MODEL 2
REMARK VINA RESULT:      -8.3      1.807      2.401
REMARK  3 active torsions:
REMARK  status: ('A' for Active; 'I' for Inactive)
REMARK    1  A    between atoms: C_2  and  C_3 
REMARK    2  A    between atoms: C_12  and  C_13 
REMARK    3  A    between atoms: C_13  and  C_14 
ROOT
HETATM    1  C   UNL     1     -40.278  52.727 -52.868  1.00  0.00    -0.027 A 
HETATM    2  C   UNL     1     -40.747  52.728 -51.544  1.00  0.00     0.039 A 
HETATM    3  C   UNL     1     -40.260  51.737 -50.521  1.00  0.00     0.071 C 
HETATM    4  N   UNL     1     -41.633  53.614 -51.060  1.00  0.00    -0.245 NA
HETATM    5  C   UNL     1     -42.106  54.508 -51.942  1.00  0.00     0.111 A 
HETATM    6  C   UNL     1     -41.788  54.611 -53.291  1.00  0.00     0.034 A 
HETATM    7  C   UNL     1     -40.782  53.709 -53.776  1.00  0.00    -0.038 A 
HETATM    8  C   UNL     1     -40.261  53.765 -55.191  1.00  0.00     0.050 C 
HETATM    9  S   UNL     1     -43.199  55.687 -51.406  1.00  0.00    -0.063 SA
HETATM   10  C   UNL     1     -43.358  56.361 -52.969  1.00  0.00     0.085 A 
HETATM   11  C   UNL     1     -42.588  55.671 -53.893  1.00  0.00     0.061 A 
HETATM   12  N   UNL     1     -42.560  55.975 -55.213  1.00  0.00    -0.397 N 
HETATM   13  H   UNL     1     -43.125  56.707 -55.634  1.00  0.00     0.156 HD
HETATM   14  H   UNL     1     -42.265  55.291 -55.903  1.00  0.00     0.156 HD
ENDROOT
BRANCH  10  15
HETATM   15  C   UNL     1     -44.228  57.519 -53.093  1.00  0.00     0.201 C 
HETATM   16  O   UNL     1     -45.030  57.668 -54.015  1.00  0.00    -0.286 OA
BRANCH  15  17
HETATM   17  C   UNL     1     -44.184  58.613 -52.080  1.00  0.00     0.018 A 
HETATM   18  C   UNL     1     -45.261  58.864 -51.217  1.00  0.00     0.055 A 
HETATM   19  C   UNL     1     -45.117  59.883 -50.300  1.00  0.00     0.106 A 
HETATM   20  C   UNL     1     -43.963  60.630 -50.209  1.00  0.00     0.105 A 
HETATM   21  O   UNL     1     -46.054  60.273 -49.394  1.00  0.00    -0.323 OA
HETATM   22  O   UNL     1     -44.032  61.577 -49.237  1.00  0.00    -0.323 OA
HETATM   23  C   UNL     1     -42.882  60.398 -51.030  1.00  0.00     0.040 A 
HETATM   24  C   UNL     1     -45.352  61.331 -48.708  1.00  0.00     0.352 A 
HETATM   25  C   UNL     1     -42.995  59.373 -51.973  1.00  0.00     0.018 A 
ENDBRANCH  15  17
ENDBRANCH  10  15
BRANCH   1  26
HETATM   26  C   UNL     1     -39.283  51.668 -53.313  1.00  0.00     0.036 C 
HETATM   27  C   UNL     1     -39.968  50.474 -53.962  1.00  0.00     0.010 C 
ENDBRANCH   1  26
TORSDOF 3
ENDMDL
MODEL 3
REMARK VINA RESULT:      -8.2      1.831      2.337
REMARK  3 active torsions:
REMARK  status: ('A' for Active; 'I' for Inactive)
REMARK    1  A    between atoms: C_2  and  C_3 
REMARK    2  A    between atoms: C_12  and  C_13 
REMARK    3  A    between atoms: C_13  and  C_14 
ROOT
HETATM    1  C   UNL     1     -39.983  52.055 -52.984  1.00  0.00    -0.027 A 
HETATM    2  C   UNL     1     -40.116  51.784 -51.612  1.00  0.00     0.039 A 
HETATM    3  C   UNL     1     -39.421  50.621 -50.954  1.00  0.00     0.071 C 
HETATM    4  N   UNL     1     -40.833  52.536 -50.762  1.00  0.00    -0.245 NA
HETATM    5  C   UNL     1     -41.482  53.576 -51.308  1.00  0.00     0.111 A 
HETATM    6  C   UNL     1     -41.499  53.951 -52.646  1.00  0.00     0.034 A 
HETATM    7  C   UNL     1     -40.666  53.185 -53.530  1.00  0.00    -0.038 A 
HETATM    8  C   UNL     1     -40.502  53.532 -54.989  1.00  0.00     0.050 C 
HETATM    9  S   UNL     1     -42.381  54.600 -50.300  1.00  0.00    -0.063 SA
HETATM   10  C   UNL     1     -42.897  55.566 -51.613  1.00  0.00     0.085 A 
HETATM   11  C   UNL     1     -42.393  55.090 -52.814  1.00  0.00     0.061 A 
HETATM   12  N   UNL     1     -42.678  55.650 -54.015  1.00  0.00    -0.397 N 
HETATM   13  H   UNL     1     -43.309  56.437 -54.132  1.00  0.00     0.156 HD
HETATM   14  H   UNL     1     -42.578  55.123 -54.876  1.00  0.00     0.156 HD
ENDROOT
BRANCH  10  15
HETATM   15  C   UNL     1     -43.739  56.705 -51.290  1.00  0.00     0.201 C 
HETATM   16  O   UNL     1     -44.723  56.633 -50.553  1.00  0.00    -0.286 OA
BRANCH  15  17
HETATM   17  C   UNL     1     -43.444  58.053 -51.857  1.00  0.00     0.018 A 
HETATM   18  C   UNL     1     -44.352  58.716 -52.696  1.00  0.00     0.055 A 
HETATM   19  C   UNL     1     -43.998  59.969 -53.151  1.00  0.00     0.106 A 
HETATM   20  C   UNL     1     -42.810  60.569 -52.797  1.00  0.00     0.105 A 
HETATM   21  O   UNL     1     -44.745  60.752 -53.976  1.00  0.00    -0.323 OA
HETATM   22  O   UNL     1     -42.665  61.801 -53.353  1.00  0.00    -0.323 OA
HETATM   23  C   UNL     1     -41.906  59.953 -51.962  1.00  0.00     0.040 A 
HETATM   24  C   UNL     1     -43.904  61.922 -54.081  1.00  0.00     0.352 A 
HETATM   25  C   UNL     1     -42.232  58.681 -51.484  1.00  0.00     0.018 A 
ENDBRANCH  15  17
ENDBRANCH  10  15
BRANCH   1  26
HETATM   26  C   UNL     1     -39.153  51.128 -53.857  1.00  0.00     0.036 C 
HETATM   27  C   UNL     1     -39.980  49.982 -54.424  1.00  0.00     0.010 C 
ENDBRANCH   1  26
TORSDOF 3
ENDMDL
MODEL 4
REMARK VINA RESULT:      -8.0      3.828      4.419
REMARK  3 active torsions:
REMARK  status: ('A' for Active; 'I' for Inactive)
REMARK    1  A    between atoms: C_2  and  C_3 
REMARK    2  A    between atoms: C_12  and  C_13 
REMARK    3  A    between atoms: C_13  and  C_14 
ROOT
HETATM    1  C   UNL     1     -40.014  51.978 -52.278  1.00  0.00    -0.027 A 
HETATM    2  C   UNL     1     -40.349  51.715 -53.616  1.00  0.00     0.039 A 
HETATM    3  C   UNL     1     -39.861  50.487 -54.338  1.00  0.00     0.071 C 
HETATM    4  N   UNL     1     -41.146  52.498 -54.361  1.00  0.00    -0.245 NA
HETATM    5  C   UNL     1     -41.592  53.614 -53.762  1.00  0.00     0.111 A 
HETATM    6  C   UNL     1     -41.316  54.046 -52.471  1.00  0.00     0.034 A 
HETATM    7  C   UNL     1     -40.527  53.161 -51.661  1.00  0.00    -0.038 A 
HETATM    8  C   UNL     1     -40.227  53.446 -50.210  1.00  0.00     0.050 C 
HETATM    9  S   UNL     1     -42.635  54.640 -54.618  1.00  0.00    -0.063 SA
HETATM   10  C   UNL     1     -42.721  55.756 -53.326  1.00  0.00     0.085 A 
HETATM   11  C   UNL     1     -41.940  55.346 -52.256  1.00  0.00     0.061 A 
HETATM   12  N   UNL     1     -41.800  56.067 -51.118  1.00  0.00    -0.397 N 
HETATM   13  H   UNL     1     -42.227  56.977 -50.973  1.00  0.00     0.156 HD
HETATM   14  H   UNL     1     -41.005  55.928 -50.503  1.00  0.00     0.156 HD
ENDROOT
BRANCH  10  15
HETATM   15  C   UNL     1     -43.577  56.914 -53.523  1.00  0.00     0.201 C 
HETATM   16  O   UNL     1     -44.401  57.297 -52.692  1.00  0.00    -0.286 OA
BRANCH  15  17
HETATM   17  C   UNL     1     -43.496  57.713 -54.780  1.00  0.00     0.018 A 
HETATM   18  C   UNL     1     -42.356  58.461 -55.107  1.00  0.00     0.055 A 
HETATM   19  C   UNL     1     -42.368  59.149 -56.302  1.00  0.00     0.106 A 
HETATM   20  C   UNL     1     -43.443  59.106 -57.162  1.00  0.00     0.105 A 
HETATM   21  O   UNL     1     -41.359  59.929 -56.778  1.00  0.00    -0.323 OA
HETATM   22  O   UNL     1     -43.243  59.851 -58.281  1.00  0.00    -0.323 OA
HETATM   23  C   UNL     1     -44.570  58.369 -56.878  1.00  0.00     0.040 A 
HETATM   24  C   UNL     1     -41.912  60.352 -58.043  1.00  0.00     0.352 A 
HETATM   25  C   UNL     1     -44.592  57.660 -55.673  1.00  0.00     0.018 A 
ENDBRANCH  15  17
ENDBRANCH  10  15
BRANCH   1  26
HETATM   26  C   UNL     1     -39.092  51.028 -51.532  1.00  0.00     0.036 C 
HETATM   27  C   UNL     1     -39.860  49.912 -50.838  1.00  0.00     0.010 C 
ENDBRANCH   1  26
TORSDOF 3
ENDMDL
MODEL 5
REMARK VINA RESULT:      -7.9      2.113      3.069
REMARK  3 active torsions:
REMARK  status: ('A' for Active; 'I' for Inactive)
REMARK    1  A    between atoms: C_2  and  C_3 
REMARK    2  A    between atoms: C_12  and  C_13 
REMARK    3  A    between atoms: C_13  and  C_14 
ROOT
HETATM    1  C   UNL     1     -40.141  52.168 -52.339  1.00  0.00    -0.027 A 
HETATM    2  C   UNL     1     -40.461  51.871 -53.674  1.00  0.00     0.039 A 
HETATM    3  C   UNL     1     -39.863  50.694 -54.398  1.00  0.00     0.071 C 
HETATM    4  N   UNL     1     -41.337  52.572 -54.412  1.00  0.00    -0.245 NA
HETATM    5  C   UNL     1     -41.883  53.640 -53.812  1.00  0.00     0.111 A 
HETATM    6  C   UNL     1     -41.638  54.100 -52.523  1.00  0.00     0.034 A 
HETATM    7  C   UNL     1     -40.760  53.297 -51.720  1.00  0.00    -0.038 A 
HETATM    8  C   UNL     1     -40.476  53.613 -50.272  1.00  0.00     0.050 C 
HETATM    9  S   UNL     1     -43.028  54.558 -54.659  1.00  0.00    -0.063 SA
HETATM   10  C   UNL     1     -43.210  55.664 -53.367  1.00  0.00     0.085 A 
HETATM   11  C   UNL     1     -42.383  55.334 -52.305  1.00  0.00     0.061 A 
HETATM   12  N   UNL     1     -42.303  56.068 -51.168  1.00  0.00    -0.397 N 
HETATM   13  H   UNL     1     -42.815  56.933 -51.020  1.00  0.00     0.156 HD
HETATM   14  H   UNL     1     -41.492  56.008 -50.561  1.00  0.00     0.156 HD
ENDROOT
BRANCH  10  15
HETATM   15  C   UNL     1     -44.175  56.734 -53.558  1.00  0.00     0.201 C 
HETATM   16  O   UNL     1     -44.985  56.758 -54.487  1.00  0.00    -0.286 OA
BRANCH  15  17
HETATM   17  C   UNL     1     -44.229  57.886 -52.613  1.00  0.00     0.018 A 
HETATM   18  C   UNL     1     -45.167  57.944 -51.572  1.00  0.00     0.055 A 
HETATM   19  C   UNL     1     -45.123  59.040 -50.736  1.00  0.00     0.106 A 
HETATM   20  C   UNL     1     -44.194  60.044 -50.894  1.00  0.00     0.105 A 
HETATM   21  O   UNL     1     -45.956  59.269 -49.685  1.00  0.00    -0.323 OA
HETATM   22  O   UNL     1     -44.326  61.024 -49.961  1.00  0.00    -0.323 OA
HETATM   23  C   UNL     1     -43.249  60.010 -51.894  1.00  0.00     0.040 A 
HETATM   24  C   UNL     1     -45.430  60.517 -49.183  1.00  0.00     0.352 A 
HETATM   25  C   UNL     1     -43.267  58.913 -52.761  1.00  0.00     0.018 A 
ENDBRANCH  15  17
ENDBRANCH  10  15
BRANCH   1  26
HETATM   26  C   UNL     1     -39.125  51.312 -51.601  1.00  0.00     0.036 C 
HETATM   27  C   UNL     1     -39.779  50.146 -50.872  1.00  0.00     0.010 C 
ENDBRANCH   1  26
TORSDOF 3
ENDMDL
MODEL 6
REMARK VINA RESULT:      -7.9      5.495      8.354
REMARK  3 active torsions:
REMARK  status: ('A' for Active; 'I' for Inactive)
REMARK    1  A    between atoms: C_2  and  C_3 
REMARK    2  A    between atoms: C_12  and  C_13 
REMARK    3  A    between atoms: C_13  and  C_14 
ROOT
HETATM    1  C   UNL     1     -42.141  59.485 -59.468  1.00  0.00    -0.027 A 
HETATM    2  C   UNL     1     -41.657  60.281 -58.416  1.00  0.00     0.039 A 
HETATM    3  C   UNL     1     -41.083  61.653 -58.649  1.00  0.00     0.071 C 
HETATM    4  N   UNL     1     -41.686  59.919 -57.124  1.00  0.00    -0.245 NA
HETATM    5  C   UNL     1     -42.176  58.696 -56.870  1.00  0.00     0.111 A 
HETATM    6  C   UNL     1     -42.645  57.768 -57.793  1.00  0.00     0.034 A 
HETATM    7  C   UNL     1     -42.680  58.197 -59.162  1.00  0.00    -0.038 A 
HETATM    8  C   UNL     1     -43.254  57.340 -60.263  1.00  0.00     0.050 C 
HETATM    9  S   UNL     1     -42.285  58.174 -55.261  1.00  0.00    -0.063 SA
HETATM   10  C   UNL     1     -42.906  56.648 -55.717  1.00  0.00     0.085 A 
HETATM   11  C   UNL     1     -43.010  56.540 -57.096  1.00  0.00     0.061 A 
HETATM   12  N   UNL     1     -43.439  55.419 -57.724  1.00  0.00    -0.397 N 
HETATM   13  H   UNL     1     -43.684  54.561 -57.239  1.00  0.00     0.156 HD
HETATM   14  H   UNL     1     -43.210  55.243 -58.697  1.00  0.00     0.156 HD
ENDROOT
BRANCH  10  15
HETATM   15  C   UNL     1     -43.234  55.731 -54.638  1.00  0.00     0.201 C 
HETATM   16  O   UNL     1     -44.338  55.694 -54.093  1.00  0.00    -0.286 OA
BRANCH  15  17
HETATM   17  C   UNL     1     -42.218  54.767 -54.125  1.00  0.00     0.018 A 
HETATM   18  C   UNL     1     -42.188  54.373 -52.780  1.00  0.00     0.055 A 
HETATM   19  C   UNL     1     -41.225  53.459 -52.406  1.00  0.00     0.106 A 
HETATM   20  C   UNL     1     -40.326  52.932 -53.307  1.00  0.00     0.105 A 
HETATM   21  O   UNL     1     -41.040  52.972 -51.149  1.00  0.00    -0.323 OA
HETATM   22  O   UNL     1     -39.469  52.049 -52.729  1.00  0.00    -0.323 OA
HETATM   23  C   UNL     1     -40.340  53.285 -54.637  1.00  0.00     0.040 A 
HETATM   24  C   UNL     1     -39.941  52.061 -51.366  1.00  0.00     0.352 A 
HETATM   25  C   UNL     1     -41.303  54.210 -55.049  1.00  0.00     0.018 A 
ENDBRANCH  15  17
ENDBRANCH  10  15
BRANCH   1  26
HETATM   26  C   UNL     1     -42.047  59.990 -60.898  1.00  0.00     0.036 C 
HETATM   27  C   UNL     1     -43.310  60.722 -61.331  1.00  0.00     0.010 C 
ENDBRANCH   1  26
TORSDOF 3
ENDMDL
MODEL 7
REMARK VINA RESULT:      -7.8      2.302      3.365
REMARK  3 active torsions:
REMARK  status: ('A' for Active; 'I' for Inactive)
REMARK    1  A    between atoms: C_2  and  C_3 
REMARK    2  A    between atoms: C_12  and  C_13 
REMARK    3  A    between atoms: C_13  and  C_14 
ROOT
HETATM    1  C   UNL     1     -40.195  52.688 -52.114  1.00  0.00    -0.027 A 
HETATM    2  C   UNL     1     -40.845  52.642 -53.358  1.00  0.00     0.039 A 
HETATM    3  C   UNL     1     -40.518  51.600 -54.394  1.00  0.00     0.071 C 
HETATM    4  N   UNL     1     -41.824  53.483 -53.728  1.00  0.00    -0.245 NA
HETATM    5  C   UNL     1     -42.139  54.440 -52.840  1.00  0.00     0.111 A 
HETATM    6  C   UNL     1     -41.561  54.657 -51.595  1.00  0.00     0.034 A 
HETATM    7  C   UNL     1     -40.572  53.703 -51.180  1.00  0.00    -0.038 A 
HETATM    8  C   UNL     1     -39.928  53.748 -49.816  1.00  0.00     0.050 C 
HETATM    9  S   UNL     1     -43.390  55.521 -53.211  1.00  0.00    -0.063 SA
HETATM   10  C   UNL     1     -43.182  56.382 -51.749  1.00  0.00     0.085 A 
HETATM   11  C   UNL     1     -42.149  55.848 -50.995  1.00  0.00     0.061 A 
HETATM   12  N   UNL     1     -41.750  56.365 -49.808  1.00  0.00    -0.397 N 
HETATM   13  H   UNL     1     -42.153  57.201 -49.395  1.00  0.00     0.156 HD
HETATM   14  H   UNL     1     -40.823  56.179 -49.439  1.00  0.00     0.156 HD
ENDROOT
BRANCH  10  15
HETATM   15  C   UNL     1     -44.092  57.491 -51.513  1.00  0.00     0.201 C 
HETATM   16  O   UNL     1     -45.160  57.374 -50.910  1.00  0.00    -0.286 OA
BRANCH  15  17
HETATM   17  C   UNL     1     -43.767  58.859 -52.007  1.00  0.00     0.018 A 
HETATM   18  C   UNL     1     -44.115  59.280 -53.299  1.00  0.00     0.055 A 
HETATM   19  C   UNL     1     -43.790  60.572 -53.656  1.00  0.00     0.106 A 
HETATM   20  C   UNL     1     -43.160  61.436 -52.788  1.00  0.00     0.105 A 
HETATM   21  O   UNL     1     -44.041  61.147 -54.864  1.00  0.00    -0.323 OA
HETATM   22  O   UNL     1     -42.938  62.658 -53.341  1.00  0.00    -0.323 OA
HETATM   23  C   UNL     1     -42.820  61.060 -51.508  1.00  0.00     0.040 A 
HETATM   24  C   UNL     1     -43.519  62.477 -54.649  1.00  0.00     0.352 A 
HETATM   25  C   UNL     1     -43.133  59.756 -51.114  1.00  0.00     0.018 A 
ENDBRANCH  15  17
ENDBRANCH  10  15
BRANCH   1  26
HETATM   26  C   UNL     1     -39.091  51.691 -51.804  1.00  0.00     0.036 C 
HETATM   27  C   UNL     1     -39.627  50.431 -51.140  1.00  0.00     0.010 C 
ENDBRANCH   1  26
TORSDOF 3
ENDMDL
MODEL 8
REMARK VINA RESULT:      -7.8      4.433      5.402
REMARK  3 active torsions:
REMARK  status: ('A' for Active; 'I' for Inactive)
REMARK    1  A    between atoms: C_2  and  C_3 
REMARK    2  A    between atoms: C_12  and  C_13 
REMARK    3  A    between atoms: C_13  and  C_14 
ROOT
HETATM    1  C   UNL     1     -40.183  53.038 -51.692  1.00  0.00    -0.027 A 
HETATM    2  C   UNL     1     -40.355  54.069 -50.753  1.00  0.00     0.039 A 
HETATM    3  C   UNL     1     -39.702  54.034 -49.397  1.00  0.00     0.071 C 
HETATM    4  N   UNL     1     -41.077  55.179 -50.977  1.00  0.00    -0.245 NA
HETATM    5  C   UNL     1     -41.690  55.246 -52.169  1.00  0.00     0.111 A 
HETATM    6  C   UNL     1     -41.667  54.297 -53.184  1.00  0.00     0.034 A 
HETATM    7  C   UNL     1     -40.829  53.152 -52.962  1.00  0.00    -0.038 A 
HETATM    8  C   UNL     1     -40.622  52.087 -54.011  1.00  0.00     0.050 C 
HETATM    9  S   UNL     1     -42.591  56.630 -52.549  1.00  0.00    -0.063 SA
HETATM   10  C   UNL     1     -43.054  56.004 -54.071  1.00  0.00     0.085 A 
HETATM   11  C   UNL     1     -42.532  54.736 -54.272  1.00  0.00     0.061 A 
HETATM   12  N   UNL     1     -42.776  53.998 -55.381  1.00  0.00    -0.397 N 
HETATM   13  H   UNL     1     -43.386  54.300 -56.135  1.00  0.00     0.156 HD
HETATM   14  H   UNL     1     -42.666  52.989 -55.375  1.00  0.00     0.156 HD
ENDROOT
BRANCH  10  15
HETATM   15  C   UNL     1     -43.880  56.864 -54.903  1.00  0.00     0.201 C 
HETATM   16  O   UNL     1     -45.063  57.107 -54.662  1.00  0.00    -0.286 OA
BRANCH  15  17
HETATM   17  C   UNL     1     -43.316  57.507 -56.125  1.00  0.00     0.018 A 
HETATM   18  C   UNL     1     -43.403  56.900 -57.386  1.00  0.00     0.055 A 
HETATM   19  C   UNL     1     -42.872  57.584 -58.460  1.00  0.00     0.106 A 
HETATM   20  C   UNL     1     -42.286  58.822 -58.322  1.00  0.00     0.105 A 
HETATM   21  O   UNL     1     -42.858  57.148 -59.748  1.00  0.00    -0.323 OA
HETATM   22  O   UNL     1     -41.833  59.317 -59.504  1.00  0.00    -0.323 OA
HETATM   23  C   UNL     1     -42.199  59.453 -57.101  1.00  0.00     0.040 A 
HETATM   24  C   UNL     1     -42.219  58.262 -60.409  1.00  0.00     0.352 A 
HETATM   25  C   UNL     1     -42.726  58.786 -55.991  1.00  0.00     0.018 A 
ENDBRANCH  15  17
ENDBRANCH  10  15
BRANCH   1  26
HETATM   26  C   UNL     1     -39.353  51.819 -51.327  1.00  0.00     0.036 C 
HETATM   27  C   UNL     1     -40.157  50.792 -50.542  1.00  0.00     0.010 C 
ENDBRANCH   1  26
TORSDOF 3
ENDMDL
MODEL 9
REMARK VINA RESULT:      -7.7     16.220     18.272
REMARK  3 active torsions:
REMARK  status: ('A' for Active; 'I' for Inactive)
REMARK    1  A    between atoms: C_2  and  C_3 
REMARK    2  A    between atoms: C_12  and  C_13 
REMARK    3  A    between atoms: C_13  and  C_14 
ROOT
HETATM    1  C   UNL     1     -33.078  40.009 -52.121  1.00  0.00    -0.027 A 
HETATM    2  C   UNL     1     -32.822  38.972 -53.033  1.00  0.00     0.039 A 
HETATM    3  C   UNL     1     -31.652  38.036 -52.874  1.00  0.00     0.071 C 
HETATM    4  N   UNL     1     -33.594  38.696 -54.096  1.00  0.00    -0.245 NA
HETATM    5  C   UNL     1     -34.641  39.514 -54.286  1.00  0.00     0.111 A 
HETATM    6  C   UNL     1     -35.004  40.611 -53.513  1.00  0.00     0.034 A 
HETATM    7  C   UNL     1     -34.216  40.847 -52.337  1.00  0.00    -0.038 A 
HETATM    8  C   UNL     1     -34.548  41.937 -51.348  1.00  0.00     0.050 C 
HETATM    9  S   UNL     1     -35.690  39.214 -55.582  1.00  0.00    -0.063 SA
HETATM   10  C   UNL     1     -36.653  40.578 -55.219  1.00  0.00     0.085 A 
HETATM   11  C   UNL     1     -36.158  41.263 -54.120  1.00  0.00     0.061 A 
HETATM   12  N   UNL     1     -36.712  42.404 -53.642  1.00  0.00    -0.397 N 
HETATM   13  H   UNL     1     -37.510  42.864 -54.071  1.00  0.00     0.156 HD
HETATM   14  H   UNL     1     -36.176  43.048 -53.070  1.00  0.00     0.156 HD
ENDROOT
BRANCH  10  15
HETATM   15  C   UNL     1     -37.811  40.802 -56.069  1.00  0.00     0.201 C 
HETATM   16  O   UNL     1     -38.881  41.247 -55.653  1.00  0.00    -0.286 OA
BRANCH  15  17
HETATM   17  C   UNL     1     -37.754  40.491 -57.527  1.00  0.00     0.018 A 
HETATM   18  C   UNL     1     -38.261  39.291 -58.046  1.00  0.00     0.055 A 
HETATM   19  C   UNL     1     -38.183  39.105 -59.410  1.00  0.00     0.106 A 
HETATM   20  C   UNL     1     -37.643  40.054 -60.249  1.00  0.00     0.105 A 
HETATM   21  O   UNL     1     -38.614  38.005 -60.086  1.00  0.00    -0.323 OA
HETATM   22  O   UNL     1     -37.669  39.670 -61.553  1.00  0.00    -0.323 OA
HETATM   23  C   UNL     1     -37.152  41.249 -59.774  1.00  0.00     0.040 A 
HETATM   24  C   UNL     1     -38.306  38.380 -61.446  1.00  0.00     0.352 A 
HETATM   25  C   UNL     1     -37.214  41.469 -58.395  1.00  0.00     0.018 A 
ENDBRANCH  15  17
ENDBRANCH  10  15
BRANCH   1  26
HETATM   26  C   UNL     1     -32.129  40.239 -50.957  1.00  0.00     0.036 C 
HETATM   27  C   UNL     1     -32.582  39.516 -49.696  1.00  0.00     0.010 C 
ENDBRANCH   1  26
TORSDOF 3
ENDMDL
MODEL 10
REMARK VINA RESULT:      -7.6      4.659      7.914
REMARK  3 active torsions:
REMARK  status: ('A' for Active; 'I' for Inactive)
REMARK    1  A    between atoms: C_2  and  C_3 
REMARK    2  A    between atoms: C_12  and  C_13 
REMARK    3  A    between atoms: C_13  and  C_14 
ROOT
HETATM    1  C   UNL     1     -43.053  57.735 -58.671  1.00  0.00    -0.027 A 
HETATM    2  C   UNL     1     -43.466  56.403 -58.838  1.00  0.00     0.039 A 
HETATM    3  C   UNL     1     -44.072  55.907 -60.123  1.00  0.00     0.071 C 
HETATM    4  N   UNL     1     -43.335  55.452 -57.899  1.00  0.00    -0.245 NA
HETATM    5  C   UNL     1     -42.813  55.853 -56.730  1.00  0.00     0.111 A 
HETATM    6  C   UNL     1     -42.404  57.136 -56.385  1.00  0.00     0.034 A 
HETATM    7  C   UNL     1     -42.476  58.125 -57.423  1.00  0.00    -0.038 A 
HETATM    8  C   UNL     1     -41.977  59.535 -57.231  1.00  0.00     0.050 C 
HETATM    9  S   UNL     1     -42.577  54.708 -55.503  1.00  0.00    -0.063 SA
HETATM   10  C   UNL     1     -41.974  55.882 -54.417  1.00  0.00     0.085 A 
HETATM   11  C   UNL     1     -41.972  57.143 -54.992  1.00  0.00     0.061 A 
HETATM   12  N   UNL     1     -41.578  58.261 -54.335  1.00  0.00    -0.397 N 
HETATM   13  H   UNL     1     -41.287  58.267 -53.362  1.00  0.00     0.156 HD
HETATM   14  H   UNL     1     -41.878  59.182 -54.639  1.00  0.00     0.156 HD
ENDROOT
BRANCH  10  15
HETATM   15  C   UNL     1     -41.554  55.404 -53.110  1.00  0.00     0.201 C 
HETATM   16  O   UNL     1     -41.683  56.060 -52.075  1.00  0.00    -0.286 OA
BRANCH  15  17
HETATM   17  C   UNL     1     -40.928  54.059 -52.958  1.00  0.00     0.018 A 
HETATM   18  C   UNL     1     -40.842  53.421 -51.712  1.00  0.00     0.055 A 
HETATM   19  C   UNL     1     -40.266  52.169 -51.676  1.00  0.00     0.106 A 
HETATM   20  C   UNL     1     -39.797  51.546 -52.812  1.00  0.00     0.105 A 
HETATM   21  O   UNL     1     -40.090  51.408 -50.562  1.00  0.00    -0.323 OA
HETATM   22  O   UNL     1     -39.273  50.319 -52.552  1.00  0.00    -0.323 OA
HETATM   23  C   UNL     1     -39.882  52.137 -54.052  1.00  0.00     0.040 A 
HETATM   24  C   UNL     1     -39.482  50.227 -51.128  1.00  0.00     0.352 A 
HETATM   25  C   UNL     1     -40.459  53.408 -54.123  1.00  0.00     0.018 A 
ENDBRANCH  15  17
ENDBRANCH  10  15
BRANCH   1  26
HETATM   26  C   UNL     1     -43.261  58.733 -59.799  1.00  0.00     0.036 C 
HETATM   27  C   UNL     1     -42.060  58.800 -60.732  1.00  0.00     0.010 C 
ENDBRANCH   1  26
TORSDOF 3
ENDMDL
