MODEL 1
REMARK VINA RESULT:      -8.9      0.000      0.000
REMARK  4 active torsions:
REMARK  status: ('A' for Active; 'I' for Inactive)
REMARK    1  A    between atoms: O_2  and  C_3 
REMARK    2  A    between atoms: C_5  and  C_6 
REMARK    3  A    between atoms: C_10  and  C_11 
REMARK       I    between atoms: C_11  and  N_12 
REMARK    4  A    between atoms: N_12  and  N_13 
ROOT
HETATM    1  C   UNL     1     -42.196  57.644 -52.571  1.00  0.00     0.289 C 
HETATM    2  N   UNL     1     -41.985  56.277 -52.469  1.00  0.00    -0.241 N 
HETATM    3  O   UNL     1     -42.480  58.382 -51.635  1.00  0.00    -0.264 OA
HETATM    4  H   UNL     1     -41.630  55.773 -53.267  1.00  0.00     0.192 HD
ENDROOT
BRANCH   1   5
HETATM    5  C   UNL     1     -42.093  58.151 -53.919  1.00  0.00     0.121 A 
HETATM    6  N   UNL     1     -41.724  59.444 -54.168  1.00  0.00    -0.272 N 
HETATM    7  N   UNL     1     -41.735  59.778 -55.469  1.00  0.00    -0.174 NA
HETATM    8  H   UNL     1     -41.479  60.149 -53.478  1.00  0.00     0.189 HD
HETATM    9  C   UNL     1     -42.080  58.649 -56.107  1.00  0.00     0.089 A 
HETATM   10  C   UNL     1     -42.309  57.603 -55.168  1.00  0.00     0.071 A 
BRANCH   9  11
HETATM   11  C   UNL     1     -42.211  58.589 -57.566  1.00  0.00    -0.003 A 
HETATM   12  C   UNL     1     -42.485  57.364 -58.201  1.00  0.00     0.050 A 
HETATM   13  C   UNL     1     -42.581  57.288 -59.593  1.00  0.00     0.069 A 
HETATM   14  C   UNL     1     -42.405  58.444 -60.356  1.00  0.00     0.037 A 
HETATM   15  C   UNL     1     -42.146  59.667 -59.741  1.00  0.00     0.004 A 
HETATM   16  C   UNL     1     -42.049  59.739 -58.351  1.00  0.00     0.014 A 
BRANCH  13  17
HETATM   17  O   UNL     1     -42.832  56.157 -60.322  1.00  0.00    -0.356 OA
HETATM   18  C   UNL     1     -43.985  55.406 -59.960  1.00  0.00     0.210 C 
ENDBRANCH  13  17
ENDBRANCH   9  11
ENDBRANCH   1   5
BRANCH   2  19
HETATM   19  N   UNL     1     -41.931  55.663 -51.255  1.00  0.00    -0.165 NA
HETATM   20  C   UNL     1     -41.322  54.522 -51.167  1.00  0.00     0.157 A 
HETATM   21  C   UNL     1     -41.025  53.871 -49.801  1.00  0.00     0.277 A 
HETATM   22  C   UNL     1     -40.764  53.602 -52.172  1.00  0.00     0.027 A 
HETATM   23  O   UNL     1     -41.359  54.284 -48.713  1.00  0.00    -0.266 OA
HETATM   24  N   UNL     1     -40.284  52.747 -50.086  1.00  0.00    -0.321 N 
HETATM   25  C   UNL     1     -40.137  52.579 -51.457  1.00  0.00     0.048 A 
HETATM   26  H   UNL     1     -39.949  52.121 -49.367  1.00  0.00     0.169 HD
HETATM   27  C   UNL     1     -39.496  51.531 -52.087  1.00  0.00     0.030 A 
HETATM   28  C   UNL     1     -39.512  51.511 -53.483  1.00  0.00     0.002 A 
HETATM   29  C   UNL     1     -40.177  52.514 -54.210  1.00  0.00     0.001 A 
HETATM   30  C   UNL     1     -40.822  53.569 -53.555  1.00  0.00     0.016 A 
ENDBRANCH   2  19
TORSDOF 4
ENDMDL
MODEL 2
REMARK VINA RESULT:      -8.9      1.856      2.508
REMARK  4 active torsions:
REMARK  status: ('A' for Active; 'I' for Inactive)
REMARK    1  A    between atoms: O_2  and  C_3 
REMARK    2  A    between atoms: C_5  and  C_6 
REMARK    3  A    between atoms: C_10  and  C_11 
REMARK       I    between atoms: C_11  and  N_12 
REMARK    4  A    between atoms: N_12  and  N_13 
ROOT
HETATM    1  C   UNL     1     -41.723  56.879 -53.906  1.00  0.00     0.289 C 
HETATM    2  N   UNL     1     -42.456  56.043 -53.076  1.00  0.00    -0.241 N 
HETATM    3  O   UNL     1     -40.721  57.498 -53.569  1.00  0.00    -0.264 OA
HETATM    4  H   UNL     1     -43.190  55.476 -53.472  1.00  0.00     0.192 HD
ENDROOT
BRANCH   1   5
HETATM    5  C   UNL     1     -42.270  57.005 -55.236  1.00  0.00     0.121 A 
HETATM    6  N   UNL     1     -42.246  58.196 -55.906  1.00  0.00    -0.272 N 
HETATM    7  N   UNL     1     -42.847  58.164 -57.107  1.00  0.00    -0.174 NA
HETATM    8  H   UNL     1     -41.852  59.072 -55.574  1.00  0.00     0.189 HD
HETATM    9  C   UNL     1     -43.243  56.889 -57.254  1.00  0.00     0.089 A 
HETATM   10  C   UNL     1     -42.894  56.130 -56.103  1.00  0.00     0.071 A 
BRANCH   9  11
HETATM   11  C   UNL     1     -43.956  56.430 -58.451  1.00  0.00    -0.003 A 
HETATM   12  C   UNL     1     -45.014  57.190 -58.979  1.00  0.00     0.050 A 
HETATM   13  C   UNL     1     -45.721  56.748 -60.100  1.00  0.00     0.069 A 
HETATM   14  C   UNL     1     -45.366  55.538 -60.699  1.00  0.00     0.037 A 
HETATM   15  C   UNL     1     -44.312  54.778 -60.196  1.00  0.00     0.004 A 
HETATM   16  C   UNL     1     -43.609  55.223 -59.075  1.00  0.00     0.014 A 
BRANCH  13  17
HETATM   17  O   UNL     1     -46.771  57.393 -60.695  1.00  0.00    -0.356 OA
HETATM   18  C   UNL     1     -47.701  56.581 -61.403  1.00  0.00     0.210 C 
ENDBRANCH  13  17
ENDBRANCH   9  11
ENDBRANCH   1   5
BRANCH   2  19
HETATM   19  N   UNL     1     -42.012  55.726 -51.829  1.00  0.00    -0.165 NA
HETATM   20  C   UNL     1     -41.289  54.659 -51.683  1.00  0.00     0.157 A 
HETATM   21  C   UNL     1     -40.568  54.351 -50.356  1.00  0.00     0.277 A 
HETATM   22  C   UNL     1     -40.936  53.555 -52.591  1.00  0.00     0.027 A 
HETATM   23  O   UNL     1     -40.633  54.990 -49.329  1.00  0.00    -0.266 OA
HETATM   24  N   UNL     1     -39.822  53.220 -50.601  1.00  0.00    -0.321 N 
HETATM   25  C   UNL     1     -40.037  52.748 -51.889  1.00  0.00     0.048 A 
HETATM   26  H   UNL     1     -39.243  52.789 -49.894  1.00  0.00     0.169 HD
HETATM   27  C   UNL     1     -39.489  51.609 -52.443  1.00  0.00     0.030 A 
HETATM   28  C   UNL     1     -39.883  51.269 -53.739  1.00  0.00     0.002 A 
HETATM   29  C   UNL     1     -40.818  52.053 -54.437  1.00  0.00     0.001 A 
HETATM   30  C   UNL     1     -41.364  53.205 -53.860  1.00  0.00     0.016 A 
ENDBRANCH   2  19
TORSDOF 4
ENDMDL
MODEL 3
REMARK VINA RESULT:      -8.8      2.534      8.422
REMARK  4 active torsions:
REMARK  status: ('A' for Active; 'I' for Inactive)
REMARK    1  A    between atoms: O_2  and  C_3 
REMARK    2  A    between atoms: C_5  and  C_6 
REMARK    3  A    between atoms: C_10  and  C_11 
REMARK       I    between atoms: C_11  and  N_12 
REMARK    4  A    between atoms: N_12  and  N_13 
ROOT
HETATM    1  C   UNL     1     -42.829  57.321 -55.811  1.00  0.00     0.289 C 
HETATM    2  N   UNL     1     -42.074  57.284 -56.973  1.00  0.00    -0.241 N 
HETATM    3  O   UNL     1     -43.627  58.205 -55.522  1.00  0.00    -0.264 OA
HETATM    4  H   UNL     1     -41.538  56.455 -57.186  1.00  0.00     0.192 HD
ENDROOT
BRANCH   1   5
HETATM    5  C   UNL     1     -42.567  56.225 -54.909  1.00  0.00     0.121 A 
HETATM    6  N   UNL     1     -43.531  55.751 -54.064  1.00  0.00    -0.272 N 
HETATM    7  N   UNL     1     -43.113  54.770 -53.248  1.00  0.00    -0.174 NA
HETATM    8  H   UNL     1     -44.489  56.083 -53.989  1.00  0.00     0.189 HD
HETATM    9  C   UNL     1     -41.835  54.557 -53.598  1.00  0.00     0.089 A 
HETATM   10  C   UNL     1     -41.457  55.448 -54.641  1.00  0.00     0.071 A 
BRANCH   9  11
HETATM   11  C   UNL     1     -41.003  53.551 -52.932  1.00  0.00    -0.003 A 
HETATM   12  C   UNL     1     -40.495  52.459 -53.659  1.00  0.00     0.050 A 
HETATM   13  C   UNL     1     -39.727  51.477 -53.030  1.00  0.00     0.069 A 
HETATM   14  C   UNL     1     -39.462  51.587 -51.663  1.00  0.00     0.037 A 
HETATM   15  C   UNL     1     -39.947  52.668 -50.930  1.00  0.00     0.004 A 
HETATM   16  C   UNL     1     -40.716  53.647 -51.562  1.00  0.00     0.014 A 
BRANCH  13  17
HETATM   17  O   UNL     1     -39.190  50.370 -53.627  1.00  0.00    -0.356 OA
HETATM   18  C   UNL     1     -39.912  49.822 -54.724  1.00  0.00     0.210 C 
ENDBRANCH  13  17
ENDBRANCH   9  11
ENDBRANCH   1   5
BRANCH   2  19
HETATM   19  N   UNL     1     -42.284  58.178 -57.978  1.00  0.00    -0.165 NA
HETATM   20  C   UNL     1     -43.073  57.841 -58.950  1.00  0.00     0.157 A 
HETATM   21  C   UNL     1     -43.536  58.868 -60.003  1.00  0.00     0.277 A 
HETATM   22  C   UNL     1     -43.724  56.574 -59.320  1.00  0.00     0.027 A 
HETATM   23  O   UNL     1     -43.192  60.025 -60.088  1.00  0.00    -0.266 OA
HETATM   24  N   UNL     1     -44.435  58.194 -60.798  1.00  0.00    -0.321 N 
HETATM   25  C   UNL     1     -44.542  56.863 -60.415  1.00  0.00     0.048 A 
HETATM   26  H   UNL     1     -44.901  58.631 -61.581  1.00  0.00     0.169 HD
HETATM   27  C   UNL     1     -45.314  55.897 -61.029  1.00  0.00     0.030 A 
HETATM   28  C   UNL     1     -45.234  54.595 -60.529  1.00  0.00     0.002 A 
HETATM   29  C   UNL     1     -44.382  54.287 -59.453  1.00  0.00     0.001 A 
HETATM   30  C   UNL     1     -43.607  55.280 -58.844  1.00  0.00     0.016 A 
ENDBRANCH   2  19
TORSDOF 4
ENDMDL
MODEL 4
REMARK VINA RESULT:      -8.7      2.513      8.739
REMARK  4 active torsions:
REMARK  status: ('A' for Active; 'I' for Inactive)
REMARK    1  A    between atoms: O_2  and  C_3 
REMARK    2  A    between atoms: C_5  and  C_6 
REMARK    3  A    between atoms: C_10  and  C_11 
REMARK       I    between atoms: C_11  and  N_12 
REMARK    4  A    between atoms: N_12  and  N_13 
ROOT
HETATM    1  C   UNL     1     -42.461  56.963 -55.579  1.00  0.00     0.289 C 
HETATM    2  N   UNL     1     -42.100  57.303 -56.874  1.00  0.00    -0.241 N 
HETATM    3  O   UNL     1     -43.252  57.591 -54.884  1.00  0.00    -0.264 OA
HETATM    4  H   UNL     1     -41.542  56.659 -57.415  1.00  0.00     0.192 HD
ENDROOT
BRANCH   1   5
HETATM    5  C   UNL     1     -41.782  55.795 -55.071  1.00  0.00     0.121 A 
HETATM    6  N   UNL     1     -41.066  54.972 -55.895  1.00  0.00    -0.272 N 
HETATM    7  N   UNL     1     -40.545  53.897 -55.282  1.00  0.00    -0.174 NA
HETATM    8  H   UNL     1     -40.924  55.089 -56.895  1.00  0.00     0.189 HD
HETATM    9  C   UNL     1     -40.893  54.039 -53.993  1.00  0.00     0.089 A 
HETATM   10  C   UNL     1     -41.666  55.222 -53.820  1.00  0.00     0.071 A 
BRANCH   9  11
HETATM   11  C   UNL     1     -40.516  53.056 -52.973  1.00  0.00    -0.003 A 
HETATM   12  C   UNL     1     -40.706  53.344 -51.609  1.00  0.00     0.050 A 
HETATM   13  C   UNL     1     -40.322  52.429 -50.626  1.00  0.00     0.069 A 
HETATM   14  C   UNL     1     -39.746  51.216 -51.008  1.00  0.00     0.037 A 
HETATM   15  C   UNL     1     -39.562  50.910 -52.355  1.00  0.00     0.004 A 
HETATM   16  C   UNL     1     -39.946  51.827 -53.334  1.00  0.00     0.014 A 
BRANCH  13  17
HETATM   17  O   UNL     1     -40.446  52.601 -49.274  1.00  0.00    -0.356 OA
HETATM   18  C   UNL     1     -40.694  53.925 -48.818  1.00  0.00     0.210 C 
ENDBRANCH  13  17
ENDBRANCH   9  11
ENDBRANCH   1   5
BRANCH   2  19
HETATM   19  N   UNL     1     -42.733  58.307 -57.540  1.00  0.00    -0.165 NA
HETATM   20  C   UNL     1     -43.649  57.995 -58.403  1.00  0.00     0.157 A 
HETATM   21  C   UNL     1     -44.562  59.067 -59.032  1.00  0.00     0.277 A 
HETATM   22  C   UNL     1     -44.092  56.713 -58.977  1.00  0.00     0.027 A 
HETATM   23  O   UNL     1     -44.498  60.265 -58.861  1.00  0.00    -0.266 OA
HETATM   24  N   UNL     1     -45.468  58.371 -59.799  1.00  0.00    -0.321 N 
HETATM   25  C   UNL     1     -45.196  57.008 -59.779  1.00  0.00     0.048 A 
HETATM   26  H   UNL     1     -46.192  58.829 -60.333  1.00  0.00     0.169 HD
HETATM   27  C   UNL     1     -45.876  56.031 -60.479  1.00  0.00     0.030 A 
HETATM   28  C   UNL     1     -45.405  54.720 -60.376  1.00  0.00     0.002 A 
HETATM   29  C   UNL     1     -44.270  54.421 -59.602  1.00  0.00     0.001 A 
HETATM   30  C   UNL     1     -43.593  55.425 -58.901  1.00  0.00     0.016 A 
ENDBRANCH   2  19
TORSDOF 4
ENDMDL
MODEL 5
REMARK VINA RESULT:      -8.5      2.148      2.836
REMARK  4 active torsions:
REMARK  status: ('A' for Active; 'I' for Inactive)
REMARK    1  A    between atoms: O_2  and  C_3 
REMARK    2  A    between atoms: C_5  and  C_6 
REMARK    3  A    between atoms: C_10  and  C_11 
REMARK       I    between atoms: C_11  and  N_12 
REMARK    4  A    between atoms: N_12  and  N_13 
ROOT
HETATM    1  C   UNL     1     -42.992  55.646 -54.191  1.00  0.00     0.289 C 
HETATM    2  N   UNL     1     -41.840  55.838 -53.442  1.00  0.00    -0.241 N 
HETATM    3  O   UNL     1     -43.993  55.058 -53.798  1.00  0.00    -0.264 OA
HETATM    4  H   UNL     1     -41.115  56.442 -53.799  1.00  0.00     0.192 HD
ENDROOT
BRANCH   1   5
HETATM    5  C   UNL     1     -42.909  56.171 -55.533  1.00  0.00     0.121 A 
HETATM    6  N   UNL     1     -43.205  55.398 -56.620  1.00  0.00    -0.272 N 
HETATM    7  N   UNL     1     -43.022  56.014 -57.800  1.00  0.00    -0.174 NA
HETATM    8  H   UNL     1     -43.515  54.429 -56.611  1.00  0.00     0.189 HD
HETATM    9  C   UNL     1     -42.632  57.257 -57.477  1.00  0.00     0.089 A 
HETATM   10  C   UNL     1     -42.554  57.396 -56.062  1.00  0.00     0.071 A 
BRANCH   9  11
HETATM   11  C   UNL     1     -42.321  58.264 -58.496  1.00  0.00    -0.003 A 
HETATM   12  C   UNL     1     -42.119  59.605 -58.126  1.00  0.00     0.050 A 
HETATM   13  C   UNL     1     -41.852  60.580 -59.090  1.00  0.00     0.069 A 
HETATM   14  C   UNL     1     -41.785  60.211 -60.436  1.00  0.00     0.037 A 
HETATM   15  C   UNL     1     -41.970  58.884 -60.818  1.00  0.00     0.004 A 
HETATM   16  C   UNL     1     -42.238  57.914 -59.851  1.00  0.00     0.014 A 
BRANCH  13  17
HETATM   17  O   UNL     1     -41.649  61.912 -58.854  1.00  0.00    -0.356 OA
HETATM   18  C   UNL     1     -40.299  62.362 -58.851  1.00  0.00     0.210 C 
ENDBRANCH  13  17
ENDBRANCH   9  11
ENDBRANCH   1   5
BRANCH   2  19
HETATM   19  N   UNL     1     -41.796  55.506 -52.122  1.00  0.00    -0.165 NA
HETATM   20  C   UNL     1     -41.222  54.394 -51.784  1.00  0.00     0.157 A 
HETATM   21  C   UNL     1     -40.935  54.053 -50.308  1.00  0.00     0.277 A 
HETATM   22  C   UNL     1     -40.700  53.257 -52.561  1.00  0.00     0.027 A 
HETATM   23  O   UNL     1     -41.248  54.707 -49.338  1.00  0.00    -0.266 OA
HETATM   24  N   UNL     1     -40.230  52.871 -50.337  1.00  0.00    -0.321 N 
HETATM   25  C   UNL     1     -40.098  52.399 -51.637  1.00  0.00     0.048 A 
HETATM   26  H   UNL     1     -39.910  52.410 -49.498  1.00  0.00     0.169 HD
HETATM   27  C   UNL     1     -39.494  51.218 -52.019  1.00  0.00     0.030 A 
HETATM   28  C   UNL     1     -39.522  50.890 -53.376  1.00  0.00     0.002 A 
HETATM   29  C   UNL     1     -40.160  51.728 -54.308  1.00  0.00     0.001 A 
HETATM   30  C   UNL     1     -40.768  52.922 -53.902  1.00  0.00     0.016 A 
ENDBRANCH   2  19
TORSDOF 4
ENDMDL
MODEL 6
REMARK VINA RESULT:      -8.1      2.346      7.858
REMARK  4 active torsions:
REMARK  status: ('A' for Active; 'I' for Inactive)
REMARK    1  A    between atoms: O_2  and  C_3 
REMARK    2  A    between atoms: C_5  and  C_6 
REMARK    3  A    between atoms: C_10  and  C_11 
REMARK       I    between atoms: C_11  and  N_12 
REMARK    4  A    between atoms: N_12  and  N_13 
ROOT
HETATM    1  C   UNL     1     -41.784  56.988 -52.080  1.00  0.00     0.289 C 
HETATM    2  N   UNL     1     -40.959  57.577 -53.026  1.00  0.00    -0.241 N 
HETATM    3  O   UNL     1     -42.824  57.478 -51.654  1.00  0.00    -0.264 OA
HETATM    4  H   UNL     1     -40.192  57.046 -53.411  1.00  0.00     0.192 HD
ENDROOT
BRANCH   1   5
HETATM    5  C   UNL     1     -41.291  55.726 -51.581  1.00  0.00     0.121 A 
HETATM    6  N   UNL     1     -40.713  55.624 -50.347  1.00  0.00    -0.272 N 
HETATM    7  N   UNL     1     -40.252  54.397 -50.055  1.00  0.00    -0.174 NA
HETATM    8  H   UNL     1     -40.585  56.374 -49.673  1.00  0.00     0.189 HD
HETATM    9  C   UNL     1     -40.580  53.648 -51.121  1.00  0.00     0.089 A 
HETATM   10  C   UNL     1     -41.238  54.447 -52.098  1.00  0.00     0.071 A 
BRANCH   9  11
HETATM   11  C   UNL     1     -40.246  52.223 -51.202  1.00  0.00    -0.003 A 
HETATM   12  C   UNL     1     -39.863  51.656 -52.431  1.00  0.00     0.050 A 
HETATM   13  C   UNL     1     -39.572  50.293 -52.529  1.00  0.00     0.069 A 
HETATM   14  C   UNL     1     -39.662  49.491 -51.389  1.00  0.00     0.037 A 
HETATM   15  C   UNL     1     -40.027  50.039 -50.162  1.00  0.00     0.004 A 
HETATM   16  C   UNL     1     -40.319  51.401 -50.069  1.00  0.00     0.014 A 
BRANCH  13  17
HETATM   17  O   UNL     1     -39.201  49.629 -53.666  1.00  0.00    -0.356 OA
HETATM   18  C   UNL     1     -39.970  49.885 -54.835  1.00  0.00     0.210 C 
ENDBRANCH  13  17
ENDBRANCH   9  11
ENDBRANCH   1   5
BRANCH   2  19
HETATM   19  N   UNL     1     -41.336  58.711 -53.680  1.00  0.00    -0.165 NA
HETATM   20  C   UNL     1     -42.002  58.593 -54.786  1.00  0.00     0.157 A 
HETATM   21  C   UNL     1     -42.653  59.814 -55.467  1.00  0.00     0.277 A 
HETATM   22  C   UNL     1     -42.342  57.439 -55.635  1.00  0.00     0.027 A 
HETATM   23  O   UNL     1     -42.574  60.969 -55.114  1.00  0.00    -0.266 OA
HETATM   24  N   UNL     1     -43.356  59.303 -56.535  1.00  0.00    -0.321 N 
HETATM   25  C   UNL     1     -43.173  57.930 -56.644  1.00  0.00     0.048 A 
HETATM   26  H   UNL     1     -43.885  59.888 -57.165  1.00  0.00     0.169 HD
HETATM   27  C   UNL     1     -43.691  57.114 -57.629  1.00  0.00     0.030 A 
HETATM   28  C   UNL     1     -43.336  55.764 -57.600  1.00  0.00     0.002 A 
HETATM   29  C   UNL     1     -42.467  55.268 -56.611  1.00  0.00     0.001 A 
HETATM   30  C   UNL     1     -41.951  56.111 -55.620  1.00  0.00     0.016 A 
ENDBRANCH   2  19
TORSDOF 4
ENDMDL
MODEL 7
REMARK VINA RESULT:      -8.0      2.215      2.288
REMARK  4 active torsions:
REMARK  status: ('A' for Active; 'I' for Inactive)
REMARK    1  A    between atoms: O_2  and  C_3 
REMARK    2  A    between atoms: C_5  and  C_6 
REMARK    3  A    between atoms: C_10  and  C_11 
REMARK       I    between atoms: C_11  and  N_12 
REMARK    4  A    between atoms: N_12  and  N_13 
ROOT
HETATM    1  C   UNL     1     -44.110  57.100 -51.736  1.00  0.00     0.289 C 
HETATM    2  N   UNL     1     -42.878  56.470 -51.634  1.00  0.00    -0.241 N 
HETATM    3  O   UNL     1     -44.952  57.142 -50.847  1.00  0.00    -0.264 OA
HETATM    4  H   UNL     1     -42.198  56.596 -52.369  1.00  0.00     0.192 HD
ENDROOT
BRANCH   1   5
HETATM    5  C   UNL     1     -44.357  57.692 -53.030  1.00  0.00     0.121 A 
HETATM    6  N   UNL     1     -45.051  58.862 -53.157  1.00  0.00    -0.272 N 
HETATM    7  N   UNL     1     -45.249  59.249 -54.428  1.00  0.00    -0.174 NA
HETATM    8  H   UNL     1     -45.435  59.426 -52.403  1.00  0.00     0.189 HD
HETATM    9  C   UNL     1     -44.622  58.321 -55.167  1.00  0.00     0.089 A 
HETATM   10  C   UNL     1     -44.045  57.329 -54.325  1.00  0.00     0.071 A 
BRANCH   9  11
HETATM   11  C   UNL     1     -44.603  58.375 -56.632  1.00  0.00    -0.003 A 
HETATM   12  C   UNL     1     -45.781  58.137 -57.363  1.00  0.00     0.050 A 
HETATM   13  C   UNL     1     -45.771  58.156 -58.760  1.00  0.00     0.069 A 
HETATM   14  C   UNL     1     -44.574  58.417 -59.432  1.00  0.00     0.037 A 
HETATM   15  C   UNL     1     -43.402  58.667 -58.723  1.00  0.00     0.004 A 
HETATM   16  C   UNL     1     -43.416  58.646 -57.327  1.00  0.00     0.014 A 
BRANCH  13  17
HETATM   17  O   UNL     1     -46.845  57.930 -59.576  1.00  0.00    -0.356 OA
HETATM   18  C   UNL     1     -47.065  56.586 -59.986  1.00  0.00     0.210 C 
ENDBRANCH  13  17
ENDBRANCH   9  11
ENDBRANCH   1   5
BRANCH   2  19
HETATM   19  N   UNL     1     -42.443  55.965 -50.448  1.00  0.00    -0.165 NA
HETATM   20  C   UNL     1     -41.654  54.936 -50.467  1.00  0.00     0.157 A 
HETATM   21  C   UNL     1     -40.945  54.442 -49.189  1.00  0.00     0.277 A 
HETATM   22  C   UNL     1     -41.205  54.035 -51.541  1.00  0.00     0.027 A 
HETATM   23  O   UNL     1     -41.078  54.883 -48.069  1.00  0.00    -0.266 OA
HETATM   24  N   UNL     1     -40.118  53.422 -49.603  1.00  0.00    -0.321 N 
HETATM   25  C   UNL     1     -40.271  53.174 -50.961  1.00  0.00     0.048 A 
HETATM   26  H   UNL     1     -39.528  52.909 -48.963  1.00  0.00     0.169 HD
HETATM   27  C   UNL     1     -39.633  52.188 -51.687  1.00  0.00     0.030 A 
HETATM   28  C   UNL     1     -39.972  52.060 -53.036  1.00  0.00     0.002 A 
HETATM   29  C   UNL     1     -40.942  52.895 -53.618  1.00  0.00     0.001 A 
HETATM   30  C   UNL     1     -41.578  53.890 -52.866  1.00  0.00     0.016 A 
ENDBRANCH   2  19
TORSDOF 4
ENDMDL
MODEL 8
REMARK VINA RESULT:      -7.9      3.423      8.889
REMARK  4 active torsions:
REMARK  status: ('A' for Active; 'I' for Inactive)
REMARK    1  A    between atoms: O_2  and  C_3 
REMARK    2  A    between atoms: C_5  and  C_6 
REMARK    3  A    between atoms: C_10  and  C_11 
REMARK       I    between atoms: C_11  and  N_12 
REMARK    4  A    between atoms: N_12  and  N_13 
ROOT
HETATM    1  C   UNL     1     -43.044  57.351 -56.707  1.00  0.00     0.289 C 
HETATM    2  N   UNL     1     -44.390  57.662 -56.587  1.00  0.00    -0.241 N 
HETATM    3  O   UNL     1     -42.229  58.000 -57.352  1.00  0.00    -0.264 OA
HETATM    4  H   UNL     1     -44.959  57.146 -55.933  1.00  0.00     0.192 HD
ENDROOT
BRANCH   1   5
HETATM    5  C   UNL     1     -42.663  56.138 -56.024  1.00  0.00     0.121 A 
HETATM    6  N   UNL     1     -43.315  54.958 -56.249  1.00  0.00    -0.272 N 
HETATM    7  N   UNL     1     -42.881  53.936 -55.493  1.00  0.00    -0.174 NA
HETATM    8  H   UNL     1     -44.085  54.804 -56.895  1.00  0.00     0.189 HD
HETATM    9  C   UNL     1     -41.872  54.451 -54.773  1.00  0.00     0.089 A 
HETATM   10  C   UNL     1     -41.701  55.830 -55.082  1.00  0.00     0.071 A 
BRANCH   9  11
HETATM   11  C   UNL     1     -41.120  53.649 -53.803  1.00  0.00    -0.003 A 
HETATM   12  C   UNL     1     -40.750  52.328 -54.115  1.00  0.00     0.050 A 
HETATM   13  C   UNL     1     -40.060  51.542 -53.188  1.00  0.00     0.069 A 
HETATM   14  C   UNL     1     -39.736  52.081 -51.941  1.00  0.00     0.037 A 
HETATM   15  C   UNL     1     -40.084  53.391 -51.622  1.00  0.00     0.004 A 
HETATM   16  C   UNL     1     -40.775  54.173 -52.549  1.00  0.00     0.014 A 
BRANCH  13  17
HETATM   17  O   UNL     1     -39.658  50.248 -53.372  1.00  0.00    -0.356 OA
HETATM   18  C   UNL     1     -39.621  49.774 -54.713  1.00  0.00     0.210 C 
ENDBRANCH  13  17
ENDBRANCH   9  11
ENDBRANCH   1   5
BRANCH   2  19
HETATM   19  N   UNL     1     -44.887  58.833 -57.073  1.00  0.00    -0.165 NA
HETATM   20  C   UNL     1     -45.627  58.795 -58.137  1.00  0.00     0.157 A 
HETATM   21  C   UNL     1     -46.405  60.036 -58.620  1.00  0.00     0.277 A 
HETATM   22  C   UNL     1     -45.958  57.725 -59.092  1.00  0.00     0.027 A 
HETATM   23  O   UNL     1     -46.372  61.146 -58.138  1.00  0.00    -0.266 OA
HETATM   24  N   UNL     1     -47.154  59.603 -59.690  1.00  0.00    -0.321 N 
HETATM   25  C   UNL     1     -46.894  58.268 -59.975  1.00  0.00     0.048 A 
HETATM   26  H   UNL     1     -47.766  60.217 -60.208  1.00  0.00     0.169 HD
HETATM   27  C   UNL     1     -47.434  57.535 -61.013  1.00  0.00     0.030 A 
HETATM   28  C   UNL     1     -46.994  56.219 -61.169  1.00  0.00     0.002 A 
HETATM   29  C   UNL     1     -46.022  55.677 -60.310  1.00  0.00     0.001 A 
HETATM   30  C   UNL     1     -45.485  56.436 -59.263  1.00  0.00     0.016 A 
ENDBRANCH   2  19
TORSDOF 4
ENDMDL
MODEL 9
REMARK VINA RESULT:      -7.9      4.281      7.329
REMARK  4 active torsions:
REMARK  status: ('A' for Active; 'I' for Inactive)
REMARK    1  A    between atoms: O_2  and  C_3 
REMARK    2  A    between atoms: C_5  and  C_6 
REMARK    3  A    between atoms: C_10  and  C_11 
REMARK       I    between atoms: C_11  and  N_12 
REMARK    4  A    between atoms: N_12  and  N_13 
ROOT
HETATM    1  C   UNL     1     -41.244  58.850 -52.981  1.00  0.00     0.289 C 
HETATM    2  N   UNL     1     -41.901  57.654 -53.230  1.00  0.00    -0.241 N 
HETATM    3  O   UNL     1     -40.065  59.068 -53.236  1.00  0.00    -0.264 OA
HETATM    4  H   UNL     1     -42.901  57.607 -53.106  1.00  0.00     0.192 HD
ENDROOT
BRANCH   1   5
HETATM    5  C   UNL     1     -42.067  59.846 -52.338  1.00  0.00     0.121 A 
HETATM    6  N   UNL     1     -42.528  60.938 -53.018  1.00  0.00    -0.272 N 
HETATM    7  N   UNL     1     -43.229  61.800 -52.265  1.00  0.00    -0.174 NA
HETATM    8  H   UNL     1     -42.369  61.154 -53.999  1.00  0.00     0.189 HD
HETATM    9  C   UNL     1     -43.271  61.233 -51.049  1.00  0.00     0.089 A 
HETATM   10  C   UNL     1     -42.557  60.002 -51.056  1.00  0.00     0.071 A 
BRANCH   9  11
HETATM   11  C   UNL     1     -43.952  61.869 -49.917  1.00  0.00    -0.003 A 
HETATM   12  C   UNL     1     -44.914  61.156 -49.180  1.00  0.00     0.050 A 
HETATM   13  C   UNL     1     -45.592  61.761 -48.118  1.00  0.00     0.069 A 
HETATM   14  C   UNL     1     -45.305  63.087 -47.789  1.00  0.00     0.037 A 
HETATM   15  C   UNL     1     -44.345  63.803 -48.501  1.00  0.00     0.004 A 
HETATM   16  C   UNL     1     -43.670  63.196 -49.562  1.00  0.00     0.014 A 
BRANCH  13  17
HETATM   17  O   UNL     1     -46.552  61.175 -47.338  1.00  0.00    -0.356 OA
HETATM   18  C   UNL     1     -46.099  60.471 -46.188  1.00  0.00     0.210 C 
ENDBRANCH  13  17
ENDBRANCH   9  11
ENDBRANCH   1   5
BRANCH   2  19
HETATM   19  N   UNL     1     -41.301  56.656 -53.935  1.00  0.00    -0.165 NA
HETATM   20  C   UNL     1     -40.992  55.561 -53.313  1.00  0.00     0.157 A 
HETATM   21  C   UNL     1     -40.517  54.308 -54.077  1.00  0.00     0.277 A 
HETATM   22  C   UNL     1     -41.005  55.176 -51.892  1.00  0.00     0.027 A 
HETATM   23  O   UNL     1     -40.323  54.216 -55.269  1.00  0.00    -0.266 OA
HETATM   24  N   UNL     1     -40.390  53.325 -53.122  1.00  0.00    -0.321 N 
HETATM   25  C   UNL     1     -40.662  53.822 -51.853  1.00  0.00     0.048 A 
HETATM   26  H   UNL     1     -40.088  52.388 -53.345  1.00  0.00     0.169 HD
HETATM   27  C   UNL     1     -40.579  53.121 -50.667  1.00  0.00     0.030 A 
HETATM   28  C   UNL     1     -40.831  53.821 -49.485  1.00  0.00     0.002 A 
HETATM   29  C   UNL     1     -41.137  55.193 -49.512  1.00  0.00     0.001 A 
HETATM   30  C   UNL     1     -41.217  55.888 -50.725  1.00  0.00     0.016 A 
ENDBRANCH   2  19
TORSDOF 4
ENDMDL
MODEL 10
REMARK VINA RESULT:      -7.9      3.164      8.356
REMARK  4 active torsions:
REMARK  status: ('A' for Active; 'I' for Inactive)
REMARK    1  A    between atoms: O_2  and  C_3 
REMARK    2  A    between atoms: C_5  and  C_6 
REMARK    3  A    between atoms: C_10  and  C_11 
REMARK       I    between atoms: C_11  and  N_12 
REMARK    4  A    between atoms: N_12  and  N_13 
ROOT
HETATM    1  C   UNL     1     -42.527  56.805 -55.811  1.00  0.00     0.289 C 
HETATM    2  N   UNL     1     -43.902  56.774 -55.638  1.00  0.00    -0.241 N 
HETATM    3  O   UNL     1     -41.917  57.669 -56.430  1.00  0.00    -0.264 OA
HETATM    4  H   UNL     1     -44.304  56.097 -55.007  1.00  0.00     0.192 HD
ENDROOT
BRANCH   1   5
HETATM    5  C   UNL     1     -41.839  55.680 -55.223  1.00  0.00     0.121 A 
HETATM    6  N   UNL     1     -41.111  54.811 -55.987  1.00  0.00    -0.272 N 
HETATM    7  N   UNL     1     -40.584  53.784 -55.300  1.00  0.00    -0.174 NA
HETATM    8  H   UNL     1     -40.965  54.861 -56.991  1.00  0.00     0.189 HD
HETATM    9  C   UNL     1     -40.940  54.009 -54.026  1.00  0.00     0.089 A 
HETATM   10  C   UNL     1     -41.725  55.193 -53.936  1.00  0.00     0.071 A 
BRANCH   9  11
HETATM   11  C   UNL     1     -40.559  53.100 -52.940  1.00  0.00    -0.003 A 
HETATM   12  C   UNL     1     -40.822  53.447 -51.603  1.00  0.00     0.050 A 
HETATM   13  C   UNL     1     -40.437  52.604 -50.557  1.00  0.00     0.069 A 
HETATM   14  C   UNL     1     -39.786  51.404 -50.850  1.00  0.00     0.037 A 
HETATM   15  C   UNL     1     -39.529  51.039 -52.170  1.00  0.00     0.004 A 
HETATM   16  C   UNL     1     -39.915  51.885 -53.212  1.00  0.00     0.014 A 
BRANCH  13  17
HETATM   17  O   UNL     1     -40.627  52.838 -49.223  1.00  0.00    -0.356 OA
HETATM   18  C   UNL     1     -40.059  54.031 -48.695  1.00  0.00     0.210 C 
ENDBRANCH  13  17
ENDBRANCH   9  11
ENDBRANCH   1   5
BRANCH   2  19
HETATM   19  N   UNL     1     -44.684  57.818 -56.029  1.00  0.00    -0.165 NA
HETATM   20  C   UNL     1     -45.081  58.664 -55.130  1.00  0.00     0.157 A 
HETATM   21  C   UNL     1     -45.777  59.984 -55.519  1.00  0.00     0.277 A 
HETATM   22  C   UNL     1     -44.999  58.678 -53.660  1.00  0.00     0.027 A 
HETATM   23  O   UNL     1     -46.080  60.342 -56.635  1.00  0.00    -0.266 OA
HETATM   24  N   UNL     1     -45.951  60.666 -54.336  1.00  0.00    -0.321 N 
HETATM   25  C   UNL     1     -45.512  59.912 -53.255  1.00  0.00     0.048 A 
HETATM   26  H   UNL     1     -46.390  61.574 -54.294  1.00  0.00     0.169 HD
HETATM   27  C   UNL     1     -45.586  60.274 -51.925  1.00  0.00     0.030 A 
HETATM   28  C   UNL     1     -45.147  59.345 -50.979  1.00  0.00     0.002 A 
HETATM   29  C   UNL     1     -44.668  58.084 -51.376  1.00  0.00     0.001 A 
HETATM   30  C   UNL     1     -44.600  57.734 -52.730  1.00  0.00     0.016 A 
ENDBRANCH   2  19
TORSDOF 4
ENDMDL
