MODEL 1
REMARK VINA RESULT:      -9.5      0.000      0.000
REMARK  6 active torsions:
REMARK  status: ('A' for Active; 'I' for Inactive)
REMARK    1  A    between atoms: C_2  and  O_3 
REMARK    2  A    between atoms: C_2  and  C_4 
REMARK    3  A    between atoms: C_6  and  N_7 
REMARK       I    between atoms: N_7  and  C_8 
REMARK    4  A    between atoms: C_8  and  C_9 
REMARK    5  A    between atoms: C_12  and  C_13 
REMARK    6  A    between atoms: C_18  and  C_19 
ROOT
HETATM    1  C   UNL     1     -42.559  56.169 -53.320  1.00  0.00     0.096 C 
HETATM    2  C   UNL     1     -41.818  55.106 -52.838  1.00  0.00     0.138 C 
HETATM    3  N   UNL     1     -41.520  55.418 -51.530  1.00  0.00    -0.240 N 
HETATM    4  C   UNL     1     -40.720  54.589 -50.646  1.00  0.00     0.221 C 
HETATM    5  C   UNL     1     -40.576  53.169 -51.221  1.00  0.00     0.068 C 
HETATM    6  C   UNL     1     -40.280  53.223 -52.724  1.00  0.00     0.143 C 
HETATM    7  N   UNL     1     -41.377  53.944 -53.400  1.00  0.00    -0.363 N 
HETATM    8  N   UNL     1     -41.857  56.672 -51.194  1.00  0.00    -0.181 NA
HETATM    9  C   UNL     1     -42.517  57.114 -52.267  1.00  0.00     0.160 C 
HETATM   10  H   UNL     1     -41.233  53.941 -54.413  1.00  0.00     0.162 HD
ENDROOT
BRANCH   1  11
HETATM   11  C   UNL     1     -43.209  56.344 -54.609  1.00  0.00     0.261 C 
HETATM   12  N   UNL     1     -42.324  56.377 -55.670  1.00  0.00    -0.323 N 
HETATM   13  H   UNL     1     -41.356  56.184 -55.434  1.00  0.00     0.169 HD
HETATM   14  O   UNL     1     -44.430  56.407 -54.682  1.00  0.00    -0.267 OA
BRANCH  12  15
HETATM   15  C   UNL     1     -42.621  56.532 -57.038  1.00  0.00     0.035 A 
HETATM   16  C   UNL     1     -43.239  55.550 -57.818  1.00  0.00     0.039 A 
HETATM   17  C   UNL     1     -43.498  55.764 -59.184  1.00  0.00    -0.028 A 
HETATM   18  C   UNL     1     -43.118  56.981 -59.764  1.00  0.00     0.010 A 
HETATM   19  C   UNL     1     -42.513  57.972 -58.992  1.00  0.00     0.003 A 
HETATM   20  C   UNL     1     -42.269  57.748 -57.636  1.00  0.00     0.029 A 
BRANCH  17  21
HETATM   21  C   UNL     1     -44.141  54.667 -60.007  1.00  0.00     0.147 C 
HETATM   22  C   UNL     1     -45.042  55.226 -61.099  1.00  0.00     0.044 C 
BRANCH  21  23
HETATM   23  O   UNL     1     -44.911  53.804 -59.170  1.00  0.00    -0.391 OA
HETATM   24  H   UNL     1     -45.792  54.208 -59.091  1.00  0.00     0.210 HD
ENDBRANCH  21  23
ENDBRANCH  17  21
ENDBRANCH  12  15
ENDBRANCH   1  11
BRANCH   4  25
HETATM   25  C   UNL     1     -41.313  54.515 -49.256  1.00  0.00     0.409 C 
HETATM   26  F   UNL     1     -40.859  53.476 -48.526  1.00  0.00    -0.169 F 
HETATM   27  F   UNL     1     -41.112  55.652 -48.551  1.00  0.00    -0.169 F 
HETATM   28  F   UNL     1     -42.661  54.350 -49.346  1.00  0.00    -0.169 F 
ENDBRANCH   4  25
BRANCH   6  29
HETATM   29  C   UNL     1     -40.070  51.841 -53.251  1.00  0.00     0.075 A 
HETATM   30  O   UNL     1     -39.679  50.900 -52.344  1.00  0.00    -0.325 OA
HETATM   31  C   UNL     1     -39.561  49.725 -53.014  1.00  0.00     0.142 A 
HETATM   32  C   UNL     1     -39.871  49.896 -54.343  1.00  0.00     0.027 A 
HETATM   33  C   UNL     1     -40.201  51.263 -54.498  1.00  0.00     0.037 A 
ENDBRANCH   6  29
TORSDOF 6
ENDMDL
MODEL 2
REMARK VINA RESULT:      -8.7      3.564      8.062
REMARK  6 active torsions:
REMARK  status: ('A' for Active; 'I' for Inactive)
REMARK    1  A    between atoms: C_2  and  O_3 
REMARK    2  A    between atoms: C_2  and  C_4 
REMARK    3  A    between atoms: C_6  and  N_7 
REMARK       I    between atoms: N_7  and  C_8 
REMARK    4  A    between atoms: C_8  and  C_9 
REMARK    5  A    between atoms: C_12  and  C_13 
REMARK    6  A    between atoms: C_18  and  C_19 
ROOT
HETATM    1  C   UNL     1     -42.323  56.367 -54.850  1.00  0.00     0.096 C 
HETATM    2  C   UNL     1     -42.878  56.805 -56.038  1.00  0.00     0.138 C 
HETATM    3  N   UNL     1     -42.721  58.173 -56.045  1.00  0.00    -0.240 N 
HETATM    4  C   UNL     1     -43.195  59.052 -57.099  1.00  0.00     0.221 C 
HETATM    5  C   UNL     1     -43.541  58.243 -58.361  1.00  0.00     0.068 C 
HETATM    6  C   UNL     1     -44.317  56.974 -57.992  1.00  0.00     0.143 C 
HETATM    7  N   UNL     1     -43.496  56.164 -57.071  1.00  0.00    -0.363 N 
HETATM    8  N   UNL     1     -42.274  58.661 -54.878  1.00  0.00    -0.181 NA
HETATM    9  C   UNL     1     -42.001  57.564 -54.167  1.00  0.00     0.160 C 
HETATM   10  H   UNL     1     -43.967  55.281 -56.858  1.00  0.00     0.162 HD
ENDROOT
BRANCH   1  11
HETATM   11  C   UNL     1     -42.134  55.014 -54.351  1.00  0.00     0.261 C 
HETATM   12  N   UNL     1     -41.060  54.892 -53.490  1.00  0.00    -0.323 N 
HETATM   13  H   UNL     1     -40.601  55.763 -53.242  1.00  0.00     0.169 HD
HETATM   14  O   UNL     1     -42.913  54.123 -54.668  1.00  0.00    -0.267 OA
BRANCH  12  15
HETATM   15  C   UNL     1     -40.605  53.730 -52.835  1.00  0.00     0.035 A 
HETATM   16  C   UNL     1     -40.208  52.566 -53.500  1.00  0.00     0.039 A 
HETATM   17  C   UNL     1     -39.774  51.434 -52.786  1.00  0.00    -0.028 A 
HETATM   18  C   UNL     1     -39.752  51.483 -51.386  1.00  0.00     0.010 A 
HETATM   19  C   UNL     1     -40.133  52.643 -50.714  1.00  0.00     0.003 A 
HETATM   20  C   UNL     1     -40.555  53.761 -51.436  1.00  0.00     0.029 A 
BRANCH  17  21
HETATM   21  C   UNL     1     -39.380  50.179 -53.536  1.00  0.00     0.147 C 
HETATM   22  C   UNL     1     -40.303  49.903 -54.713  1.00  0.00     0.044 C 
BRANCH  21  23
HETATM   23  O   UNL     1     -39.398  49.052 -52.661  1.00  0.00    -0.391 OA
HETATM   24  H   UNL     1     -38.977  48.319 -53.143  1.00  0.00     0.210 HD
ENDBRANCH  21  23
ENDBRANCH  17  21
ENDBRANCH  12  15
ENDBRANCH   1  11
BRANCH   4  25
HETATM   25  C   UNL     1     -42.176  60.117 -57.443  1.00  0.00     0.409 C 
HETATM   26  F   UNL     1     -41.011  59.624 -57.907  1.00  0.00    -0.169 F 
HETATM   27  F   UNL     1     -42.650  61.009 -58.342  1.00  0.00    -0.169 F 
HETATM   28  F   UNL     1     -41.865  60.826 -56.323  1.00  0.00    -0.169 F 
ENDBRANCH   4  25
BRANCH   6  29
HETATM   29  C   UNL     1     -44.710  56.240 -59.233  1.00  0.00     0.075 A 
HETATM   30  O   UNL     1     -45.955  56.505 -59.726  1.00  0.00    -0.325 OA
HETATM   31  C   UNL     1     -46.106  55.758 -60.849  1.00  0.00     0.142 A 
HETATM   32  C   UNL     1     -44.974  55.014 -61.088  1.00  0.00     0.027 A 
HETATM   33  C   UNL     1     -44.070  55.324 -60.046  1.00  0.00     0.037 A 
ENDBRANCH   6  29
TORSDOF 6
ENDMDL
MODEL 3
REMARK VINA RESULT:      -8.6      1.683      2.491
REMARK  6 active torsions:
REMARK  status: ('A' for Active; 'I' for Inactive)
REMARK    1  A    between atoms: C_2  and  O_3 
REMARK    2  A    between atoms: C_2  and  C_4 
REMARK    3  A    between atoms: C_6  and  N_7 
REMARK       I    between atoms: N_7  and  C_8 
REMARK    4  A    between atoms: C_8  and  C_9 
REMARK    5  A    between atoms: C_12  and  C_13 
REMARK    6  A    between atoms: C_18  and  C_19 
ROOT
HETATM    1  C   UNL     1     -41.942  56.181 -52.377  1.00  0.00     0.096 C 
HETATM    2  C   UNL     1     -41.250  55.022 -52.076  1.00  0.00     0.138 C 
HETATM    3  N   UNL     1     -40.773  55.190 -50.795  1.00  0.00    -0.240 N 
HETATM    4  C   UNL     1     -39.955  54.223 -50.086  1.00  0.00     0.221 C 
HETATM    5  C   UNL     1     -40.011  52.853 -50.785  1.00  0.00     0.068 C 
HETATM    6  C   UNL     1     -39.890  53.017 -52.304  1.00  0.00     0.143 C 
HETATM    7  N   UNL     1     -40.987  53.883 -52.779  1.00  0.00    -0.363 N 
HETATM    8  N   UNL     1     -40.952  56.432 -50.322  1.00  0.00    -0.181 NA
HETATM    9  C   UNL     1     -41.690  57.022 -51.267  1.00  0.00     0.160 C 
HETATM   10  H   UNL     1     -40.964  53.958 -53.799  1.00  0.00     0.162 HD
ENDROOT
BRANCH   1  11
HETATM   11  C   UNL     1     -42.720  56.523 -53.557  1.00  0.00     0.261 C 
HETATM   12  N   UNL     1     -41.991  56.469 -54.730  1.00  0.00    -0.323 N 
HETATM   13  H   UNL     1     -41.045  56.113 -54.636  1.00  0.00     0.169 HD
HETATM   14  O   UNL     1     -43.913  56.783 -53.458  1.00  0.00    -0.267 OA
BRANCH  12  15
HETATM   15  C   UNL     1     -42.437  56.740 -56.038  1.00  0.00     0.035 A 
HETATM   16  C   UNL     1     -42.580  58.028 -56.562  1.00  0.00     0.039 A 
HETATM   17  C   UNL     1     -43.042  58.231 -57.875  1.00  0.00    -0.028 A 
HETATM   18  C   UNL     1     -43.372  57.116 -58.658  1.00  0.00     0.010 A 
HETATM   19  C   UNL     1     -43.221  55.827 -58.149  1.00  0.00     0.003 A 
HETATM   20  C   UNL     1     -42.753  55.641 -56.847  1.00  0.00     0.029 A 
BRANCH  17  21
HETATM   21  C   UNL     1     -43.214  59.640 -58.402  1.00  0.00     0.147 C 
HETATM   22  C   UNL     1     -41.905  60.222 -58.914  1.00  0.00     0.044 C 
BRANCH  21  23
HETATM   23  O   UNL     1     -43.729  60.493 -57.380  1.00  0.00    -0.391 OA
HETATM   24  H   UNL     1     -43.767  59.960 -56.567  1.00  0.00     0.210 HD
ENDBRANCH  21  23
ENDBRANCH  17  21
ENDBRANCH  12  15
ENDBRANCH   1  11
BRANCH   4  25
HETATM   25  C   UNL     1     -40.385  54.073 -48.643  1.00  0.00     0.409 C 
HETATM   26  F   UNL     1     -41.227  55.039 -48.224  1.00  0.00    -0.169 F 
HETATM   27  F   UNL     1     -40.959  52.872 -48.400  1.00  0.00    -0.169 F 
HETATM   28  F   UNL     1     -39.293  54.149 -47.834  1.00  0.00    -0.169 F 
ENDBRANCH   4  25
BRANCH   6  29
HETATM   29  C   UNL     1     -39.871  51.675 -52.960  1.00  0.00     0.075 A 
HETATM   30  O   UNL     1     -39.566  50.613 -52.159  1.00  0.00    -0.325 OA
HETATM   31  C   UNL     1     -39.618  49.501 -52.935  1.00  0.00     0.142 A 
HETATM   32  C   UNL     1     -39.952  49.831 -54.228  1.00  0.00     0.027 A 
HETATM   33  C   UNL     1     -40.117  51.236 -54.246  1.00  0.00     0.037 A 
ENDBRANCH   6  29
TORSDOF 6
ENDMDL
MODEL 4
REMARK VINA RESULT:      -8.5      1.994      4.501
REMARK  6 active torsions:
REMARK  status: ('A' for Active; 'I' for Inactive)
REMARK    1  A    between atoms: C_2  and  O_3 
REMARK    2  A    between atoms: C_2  and  C_4 
REMARK    3  A    between atoms: C_6  and  N_7 
REMARK       I    between atoms: N_7  and  C_8 
REMARK    4  A    between atoms: C_8  and  C_9 
REMARK    5  A    between atoms: C_12  and  C_13 
REMARK    6  A    between atoms: C_18  and  C_19 
ROOT
HETATM    1  C   UNL     1     -41.232  54.240 -53.547  1.00  0.00     0.096 C 
HETATM    2  C   UNL     1     -41.372  55.063 -52.445  1.00  0.00     0.138 C 
HETATM    3  N   UNL     1     -41.192  54.252 -51.346  1.00  0.00    -0.240 N 
HETATM    4  C   UNL     1     -41.287  54.699 -49.968  1.00  0.00     0.221 C 
HETATM    5  C   UNL     1     -41.233  56.234 -49.893  1.00  0.00     0.068 C 
HETATM    6  C   UNL     1     -42.113  56.859 -50.981  1.00  0.00     0.143 C 
HETATM    7  N   UNL     1     -41.645  56.391 -52.300  1.00  0.00    -0.363 N 
HETATM    8  N   UNL     1     -41.127  52.948 -51.654  1.00  0.00    -0.181 NA
HETATM    9  C   UNL     1     -41.117  52.945 -52.989  1.00  0.00     0.160 C 
HETATM   10  H   UNL     1     -42.178  56.842 -53.048  1.00  0.00     0.162 HD
ENDROOT
BRANCH   1  11
HETATM   11  C   UNL     1     -41.240  54.569 -54.964  1.00  0.00     0.261 C 
HETATM   12  N   UNL     1     -42.389  55.222 -55.369  1.00  0.00    -0.323 N 
HETATM   13  H   UNL     1     -43.032  55.470 -54.625  1.00  0.00     0.169 HD
HETATM   14  O   UNL     1     -40.272  54.305 -55.667  1.00  0.00    -0.267 OA
BRANCH  12  15
HETATM   15  C   UNL     1     -42.714  55.677 -56.663  1.00  0.00     0.035 A 
HETATM   16  C   UNL     1     -43.382  54.903 -57.616  1.00  0.00     0.039 A 
HETATM   17  C   UNL     1     -43.667  55.414 -58.896  1.00  0.00    -0.028 A 
HETATM   18  C   UNL     1     -43.261  56.717 -59.211  1.00  0.00     0.010 A 
HETATM   19  C   UNL     1     -42.607  57.501 -58.263  1.00  0.00     0.003 A 
HETATM   20  C   UNL     1     -42.337  56.984 -56.995  1.00  0.00     0.029 A 
BRANCH  17  21
HETATM   21  C   UNL     1     -44.365  54.538 -59.916  1.00  0.00     0.147 C 
HETATM   22  C   UNL     1     -45.399  55.312 -60.720  1.00  0.00     0.044 C 
BRANCH  21  23
HETATM   23  O   UNL     1     -45.010  53.441 -59.269  1.00  0.00    -0.391 OA
HETATM   24  H   UNL     1     -45.860  53.311 -59.725  1.00  0.00     0.210 HD
ENDBRANCH  21  23
ENDBRANCH  17  21
ENDBRANCH  12  15
ENDBRANCH   1  11
BRANCH   4  25
HETATM   25  C   UNL     1     -40.189  54.111 -49.109  1.00  0.00     0.409 C 
HETATM   26  F   UNL     1     -38.950  54.320 -49.593  1.00  0.00    -0.169 F 
HETATM   27  F   UNL     1     -40.233  54.566 -47.836  1.00  0.00    -0.169 F 
HETATM   28  F   UNL     1     -40.342  52.760 -49.040  1.00  0.00    -0.169 F 
ENDBRANCH   4  25
BRANCH   6  29
HETATM   29  C   UNL     1     -42.108  58.348 -50.847  1.00  0.00     0.075 A 
HETATM   30  O   UNL     1     -43.244  58.994 -51.239  1.00  0.00    -0.325 OA
HETATM   31  C   UNL     1     -43.042  60.320 -51.024  1.00  0.00     0.142 A 
HETATM   32  C   UNL     1     -41.790  60.536 -50.498  1.00  0.00     0.027 A 
HETATM   33  C   UNL     1     -41.185  59.263 -50.383  1.00  0.00     0.037 A 
ENDBRANCH   6  29
TORSDOF 6
ENDMDL
MODEL 5
REMARK VINA RESULT:      -8.2      2.396      3.251
REMARK  6 active torsions:
REMARK  status: ('A' for Active; 'I' for Inactive)
REMARK    1  A    between atoms: C_2  and  O_3 
REMARK    2  A    between atoms: C_2  and  C_4 
REMARK    3  A    between atoms: C_6  and  N_7 
REMARK       I    between atoms: N_7  and  C_8 
REMARK    4  A    between atoms: C_8  and  C_9 
REMARK    5  A    between atoms: C_12  and  C_13 
REMARK    6  A    between atoms: C_18  and  C_19 
ROOT
HETATM    1  C   UNL     1     -42.414  57.737 -55.741  1.00  0.00     0.096 C 
HETATM    2  C   UNL     1     -41.905  56.860 -54.801  1.00  0.00     0.138 C 
HETATM    3  N   UNL     1     -41.890  57.553 -53.611  1.00  0.00    -0.240 N 
HETATM    4  C   UNL     1     -41.395  57.021 -52.353  1.00  0.00     0.221 C 
HETATM    5  C   UNL     1     -41.253  55.491 -52.433  1.00  0.00     0.068 C 
HETATM    6  C   UNL     1     -40.615  55.077 -53.763  1.00  0.00     0.143 C 
HETATM    7  N   UNL     1     -41.455  55.574 -54.870  1.00  0.00    -0.363 N 
HETATM    8  N   UNL     1     -42.178  58.855 -53.751  1.00  0.00    -0.181 NA
HETATM    9  C   UNL     1     -42.530  58.958 -55.036  1.00  0.00     0.160 C 
HETATM   10  H   UNL     1     -41.082  55.258 -55.770  1.00  0.00     0.162 HD
ENDROOT
BRANCH   1  11
HETATM   11  C   UNL     1     -42.731  57.519 -57.144  1.00  0.00     0.261 C 
HETATM   12  N   UNL     1     -43.923  56.849 -57.340  1.00  0.00    -0.323 N 
HETATM   13  H   UNL     1     -44.467  56.677 -56.501  1.00  0.00     0.169 HD
HETATM   14  O   UNL     1     -41.991  57.952 -58.019  1.00  0.00    -0.267 OA
BRANCH  12  15
HETATM   15  C   UNL     1     -44.517  56.482 -58.564  1.00  0.00     0.035 A 
HETATM   16  C   UNL     1     -45.599  57.157 -59.138  1.00  0.00     0.039 A 
HETATM   17  C   UNL     1     -46.154  56.732 -60.359  1.00  0.00    -0.028 A 
HETATM   18  C   UNL     1     -45.612  55.608 -60.995  1.00  0.00     0.010 A 
HETATM   19  C   UNL     1     -44.526  54.936 -60.437  1.00  0.00     0.003 A 
HETATM   20  C   UNL     1     -43.981  55.374 -59.229  1.00  0.00     0.029 A 
BRANCH  17  21
HETATM   21  C   UNL     1     -47.344  57.468 -60.939  1.00  0.00     0.147 C 
HETATM   22  C   UNL     1     -48.104  56.619 -61.948  1.00  0.00     0.044 C 
BRANCH  21  23
HETATM   23  O   UNL     1     -46.921  58.673 -61.576  1.00  0.00    -0.391 OA
HETATM   24  H   UNL     1     -47.405  58.727 -62.417  1.00  0.00     0.210 HD
ENDBRANCH  21  23
ENDBRANCH  17  21
ENDBRANCH  12  15
ENDBRANCH   1  11
BRANCH   4  25
HETATM   25  C   UNL     1     -42.296  57.387 -51.195  1.00  0.00     0.409 C 
HETATM   26  F   UNL     1     -42.046  58.605 -50.675  1.00  0.00    -0.169 F 
HETATM   27  F   UNL     1     -43.607  57.325 -51.525  1.00  0.00    -0.169 F 
HETATM   28  F   UNL     1     -42.112  56.500 -50.179  1.00  0.00    -0.169 F 
ENDBRANCH   4  25
BRANCH   6  29
HETATM   29  C   UNL     1     -40.416  53.596 -53.793  1.00  0.00     0.075 A 
HETATM   30  O   UNL     1     -40.058  53.009 -52.614  1.00  0.00    -0.325 OA
HETATM   31  C   UNL     1     -39.945  51.677 -52.850  1.00  0.00     0.142 A 
HETATM   32  C   UNL     1     -40.227  51.397 -54.167  1.00  0.00     0.027 A 
HETATM   33  C   UNL     1     -40.532  52.636 -54.778  1.00  0.00     0.037 A 
ENDBRANCH   6  29
TORSDOF 6
ENDMDL
MODEL 6
REMARK VINA RESULT:      -8.2      3.174      7.568
REMARK  6 active torsions:
REMARK  status: ('A' for Active; 'I' for Inactive)
REMARK    1  A    between atoms: C_2  and  O_3 
REMARK    2  A    between atoms: C_2  and  C_4 
REMARK    3  A    between atoms: C_6  and  N_7 
REMARK       I    between atoms: N_7  and  C_8 
REMARK    4  A    between atoms: C_8  and  C_9 
REMARK    5  A    between atoms: C_12  and  C_13 
REMARK    6  A    between atoms: C_18  and  C_19 
ROOT
HETATM    1  C   UNL     1     -42.903  56.303 -53.096  1.00  0.00     0.096 C 
HETATM    2  C   UNL     1     -43.119  56.916 -54.316  1.00  0.00     0.138 C 
HETATM    3  N   UNL     1     -43.182  58.266 -54.051  1.00  0.00    -0.240 N 
HETATM    4  C   UNL     1     -43.432  59.291 -55.050  1.00  0.00     0.221 C 
HETATM    5  C   UNL     1     -43.237  58.723 -56.466  1.00  0.00     0.068 C 
HETATM    6  C   UNL     1     -43.883  57.339 -56.587  1.00  0.00     0.143 C 
HETATM    7  N   UNL     1     -43.277  56.441 -55.585  1.00  0.00    -0.363 N 
HETATM    8  N   UNL     1     -43.203  58.550 -52.741  1.00  0.00    -0.181 NA
HETATM    9  C   UNL     1     -43.000  57.363 -52.163  1.00  0.00     0.160 C 
HETATM   10  H   UNL     1     -43.649  55.493 -55.685  1.00  0.00     0.162 HD
ENDROOT
BRANCH   1  11
HETATM   11  C   UNL     1     -42.673  54.901 -52.784  1.00  0.00     0.261 C 
HETATM   12  N   UNL     1     -41.388  54.639 -52.348  1.00  0.00    -0.323 N 
HETATM   13  H   UNL     1     -40.802  55.456 -52.211  1.00  0.00     0.169 HD
HETATM   14  O   UNL     1     -43.584  54.088 -52.879  1.00  0.00    -0.267 OA
BRANCH  12  15
HETATM   15  C   UNL     1     -40.840  53.398 -51.967  1.00  0.00     0.035 A 
HETATM   16  C   UNL     1     -40.388  52.435 -52.874  1.00  0.00     0.039 A 
HETATM   17  C   UNL     1     -39.861  51.209 -52.429  1.00  0.00    -0.028 A 
HETATM   18  C   UNL     1     -39.802  50.957 -51.052  1.00  0.00     0.010 A 
HETATM   19  C   UNL     1     -40.238  51.915 -50.140  1.00  0.00     0.003 A 
HETATM   20  C   UNL     1     -40.752  53.131 -50.596  1.00  0.00     0.029 A 
BRANCH  17  21
HETATM   21  C   UNL     1     -39.408  50.175 -53.438  1.00  0.00     0.147 C 
HETATM   22  C   UNL     1     -40.389  50.036 -54.594  1.00  0.00     0.044 C 
BRANCH  21  23
HETATM   23  O   UNL     1     -39.252  48.903 -52.810  1.00  0.00    -0.391 OA
HETATM   24  H   UNL     1     -39.998  48.805 -52.193  1.00  0.00     0.210 HD
ENDBRANCH  21  23
ENDBRANCH  17  21
ENDBRANCH  12  15
ENDBRANCH   1  11
BRANCH   4  25
HETATM   25  C   UNL     1     -42.534  60.493 -54.858  1.00  0.00     0.409 C 
HETATM   26  F   UNL     1     -43.079  61.462 -54.095  1.00  0.00    -0.169 F 
HETATM   27  F   UNL     1     -41.334  60.159 -54.330  1.00  0.00    -0.169 F 
HETATM   28  F   UNL     1     -42.278  61.066 -56.066  1.00  0.00    -0.169 F 
ENDBRANCH   4  25
BRANCH   6  29
HETATM   29  C   UNL     1     -43.750  56.835 -57.987  1.00  0.00     0.075 A 
HETATM   30  O   UNL     1     -44.346  57.584 -58.960  1.00  0.00    -0.325 OA
HETATM   31  C   UNL     1     -44.096  56.971 -60.145  1.00  0.00     0.142 A 
HETATM   32  C   UNL     1     -43.346  55.835 -59.949  1.00  0.00     0.027 A 
HETATM   33  C   UNL     1     -43.120  55.745 -58.556  1.00  0.00     0.037 A 
ENDBRANCH   6  29
TORSDOF 6
ENDMDL
MODEL 7
REMARK VINA RESULT:      -7.9      3.985      8.143
REMARK  6 active torsions:
REMARK  status: ('A' for Active; 'I' for Inactive)
REMARK    1  A    between atoms: C_2  and  O_3 
REMARK    2  A    between atoms: C_2  and  C_4 
REMARK    3  A    between atoms: C_6  and  N_7 
REMARK       I    between atoms: N_7  and  C_8 
REMARK    4  A    between atoms: C_8  and  C_9 
REMARK    5  A    between atoms: C_12  and  C_13 
REMARK    6  A    between atoms: C_18  and  C_19 
ROOT
HETATM    1  C   UNL     1     -42.712  56.072 -55.156  1.00  0.00     0.096 C 
HETATM    2  C   UNL     1     -42.780  57.415 -54.837  1.00  0.00     0.138 C 
HETATM    3  N   UNL     1     -43.078  58.066 -56.014  1.00  0.00    -0.240 N 
HETATM    4  C   UNL     1     -43.211  59.506 -56.149  1.00  0.00     0.221 C 
HETATM    5  C   UNL     1     -43.355  60.166 -54.767  1.00  0.00     0.068 C 
HETATM    6  C   UNL     1     -42.357  59.562 -53.773  1.00  0.00     0.143 C 
HETATM    7  N   UNL     1     -42.600  58.110 -53.677  1.00  0.00    -0.363 N 
HETATM    8  N   UNL     1     -43.029  57.267 -57.090  1.00  0.00    -0.181 NA
HETATM    9  C   UNL     1     -42.841  56.052 -56.566  1.00  0.00     0.160 C 
HETATM   10  H   UNL     1     -41.986  57.691 -52.973  1.00  0.00     0.162 HD
ENDROOT
BRANCH   1  11
HETATM   11  C   UNL     1     -42.511  54.917 -54.295  1.00  0.00     0.261 C 
HETATM   12  N   UNL     1     -41.180  54.644 -54.044  1.00  0.00    -0.323 N 
HETATM   13  H   UNL     1     -40.521  55.325 -54.408  1.00  0.00     0.169 HD
HETATM   14  O   UNL     1     -43.473  54.314 -53.834  1.00  0.00    -0.267 OA
BRANCH  12  15
HETATM   15  C   UNL     1     -40.644  53.606 -53.256  1.00  0.00     0.035 A 
HETATM   16  C   UNL     1     -40.207  52.383 -53.772  1.00  0.00     0.039 A 
HETATM   17  C   UNL     1     -39.691  51.381 -52.929  1.00  0.00    -0.028 A 
HETATM   18  C   UNL     1     -39.628  51.623 -51.550  1.00  0.00     0.010 A 
HETATM   19  C   UNL     1     -40.049  52.844 -51.028  1.00  0.00     0.003 A 
HETATM   20  C   UNL     1     -40.552  53.831 -51.878  1.00  0.00     0.029 A 
BRANCH  17  21
HETATM   21  C   UNL     1     -39.255  50.055 -53.516  1.00  0.00     0.147 C 
HETATM   22  C   UNL     1     -39.979  49.741 -54.817  1.00  0.00     0.044 C 
BRANCH  21  23
HETATM   23  O   UNL     1     -39.493  48.998 -52.588  1.00  0.00    -0.391 OA
HETATM   24  H   UNL     1     -39.993  49.386 -51.848  1.00  0.00     0.210 HD
ENDBRANCH  21  23
ENDBRANCH  17  21
ENDBRANCH  12  15
ENDBRANCH   1  11
BRANCH   4  25
HETATM   25  C   UNL     1     -44.392  59.882 -57.016  1.00  0.00     0.409 C 
HETATM   26  F   UNL     1     -45.448  59.057 -56.884  1.00  0.00    -0.169 F 
HETATM   27  F   UNL     1     -44.809  61.150 -56.793  1.00  0.00    -0.169 F 
HETATM   28  F   UNL     1     -44.029  59.821 -58.327  1.00  0.00    -0.169 F 
ENDBRANCH   4  25
BRANCH   6  29
HETATM   29  C   UNL     1     -42.459  60.265 -52.458  1.00  0.00     0.075 A 
HETATM   30  O   UNL     1     -41.669  59.788 -51.453  1.00  0.00    -0.325 OA
HETATM   31  C   UNL     1     -41.897  60.565 -50.364  1.00  0.00     0.142 A 
HETATM   32  C   UNL     1     -42.824  61.538 -50.653  1.00  0.00     0.027 A 
HETATM   33  C   UNL     1     -43.189  61.347 -52.007  1.00  0.00     0.037 A 
ENDBRANCH   6  29
TORSDOF 6
ENDMDL
MODEL 8
REMARK VINA RESULT:      -7.9      4.193      8.750
REMARK  6 active torsions:
REMARK  status: ('A' for Active; 'I' for Inactive)
REMARK    1  A    between atoms: C_2  and  O_3 
REMARK    2  A    between atoms: C_2  and  C_4 
REMARK    3  A    between atoms: C_6  and  N_7 
REMARK       I    between atoms: N_7  and  C_8 
REMARK    4  A    between atoms: C_8  and  C_9 
REMARK    5  A    between atoms: C_12  and  C_13 
REMARK    6  A    between atoms: C_18  and  C_19 
ROOT
HETATM    1  C   UNL     1     -42.691  57.358 -55.472  1.00  0.00     0.096 C 
HETATM    2  C   UNL     1     -43.372  57.766 -56.604  1.00  0.00     0.138 C 
HETATM    3  N   UNL     1     -43.030  59.087 -56.792  1.00  0.00    -0.240 N 
HETATM    4  C   UNL     1     -43.548  59.929 -57.855  1.00  0.00     0.221 C 
HETATM    5  C   UNL     1     -44.211  59.073 -58.948  1.00  0.00     0.068 C 
HETATM    6  C   UNL     1     -45.083  57.979 -58.321  1.00  0.00     0.143 C 
HETATM    7  N   UNL     1     -44.239  57.138 -57.449  1.00  0.00    -0.363 N 
HETATM    8  N   UNL     1     -42.330  59.604 -55.772  1.00  0.00    -0.181 NA
HETATM    9  C   UNL     1     -42.096  58.547 -54.989  1.00  0.00     0.160 C 
HETATM   10  H   UNL     1     -44.785  56.362 -57.066  1.00  0.00     0.162 HD
ENDROOT
BRANCH   1  11
HETATM   11  C   UNL     1     -42.611  56.043 -54.855  1.00  0.00     0.261 C 
HETATM   12  N   UNL     1     -41.333  55.703 -54.452  1.00  0.00    -0.323 N 
HETATM   13  H   UNL     1     -40.639  56.437 -54.548  1.00  0.00     0.169 HD
HETATM   14  O   UNL     1     -43.622  55.369 -54.699  1.00  0.00    -0.267 OA
BRANCH  12  15
HETATM   15  C   UNL     1     -40.912  54.513 -53.826  1.00  0.00     0.035 A 
HETATM   16  C   UNL     1     -40.991  54.287 -52.449  1.00  0.00     0.039 A 
HETATM   17  C   UNL     1     -40.542  53.078 -51.885  1.00  0.00    -0.028 A 
HETATM   18  C   UNL     1     -40.000  52.097 -52.726  1.00  0.00     0.010 A 
HETATM   19  C   UNL     1     -39.929  52.309 -54.102  1.00  0.00     0.003 A 
HETATM   20  C   UNL     1     -40.386  53.509 -54.648  1.00  0.00     0.029 A 
BRANCH  17  21
HETATM   21  C   UNL     1     -40.614  52.877 -50.386  1.00  0.00     0.147 C 
HETATM   22  C   UNL     1     -39.740  53.870 -49.633  1.00  0.00     0.044 C 
BRANCH  21  23
HETATM   23  O   UNL     1     -40.207  51.553 -50.043  1.00  0.00    -0.391 OA
HETATM   24  H   UNL     1     -41.018  51.062 -49.822  1.00  0.00     0.210 HD
ENDBRANCH  21  23
ENDBRANCH  17  21
ENDBRANCH  12  15
ENDBRANCH   1  11
BRANCH   4  25
HETATM   25  C   UNL     1     -42.464  60.786 -58.471  1.00  0.00     0.409 C 
HETATM   26  F   UNL     1     -42.259  61.950 -57.824  1.00  0.00    -0.169 F 
HETATM   27  F   UNL     1     -41.283  60.133 -58.561  1.00  0.00    -0.169 F 
HETATM   28  F   UNL     1     -42.818  61.120 -59.742  1.00  0.00    -0.169 F 
ENDBRANCH   4  25
BRANCH   6  29
HETATM   29  C   UNL     1     -45.777  57.204 -59.394  1.00  0.00     0.075 A 
HETATM   30  O   UNL     1     -47.028  57.630 -59.735  1.00  0.00    -0.325 OA
HETATM   31  C   UNL     1     -47.471  56.813 -60.725  1.00  0.00     0.142 A 
HETATM   32  C   UNL     1     -46.521  55.867 -61.028  1.00  0.00     0.027 A 
HETATM   33  C   UNL     1     -45.424  56.118 -60.170  1.00  0.00     0.037 A 
ENDBRANCH   6  29
TORSDOF 6
ENDMDL
MODEL 9
REMARK VINA RESULT:      -7.8     14.133     16.502
REMARK  6 active torsions:
REMARK  status: ('A' for Active; 'I' for Inactive)
REMARK    1  A    between atoms: C_2  and  O_3 
REMARK    2  A    between atoms: C_2  and  C_4 
REMARK    3  A    between atoms: C_6  and  N_7 
REMARK       I    between atoms: N_7  and  C_8 
REMARK    4  A    between atoms: C_8  and  C_9 
REMARK    5  A    between atoms: C_12  and  C_13 
REMARK    6  A    between atoms: C_18  and  C_19 
ROOT
HETATM    1  C   UNL     1     -36.701  41.475 -57.345  1.00  0.00     0.096 C 
HETATM    2  C   UNL     1     -35.533  41.131 -56.689  1.00  0.00     0.138 C 
HETATM    3  N   UNL     1     -35.692  41.558 -55.389  1.00  0.00    -0.240 N 
HETATM    4  C   UNL     1     -34.686  41.430 -54.350  1.00  0.00     0.221 C 
HETATM    5  C   UNL     1     -33.595  40.433 -54.776  1.00  0.00     0.068 C 
HETATM    6  C   UNL     1     -33.188  40.667 -56.235  1.00  0.00     0.143 C 
HETATM    7  N   UNL     1     -34.381  40.522 -57.091  1.00  0.00    -0.363 N 
HETATM    8  N   UNL     1     -36.791  42.305 -55.207  1.00  0.00    -0.181 NA
HETATM    9  C   UNL     1     -37.419  42.226 -56.384  1.00  0.00     0.160 C 
HETATM   10  H   UNL     1     -34.124  40.614 -58.078  1.00  0.00     0.162 HD
ENDROOT
BRANCH   1  11
HETATM   11  C   UNL     1     -37.121  41.197 -58.709  1.00  0.00     0.261 C 
HETATM   12  N   UNL     1     -37.396  39.862 -58.937  1.00  0.00    -0.323 N 
HETATM   13  H   UNL     1     -37.362  39.266 -58.117  1.00  0.00     0.169 HD
HETATM   14  O   UNL     1     -37.241  42.109 -59.517  1.00  0.00    -0.267 OA
BRANCH  12  15
HETATM   15  C   UNL     1     -37.823  39.261 -60.138  1.00  0.00     0.035 A 
HETATM   16  C   UNL     1     -39.114  38.766 -60.346  1.00  0.00     0.039 A 
HETATM   17  C   UNL     1     -39.473  38.165 -61.566  1.00  0.00    -0.028 A 
HETATM   18  C   UNL     1     -38.511  38.058 -62.579  1.00  0.00     0.010 A 
HETATM   19  C   UNL     1     -37.225  38.560 -62.386  1.00  0.00     0.003 A 
HETATM   20  C   UNL     1     -36.885  39.161 -61.172  1.00  0.00     0.029 A 
BRANCH  17  21
HETATM   21  C   UNL     1     -40.872  37.612 -61.748  1.00  0.00     0.147 C 
HETATM   22  C   UNL     1     -41.432  37.920 -63.128  1.00  0.00     0.044 C 
BRANCH  21  23
HETATM   23  O   UNL     1     -41.751  38.152 -60.762  1.00  0.00    -0.391 OA
HETATM   24  H   UNL     1     -42.651  37.889 -61.019  1.00  0.00     0.210 HD
ENDBRANCH  21  23
ENDBRANCH  17  21
ENDBRANCH  12  15
ENDBRANCH   1  11
BRANCH   4  25
HETATM   25  C   UNL     1     -35.289  40.991 -53.034  1.00  0.00     0.409 C 
HETATM   26  F   UNL     1     -35.792  42.004 -52.302  1.00  0.00    -0.169 F 
HETATM   27  F   UNL     1     -36.259  40.061 -53.199  1.00  0.00    -0.169 F 
HETATM   28  F   UNL     1     -34.327  40.411 -52.265  1.00  0.00    -0.169 F 
ENDBRANCH   4  25
BRANCH   6  29
HETATM   29  C   UNL     1     -32.077  39.741 -56.609  1.00  0.00     0.075 A 
HETATM   30  O   UNL     1     -30.815  40.148 -56.286  1.00  0.00    -0.325 OA
HETATM   31  C   UNL     1     -29.965  39.170 -56.691  1.00  0.00     0.142 A 
HETATM   32  C   UNL     1     -30.663  38.136 -57.271  1.00  0.00     0.027 A 
HETATM   33  C   UNL     1     -32.028  38.503 -57.219  1.00  0.00     0.037 A 
ENDBRANCH   6  29
TORSDOF 6
ENDMDL
MODEL 10
REMARK VINA RESULT:      -7.8      4.260      8.032
REMARK  6 active torsions:
REMARK  status: ('A' for Active; 'I' for Inactive)
REMARK    1  A    between atoms: C_2  and  O_3 
REMARK    2  A    between atoms: C_2  and  C_4 
REMARK    3  A    between atoms: C_6  and  N_7 
REMARK       I    between atoms: N_7  and  C_8 
REMARK    4  A    between atoms: C_8  and  C_9 
REMARK    5  A    between atoms: C_12  and  C_13 
REMARK    6  A    between atoms: C_18  and  C_19 
ROOT
HETATM    1  C   UNL     1     -42.515  57.888 -51.858  1.00  0.00     0.096 C 
HETATM    2  C   UNL     1     -42.407  57.135 -53.013  1.00  0.00     0.138 C 
HETATM    3  N   UNL     1     -41.684  56.015 -52.664  1.00  0.00    -0.240 N 
HETATM    4  C   UNL     1     -41.303  54.960 -53.587  1.00  0.00     0.221 C 
HETATM    5  C   UNL     1     -42.120  55.058 -54.886  1.00  0.00     0.068 C 
HETATM    6  C   UNL     1     -42.213  56.513 -55.357  1.00  0.00     0.143 C 
HETATM    7  N   UNL     1     -42.841  57.320 -54.292  1.00  0.00    -0.363 N 
HETATM    8  N   UNL     1     -41.170  56.079 -51.428  1.00  0.00    -0.181 NA
HETATM    9  C   UNL     1     -41.701  57.198 -50.928  1.00  0.00     0.160 C 
HETATM   10  H   UNL     1     -42.970  58.285 -54.606  1.00  0.00     0.162 HD
ENDROOT
BRANCH   1  11
HETATM   11  C   UNL     1     -43.239  59.126 -51.616  1.00  0.00     0.261 C 
HETATM   12  N   UNL     1     -42.815  59.798 -50.486  1.00  0.00    -0.323 N 
HETATM   13  H   UNL     1     -42.002  59.402 -50.025  1.00  0.00     0.169 HD
HETATM   14  O   UNL     1     -44.102  59.501 -52.401  1.00  0.00    -0.267 OA
BRANCH  12  15
HETATM   15  C   UNL     1     -43.302  61.016 -49.972  1.00  0.00     0.035 A 
HETATM   16  C   UNL     1     -44.254  61.106 -48.952  1.00  0.00     0.039 A 
HETATM   17  C   UNL     1     -44.707  62.355 -48.490  1.00  0.00    -0.028 A 
HETATM   18  C   UNL     1     -44.196  63.521 -49.076  1.00  0.00     0.010 A 
HETATM   19  C   UNL     1     -43.237  63.442 -50.084  1.00  0.00     0.003 A 
HETATM   20  C   UNL     1     -42.791  62.196 -50.527  1.00  0.00     0.029 A 
BRANCH  17  21
HETATM   21  C   UNL     1     -45.762  62.417 -47.405  1.00  0.00     0.147 C 
HETATM   22  C   UNL     1     -45.348  61.642 -46.162  1.00  0.00     0.044 C 
BRANCH  21  23
HETATM   23  O   UNL     1     -47.000  61.894 -47.885  1.00  0.00    -0.391 OA
HETATM   24  H   UNL     1     -46.781  61.117 -48.427  1.00  0.00     0.210 HD
ENDBRANCH  21  23
ENDBRANCH  17  21
ENDBRANCH  12  15
ENDBRANCH   1  11
BRANCH   4  25
HETATM   25  C   UNL     1     -41.484  53.588 -52.976  1.00  0.00     0.409 C 
HETATM   26  F   UNL     1     -40.401  53.143 -52.309  1.00  0.00    -0.169 F 
HETATM   27  F   UNL     1     -42.551  53.532 -52.145  1.00  0.00    -0.169 F 
HETATM   28  F   UNL     1     -41.717  52.679 -53.963  1.00  0.00    -0.169 F 
ENDBRANCH   4  25
BRANCH   6  29
HETATM   29  C   UNL     1     -42.946  56.581 -56.658  1.00  0.00     0.075 A 
HETATM   30  O   UNL     1     -43.718  57.688 -56.861  1.00  0.00    -0.325 OA
HETATM   31  C   UNL     1     -44.277  57.564 -58.092  1.00  0.00     0.142 A 
HETATM   32  C   UNL     1     -43.874  56.391 -58.687  1.00  0.00     0.027 A 
HETATM   33  C   UNL     1     -43.013  55.755 -57.762  1.00  0.00     0.037 A 
ENDBRANCH   6  29
TORSDOF 6
ENDMDL
