MODEL 1
REMARK VINA RESULT:      -8.1      0.000      0.000
REMARK  4 active torsions:
REMARK  status: ('A' for Active; 'I' for Inactive)
REMARK    1  A    between atoms: N_2  and  C_3 
REMARK    2  A    between atoms: C_5  and  C_6 
REMARK    3  A    between atoms: C_6  and  C_7 
REMARK    4  A    between atoms: C_13  and  O_14 
ROOT
HETATM    1  C   UNL     1     -40.229  52.939 -51.713  1.00  0.00     0.113 A 
HETATM    2  N   UNL     1     -40.669  53.942 -52.501  1.00  0.00    -0.223 NA
HETATM    3  C   UNL     1     -40.761  53.725 -53.839  1.00  0.00     0.106 A 
HETATM    4  N   UNL     1     -40.431  52.560 -54.422  1.00  0.00    -0.347 N 
HETATM    5  H   UNL     1     -40.472  52.468 -55.442  1.00  0.00     0.167 HD
HETATM    6  C   UNL     1     -39.997  51.570 -53.649  1.00  0.00     0.020 A 
HETATM    7  C   UNL     1     -39.891  51.729 -52.277  1.00  0.00     0.005 A 
HETATM    8  C   UNL     1     -39.359  50.483 -51.646  1.00  0.00     0.044 C 
HETATM    9  C   UNL     1     -39.572  49.455 -52.773  1.00  0.00     0.011 C 
HETATM   10  C   UNL     1     -39.526  50.226 -54.102  1.00  0.00     0.058 C 
ENDROOT
BRANCH   3  11
HETATM   11  C   UNL     1     -41.220  54.856 -54.713  1.00  0.00     0.085 C 
BRANCH  11  12
HETATM   12  C   UNL     1     -42.760  55.034 -54.786  1.00  0.00     0.021 C 
HETATM   13  C   UNL     1     -43.244  56.440 -54.430  1.00  0.00     0.181 C 
HETATM   14  O   UNL     1     -42.478  57.406 -55.162  1.00  0.00    -0.347 OA
HETATM   15  C   UNL     1     -42.551  57.209 -56.526  1.00  0.00     0.108 A 
HETATM   16  C   UNL     1     -42.910  55.972 -57.092  1.00  0.00    -0.021 A 
HETATM   17  C   UNL     1     -42.167  58.269 -57.351  1.00  0.00     0.102 A 
HETATM   18  C   UNL     1     -43.243  54.785 -56.222  1.00  0.00     0.048 C 
HETATM   19  C   UNL     1     -42.940  55.842 -58.487  1.00  0.00     0.010 A 
HETATM   20  C   UNL     1     -42.567  56.912 -59.304  1.00  0.00     0.003 A 
HETATM   21  C   UNL     1     -42.161  58.119 -58.737  1.00  0.00     0.039 A 
BRANCH  17  22
HETATM   22  O   UNL     1     -41.712  59.447 -56.818  1.00  0.00    -0.353 OA
HETATM   23  C   UNL     1     -41.724  60.474 -57.812  1.00  0.00     0.210 C 
ENDBRANCH  17  22
ENDBRANCH  11  12
ENDBRANCH   3  11
BRANCH   1  24
HETATM   24  N   UNL     1     -40.194  53.090 -50.331  1.00  0.00    -0.281 NA
HETATM   25  C   UNL     1     -39.661  54.349 -49.832  1.00  0.00     0.114 C 
HETATM   26  H   UNL     1     -39.776  52.289 -49.867  1.00  0.00     0.128 HD
ENDBRANCH   1  24
TORSDOF 4
ENDMDL
MODEL 2
REMARK VINA RESULT:      -8.0      1.244      1.731
REMARK  4 active torsions:
REMARK  status: ('A' for Active; 'I' for Inactive)
REMARK    1  A    between atoms: N_2  and  C_3 
REMARK    2  A    between atoms: C_5  and  C_6 
REMARK    3  A    between atoms: C_6  and  C_7 
REMARK    4  A    between atoms: C_13  and  O_14 
ROOT
HETATM    1  C   UNL     1     -40.150  53.018 -51.910  1.00  0.00     0.113 A 
HETATM    2  N   UNL     1     -40.524  53.922 -52.837  1.00  0.00    -0.223 NA
HETATM    3  C   UNL     1     -40.606  53.527 -54.135  1.00  0.00     0.106 A 
HETATM    4  N   UNL     1     -40.326  52.278 -54.545  1.00  0.00    -0.347 N 
HETATM    5  H   UNL     1     -40.356  52.048 -55.543  1.00  0.00     0.167 HD
HETATM    6  C   UNL     1     -39.956  51.385 -53.633  1.00  0.00     0.020 A 
HETATM    7  C   UNL     1     -39.864  51.727 -52.294  1.00  0.00     0.005 A 
HETATM    8  C   UNL     1     -39.406  50.556 -51.486  1.00  0.00     0.044 C 
HETATM    9  C   UNL     1     -39.654  49.393 -52.465  1.00  0.00     0.011 C 
HETATM   10  C   UNL     1     -39.546  49.971 -53.887  1.00  0.00     0.058 C 
ENDROOT
BRANCH   3  11
HETATM   11  C   UNL     1     -40.992  54.547 -55.166  1.00  0.00     0.085 C 
BRANCH  11  12
HETATM   12  C   UNL     1     -42.506  54.580 -55.509  1.00  0.00     0.021 C 
HETATM   13  C   UNL     1     -43.371  55.267 -54.452  1.00  0.00     0.181 C 
HETATM   14  O   UNL     1     -42.791  56.533 -54.112  1.00  0.00    -0.347 OA
HETATM   15  C   UNL     1     -42.641  57.354 -55.210  1.00  0.00     0.108 A 
HETATM   16  C   UNL     1     -42.600  56.855 -56.525  1.00  0.00    -0.021 A 
HETATM   17  C   UNL     1     -42.439  58.716 -54.973  1.00  0.00     0.102 A 
HETATM   18  C   UNL     1     -42.727  55.377 -56.803  1.00  0.00     0.048 C 
HETATM   19  C   UNL     1     -42.423  57.749 -57.590  1.00  0.00     0.010 A 
HETATM   20  C   UNL     1     -42.235  59.112 -57.343  1.00  0.00     0.003 A 
HETATM   21  C   UNL     1     -42.222  59.593 -56.035  1.00  0.00     0.039 A 
BRANCH  17  22
HETATM   22  O   UNL     1     -42.369  59.205 -53.695  1.00  0.00    -0.353 OA
HETATM   23  C   UNL     1     -41.004  59.298 -53.279  1.00  0.00     0.210 C 
ENDBRANCH  17  22
ENDBRANCH  11  12
ENDBRANCH   3  11
BRANCH   1  24
HETATM   24  N   UNL     1     -40.129  53.357 -50.561  1.00  0.00    -0.281 NA
HETATM   25  C   UNL     1     -40.546  54.712 -50.229  1.00  0.00     0.114 C 
HETATM   26  H   UNL     1     -39.250  53.110 -50.115  1.00  0.00     0.128 HD
ENDBRANCH   1  24
TORSDOF 4
ENDMDL
MODEL 3
REMARK VINA RESULT:      -7.9      1.192      2.558
REMARK  4 active torsions:
REMARK  status: ('A' for Active; 'I' for Inactive)
REMARK    1  A    between atoms: N_2  and  C_3 
REMARK    2  A    between atoms: C_5  and  C_6 
REMARK    3  A    between atoms: C_6  and  C_7 
REMARK    4  A    between atoms: C_13  and  O_14 
ROOT
HETATM    1  C   UNL     1     -40.178  52.359 -53.177  1.00  0.00     0.113 A 
HETATM    2  N   UNL     1     -40.500  53.008 -54.315  1.00  0.00    -0.223 NA
HETATM    3  C   UNL     1     -40.948  54.288 -54.229  1.00  0.00     0.106 A 
HETATM    4  N   UNL     1     -41.092  54.943 -53.064  1.00  0.00    -0.347 N 
HETATM    5  H   UNL     1     -41.481  55.891 -53.054  1.00  0.00     0.167 HD
HETATM    6  C   UNL     1     -40.775  54.306 -51.941  1.00  0.00     0.020 A 
HETATM    7  C   UNL     1     -40.305  53.004 -51.967  1.00  0.00     0.005 A 
HETATM    8  C   UNL     1     -40.048  52.513 -50.579  1.00  0.00     0.044 C 
HETATM    9  C   UNL     1     -40.029  53.834 -49.787  1.00  0.00     0.011 C 
HETATM   10  C   UNL     1     -40.918  54.830 -50.549  1.00  0.00     0.058 C 
ENDROOT
BRANCH   3  11
HETATM   11  C   UNL     1     -41.335  54.993 -55.496  1.00  0.00     0.085 C 
BRANCH  11  12
HETATM   12  C   UNL     1     -42.861  55.212 -55.675  1.00  0.00     0.021 C 
HETATM   13  C   UNL     1     -43.338  56.615 -55.301  1.00  0.00     0.181 C 
HETATM   14  O   UNL     1     -42.499  57.589 -55.936  1.00  0.00    -0.347 OA
HETATM   15  C   UNL     1     -42.475  57.445 -57.308  1.00  0.00     0.108 A 
HETATM   16  C   UNL     1     -42.818  56.240 -57.947  1.00  0.00    -0.021 A 
HETATM   17  C   UNL     1     -42.007  58.525 -58.061  1.00  0.00     0.102 A 
HETATM   18  C   UNL     1     -43.241  55.029 -57.152  1.00  0.00     0.048 C 
HETATM   19  C   UNL     1     -42.748  56.163 -59.345  1.00  0.00     0.010 A 
HETATM   20  C   UNL     1     -42.291  57.253 -60.089  1.00  0.00     0.003 A 
HETATM   21  C   UNL     1     -41.901  58.428 -59.447  1.00  0.00     0.039 A 
BRANCH  17  22
HETATM   22  O   UNL     1     -41.567  59.670 -57.450  1.00  0.00    -0.353 OA
HETATM   23  C   UNL     1     -41.543  60.750 -58.387  1.00  0.00     0.210 C 
ENDBRANCH  17  22
ENDBRANCH  11  12
ENDBRANCH   3  11
BRANCH   1  24
HETATM   24  N   UNL     1     -39.642  51.077 -53.224  1.00  0.00    -0.281 NA
HETATM   25  C   UNL     1     -40.100  50.223 -54.310  1.00  0.00     0.114 C 
HETATM   26  H   UNL     1     -39.691  50.607 -52.324  1.00  0.00     0.128 HD
ENDBRANCH   1  24
TORSDOF 4
ENDMDL
MODEL 4
REMARK VINA RESULT:      -7.7      3.203      4.595
REMARK  4 active torsions:
REMARK  status: ('A' for Active; 'I' for Inactive)
REMARK    1  A    between atoms: N_2  and  C_3 
REMARK    2  A    between atoms: C_5  and  C_6 
REMARK    3  A    between atoms: C_6  and  C_7 
REMARK    4  A    between atoms: C_13  and  O_14 
ROOT
HETATM    1  C   UNL     1     -40.640  53.526 -51.071  1.00  0.00     0.113 A 
HETATM    2  N   UNL     1     -41.481  54.543 -51.352  1.00  0.00    -0.223 NA
HETATM    3  C   UNL     1     -41.926  54.686 -52.628  1.00  0.00     0.106 A 
HETATM    4  N   UNL     1     -41.566  53.866 -53.631  1.00  0.00    -0.347 N 
HETATM    5  H   UNL     1     -41.892  54.051 -54.585  1.00  0.00     0.167 HD
HETATM    6  C   UNL     1     -40.737  52.864 -53.358  1.00  0.00     0.020 A 
HETATM    7  C   UNL     1     -40.258  52.663 -52.074  1.00  0.00     0.005 A 
HETATM    8  C   UNL     1     -39.330  51.492 -52.040  1.00  0.00     0.044 C 
HETATM    9  C   UNL     1     -39.667  50.796 -53.372  1.00  0.00     0.011 C 
HETATM   10  C   UNL     1     -40.172  51.885 -54.334  1.00  0.00     0.058 C 
ENDROOT
BRANCH   3  11
HETATM   11  C   UNL     1     -42.836  55.838 -52.939  1.00  0.00     0.085 C 
BRANCH  11  12
HETATM   12  C   UNL     1     -42.262  56.859 -53.958  1.00  0.00     0.021 C 
HETATM   13  C   UNL     1     -43.153  58.081 -54.185  1.00  0.00     0.181 C 
HETATM   14  O   UNL     1     -43.541  58.629 -52.919  1.00  0.00    -0.347 OA
HETATM   15  C   UNL     1     -42.455  58.970 -52.139  1.00  0.00     0.108 A 
HETATM   16  C   UNL     1     -41.178  58.418 -52.341  1.00  0.00    -0.021 A 
HETATM   17  C   UNL     1     -42.681  59.834 -51.064  1.00  0.00     0.102 A 
HETATM   18  C   UNL     1     -40.928  57.414 -53.440  1.00  0.00     0.048 C 
HETATM   19  C   UNL     1     -40.127  58.797 -51.495  1.00  0.00     0.010 A 
HETATM   20  C   UNL     1     -40.360  59.671 -50.430  1.00  0.00     0.003 A 
HETATM   21  C   UNL     1     -41.640  60.175 -50.202  1.00  0.00     0.039 A 
BRANCH  17  22
HETATM   22  O   UNL     1     -43.939  60.299 -50.787  1.00  0.00    -0.353 OA
HETATM   23  C   UNL     1     -43.877  61.318 -49.785  1.00  0.00     0.210 C 
ENDBRANCH  17  22
ENDBRANCH  11  12
ENDBRANCH   3  11
BRANCH   1  24
HETATM   24  N   UNL     1     -40.223  53.295 -49.765  1.00  0.00    -0.281 NA
HETATM   25  C   UNL     1     -40.708  54.226 -48.757  1.00  0.00     0.114 C 
HETATM   26  H   UNL     1     -39.219  53.155 -49.701  1.00  0.00     0.128 HD
ENDBRANCH   1  24
TORSDOF 4
ENDMDL
MODEL 5
REMARK VINA RESULT:      -7.7      3.289      7.573
REMARK  4 active torsions:
REMARK  status: ('A' for Active; 'I' for Inactive)
REMARK    1  A    between atoms: N_2  and  C_3 
REMARK    2  A    between atoms: C_5  and  C_6 
REMARK    3  A    between atoms: C_6  and  C_7 
REMARK    4  A    between atoms: C_13  and  O_14 
ROOT
HETATM    1  C   UNL     1     -43.162  56.111 -59.180  1.00  0.00     0.113 A 
HETATM    2  N   UNL     1     -43.285  55.414 -58.032  1.00  0.00    -0.223 NA
HETATM    3  C   UNL     1     -42.917  56.010 -56.868  1.00  0.00     0.106 A 
HETATM    4  N   UNL     1     -42.431  57.262 -56.800  1.00  0.00    -0.347 N 
HETATM    5  H   UNL     1     -42.123  57.643 -55.900  1.00  0.00     0.167 HD
HETATM    6  C   UNL     1     -42.309  57.951 -57.930  1.00  0.00     0.020 A 
HETATM    7  C   UNL     1     -42.675  57.399 -59.146  1.00  0.00     0.005 A 
HETATM    8  C   UNL     1     -42.417  58.365 -60.257  1.00  0.00     0.044 C 
HETATM    9  C   UNL     1     -42.253  59.685 -59.482  1.00  0.00     0.011 C 
HETATM   10  C   UNL     1     -41.738  59.324 -58.079  1.00  0.00     0.058 C 
ENDROOT
BRANCH   3  11
HETATM   11  C   UNL     1     -43.026  55.218 -55.598  1.00  0.00     0.085 C 
BRANCH  11  12
HETATM   12  C   UNL     1     -41.784  54.347 -55.269  1.00  0.00     0.021 C 
HETATM   13  C   UNL     1     -40.519  55.152 -54.969  1.00  0.00     0.181 C 
HETATM   14  O   UNL     1     -40.822  56.176 -54.012  1.00  0.00    -0.347 OA
HETATM   15  C   UNL     1     -41.348  55.663 -52.844  1.00  0.00     0.108 A 
HETATM   16  C   UNL     1     -41.953  54.394 -52.781  1.00  0.00    -0.021 A 
HETATM   17  C   UNL     1     -41.342  56.490 -51.718  1.00  0.00     0.102 A 
HETATM   18  C   UNL     1     -42.052  53.517 -54.005  1.00  0.00     0.048 C 
HETATM   19  C   UNL     1     -42.484  53.950 -51.563  1.00  0.00     0.010 A 
HETATM   20  C   UNL     1     -42.462  54.779 -50.439  1.00  0.00     0.003 A 
HETATM   21  C   UNL     1     -41.910  56.056 -50.520  1.00  0.00     0.039 A 
BRANCH  17  22
HETATM   22  O   UNL     1     -40.854  57.768 -51.786  1.00  0.00    -0.353 OA
HETATM   23  C   UNL     1     -41.066  58.443 -50.543  1.00  0.00     0.210 C 
ENDBRANCH  17  22
ENDBRANCH  11  12
ENDBRANCH   3  11
BRANCH   1  24
HETATM   24  N   UNL     1     -43.600  55.570 -60.384  1.00  0.00    -0.281 NA
HETATM   25  C   UNL     1     -44.899  54.915 -60.364  1.00  0.00     0.114 C 
HETATM   26  H   UNL     1     -42.890  54.993 -60.827  1.00  0.00     0.128 HD
ENDBRANCH   1  24
TORSDOF 4
ENDMDL
MODEL 6
REMARK VINA RESULT:      -7.6      3.302      7.519
REMARK  4 active torsions:
REMARK  status: ('A' for Active; 'I' for Inactive)
REMARK    1  A    between atoms: N_2  and  C_3 
REMARK    2  A    between atoms: C_5  and  C_6 
REMARK    3  A    between atoms: C_6  and  C_7 
REMARK    4  A    between atoms: C_13  and  O_14 
ROOT
HETATM    1  C   UNL     1     -45.013  58.343 -54.599  1.00  0.00     0.113 A 
HETATM    2  N   UNL     1     -44.376  57.254 -55.076  1.00  0.00    -0.223 NA
HETATM    3  C   UNL     1     -43.854  56.366 -54.190  1.00  0.00     0.106 A 
HETATM    4  N   UNL     1     -43.935  56.519 -52.857  1.00  0.00    -0.347 N 
HETATM    5  H   UNL     1     -43.480  55.843 -52.236  1.00  0.00     0.167 HD
HETATM    6  C   UNL     1     -44.562  57.591 -52.384  1.00  0.00     0.020 A 
HETATM    7  C   UNL     1     -45.122  58.526 -53.238  1.00  0.00     0.005 A 
HETATM    8  C   UNL     1     -45.742  59.640 -52.459  1.00  0.00     0.044 C 
HETATM    9  C   UNL     1     -45.837  59.015 -51.055  1.00  0.00     0.011 C 
HETATM   10  C   UNL     1     -44.709  57.974 -50.948  1.00  0.00     0.058 C 
ENDROOT
BRANCH   3  11
HETATM   11  C   UNL     1     -43.118  55.173 -54.729  1.00  0.00     0.085 C 
BRANCH  11  12
HETATM   12  C   UNL     1     -41.659  55.460 -55.174  1.00  0.00     0.021 C 
HETATM   13  C   UNL     1     -40.830  56.225 -54.141  1.00  0.00     0.181 C 
HETATM   14  O   UNL     1     -40.970  55.599 -52.859  1.00  0.00    -0.347 OA
HETATM   15  C   UNL     1     -40.595  54.271 -52.880  1.00  0.00     0.108 A 
HETATM   16  C   UNL     1     -40.552  53.517 -54.067  1.00  0.00    -0.021 A 
HETATM   17  C   UNL     1     -40.335  53.656 -51.653  1.00  0.00     0.102 A 
HETATM   18  C   UNL     1     -40.915  54.134 -55.396  1.00  0.00     0.048 C 
HETATM   19  C   UNL     1     -40.182  52.167 -54.007  1.00  0.00     0.010 A 
HETATM   20  C   UNL     1     -39.912  51.564 -52.776  1.00  0.00     0.003 A 
HETATM   21  C   UNL     1     -40.007  52.302 -51.597  1.00  0.00     0.039 A 
BRANCH  17  22
HETATM   22  O   UNL     1     -40.474  54.345 -50.477  1.00  0.00    -0.353 OA
HETATM   23  C   UNL     1     -40.261  53.471 -49.366  1.00  0.00     0.210 C 
ENDBRANCH  17  22
ENDBRANCH  11  12
ENDBRANCH   3  11
BRANCH   1  24
HETATM   24  N   UNL     1     -45.630  59.236 -55.468  1.00  0.00    -0.281 NA
HETATM   25  C   UNL     1     -45.320  59.083 -56.881  1.00  0.00     0.114 C 
HETATM   26  H   UNL     1     -45.536  60.200 -55.160  1.00  0.00     0.128 HD
ENDBRANCH   1  24
TORSDOF 4
ENDMDL
MODEL 7
REMARK VINA RESULT:      -7.5      2.907      4.032
REMARK  4 active torsions:
REMARK  status: ('A' for Active; 'I' for Inactive)
REMARK    1  A    between atoms: N_2  and  C_3 
REMARK    2  A    between atoms: C_5  and  C_6 
REMARK    3  A    between atoms: C_6  and  C_7 
REMARK    4  A    between atoms: C_13  and  O_14 
ROOT
HETATM    1  C   UNL     1     -40.576  53.920 -50.785  1.00  0.00     0.113 A 
HETATM    2  N   UNL     1     -41.125  55.152 -50.780  1.00  0.00    -0.223 NA
HETATM    3  C   UNL     1     -41.413  55.741 -51.970  1.00  0.00     0.106 A 
HETATM    4  N   UNL     1     -41.174  55.159 -53.158  1.00  0.00    -0.347 N 
HETATM    5  H   UNL     1     -41.365  55.670 -54.026  1.00  0.00     0.167 HD
HETATM    6  C   UNL     1     -40.633  53.945 -53.167  1.00  0.00     0.020 A 
HETATM    7  C   UNL     1     -40.326  53.292 -51.985  1.00  0.00     0.005 A 
HETATM    8  C   UNL     1     -39.709  51.960 -52.270  1.00  0.00     0.044 C 
HETATM    9  C   UNL     1     -40.088  51.758 -53.749  1.00  0.00     0.011 C 
HETATM   10  C   UNL     1     -40.236  53.156 -54.372  1.00  0.00     0.058 C 
ENDROOT
BRANCH   3  11
HETATM   11  C   UNL     1     -41.993  57.125 -51.957  1.00  0.00     0.085 C 
BRANCH  11  12
HETATM   12  C   UNL     1     -40.998  58.240 -51.539  1.00  0.00     0.021 C 
HETATM   13  C   UNL     1     -40.021  58.649 -52.642  1.00  0.00     0.181 C 
HETATM   14  O   UNL     1     -40.745  58.895 -53.854  1.00  0.00    -0.347 OA
HETATM   15  C   UNL     1     -41.717  59.862 -53.697  1.00  0.00     0.108 A 
HETATM   16  C   UNL     1     -42.249  60.201 -52.440  1.00  0.00    -0.021 A 
HETATM   17  C   UNL     1     -42.234  60.448 -54.856  1.00  0.00     0.102 A 
HETATM   18  C   UNL     1     -41.772  59.518 -51.182  1.00  0.00     0.048 C 
HETATM   19  C   UNL     1     -43.250  61.178 -52.363  1.00  0.00     0.010 A 
HETATM   20  C   UNL     1     -43.752  61.769 -53.525  1.00  0.00     0.003 A 
HETATM   21  C   UNL     1     -43.258  61.390 -54.773  1.00  0.00     0.039 A 
BRANCH  17  22
HETATM   22  O   UNL     1     -41.804  60.055 -56.095  1.00  0.00    -0.353 OA
HETATM   23  C   UNL     1     -42.807  59.259 -56.734  1.00  0.00     0.210 C 
ENDBRANCH  17  22
ENDBRANCH  11  12
ENDBRANCH   3  11
BRANCH   1  24
HETATM   24  N   UNL     1     -40.338  53.248 -49.592  1.00  0.00    -0.281 NA
HETATM   25  C   UNL     1     -40.349  54.056 -48.381  1.00  0.00     0.114 C 
HETATM   26  H   UNL     1     -39.517  52.651 -49.643  1.00  0.00     0.128 HD
ENDBRANCH   1  24
TORSDOF 4
ENDMDL
MODEL 8
REMARK VINA RESULT:      -7.4      1.880      2.267
REMARK  4 active torsions:
REMARK  status: ('A' for Active; 'I' for Inactive)
REMARK    1  A    between atoms: N_2  and  C_3 
REMARK    2  A    between atoms: C_5  and  C_6 
REMARK    3  A    between atoms: C_6  and  C_7 
REMARK    4  A    between atoms: C_13  and  O_14 
ROOT
HETATM    1  C   UNL     1     -40.247  52.999 -51.293  1.00  0.00     0.113 A 
HETATM    2  N   UNL     1     -40.619  54.199 -51.784  1.00  0.00    -0.223 NA
HETATM    3  C   UNL     1     -40.724  54.347 -53.130  1.00  0.00     0.106 A 
HETATM    4  N   UNL     1     -40.469  53.357 -54.004  1.00  0.00    -0.347 N 
HETATM    5  H   UNL     1     -40.516  53.539 -55.011  1.00  0.00     0.167 HD
HETATM    6  C   UNL     1     -40.102  52.173 -53.524  1.00  0.00     0.020 A 
HETATM    7  C   UNL     1     -39.988  51.960 -52.160  1.00  0.00     0.005 A 
HETATM    8  C   UNL     1     -39.539  50.561 -51.886  1.00  0.00     0.044 C 
HETATM    9  C   UNL     1     -39.818  49.880 -53.239  1.00  0.00     0.011 C 
HETATM   10  C   UNL     1     -39.719  50.969 -54.321  1.00  0.00     0.058 C 
ENDROOT
BRANCH   3  11
HETATM   11  C   UNL     1     -41.107  55.694 -53.670  1.00  0.00     0.085 C 
BRANCH  11  12
HETATM   12  C   UNL     1     -41.672  56.679 -52.612  1.00  0.00     0.021 C 
HETATM   13  C   UNL     1     -41.088  58.089 -52.696  1.00  0.00     0.181 C 
HETATM   14  O   UNL     1     -41.144  58.547 -54.053  1.00  0.00    -0.347 OA
HETATM   15  C   UNL     1     -42.427  58.533 -54.560  1.00  0.00     0.108 A 
HETATM   16  C   UNL     1     -43.447  57.736 -54.010  1.00  0.00    -0.021 A 
HETATM   17  C   UNL     1     -42.672  59.284 -55.713  1.00  0.00     0.102 A 
HETATM   18  C   UNL     1     -43.185  56.848 -52.818  1.00  0.00     0.048 C 
HETATM   19  C   UNL     1     -44.721  57.758 -54.592  1.00  0.00     0.010 A 
HETATM   20  C   UNL     1     -44.960  58.521 -55.738  1.00  0.00     0.003 A 
HETATM   21  C   UNL     1     -43.932  59.269 -56.310  1.00  0.00     0.039 A 
BRANCH  17  22
HETATM   22  O   UNL     1     -41.665  59.983 -56.325  1.00  0.00    -0.353 OA
HETATM   23  C   UNL     1     -41.790  59.883 -57.746  1.00  0.00     0.210 C 
ENDBRANCH  17  22
ENDBRANCH  11  12
ENDBRANCH   3  11
BRANCH   1  24
HETATM   24  N   UNL     1     -40.204  52.779 -49.921  1.00  0.00    -0.281 NA
HETATM   25  C   UNL     1     -40.356  53.953 -49.074  1.00  0.00     0.114 C 
HETATM   26  H   UNL     1     -39.407  52.213 -49.647  1.00  0.00     0.128 HD
ENDBRANCH   1  24
TORSDOF 4
ENDMDL
MODEL 9
REMARK VINA RESULT:      -7.4      1.997      3.734
REMARK  4 active torsions:
REMARK  status: ('A' for Active; 'I' for Inactive)
REMARK    1  A    between atoms: N_2  and  C_3 
REMARK    2  A    between atoms: C_5  and  C_6 
REMARK    3  A    between atoms: C_6  and  C_7 
REMARK    4  A    between atoms: C_13  and  O_14 
ROOT
HETATM    1  C   UNL     1     -40.154  52.419 -52.794  1.00  0.00     0.113 A 
HETATM    2  N   UNL     1     -40.373  53.159 -53.900  1.00  0.00    -0.223 NA
HETATM    3  C   UNL     1     -40.792  54.443 -53.751  1.00  0.00     0.106 A 
HETATM    4  N   UNL     1     -41.007  55.015 -52.553  1.00  0.00    -0.347 N 
HETATM    5  H   UNL     1     -41.371  55.971 -52.501  1.00  0.00     0.167 HD
HETATM    6  C   UNL     1     -40.792  54.288 -51.462  1.00  0.00     0.020 A 
HETATM    7  C   UNL     1     -40.355  52.977 -51.551  1.00  0.00     0.005 A 
HETATM    8  C   UNL     1     -40.215  52.379 -50.189  1.00  0.00     0.044 C 
HETATM    9  C   UNL     1     -40.221  53.637 -49.301  1.00  0.00     0.011 C 
HETATM   10  C   UNL     1     -41.025  54.713 -50.049  1.00  0.00     0.058 C 
ENDROOT
BRANCH   3  11
HETATM   11  C   UNL     1     -41.065  55.250 -54.987  1.00  0.00     0.085 C 
BRANCH  11  12
HETATM   12  C   UNL     1     -42.335  54.824 -55.771  1.00  0.00     0.021 C 
HETATM   13  C   UNL     1     -43.533  54.487 -54.883  1.00  0.00     0.181 C 
HETATM   14  O   UNL     1     -43.726  55.536 -53.925  1.00  0.00    -0.347 OA
HETATM   15  C   UNL     1     -43.908  56.766 -54.524  1.00  0.00     0.108 A 
HETATM   16  C   UNL     1     -43.483  57.037 -55.837  1.00  0.00    -0.021 A 
HETATM   17  C   UNL     1     -44.462  57.785 -53.744  1.00  0.00     0.102 A 
HETATM   18  C   UNL     1     -42.801  55.979 -56.669  1.00  0.00     0.048 C 
HETATM   19  C   UNL     1     -43.683  58.318 -56.369  1.00  0.00     0.010 A 
HETATM   20  C   UNL     1     -44.249  59.327 -55.586  1.00  0.00     0.003 A 
HETATM   21  C   UNL     1     -44.620  59.067 -54.267  1.00  0.00     0.039 A 
BRANCH  17  22
HETATM   22  O   UNL     1     -44.784  57.570 -52.430  1.00  0.00    -0.353 OA
HETATM   23  C   UNL     1     -45.156  58.802 -51.807  1.00  0.00     0.210 C 
ENDBRANCH  17  22
ENDBRANCH  11  12
ENDBRANCH   3  11
BRANCH   1  24
HETATM   24  N   UNL     1     -39.648  51.128 -52.898  1.00  0.00    -0.281 NA
HETATM   25  C   UNL     1     -39.818  50.468 -54.184  1.00  0.00     0.114 C 
HETATM   26  H   UNL     1     -39.943  50.536 -52.126  1.00  0.00     0.128 HD
ENDBRANCH   1  24
TORSDOF 4
ENDMDL
MODEL 10
REMARK VINA RESULT:      -7.3      3.647      5.303
REMARK  4 active torsions:
REMARK  status: ('A' for Active; 'I' for Inactive)
REMARK    1  A    between atoms: N_2  and  C_3 
REMARK    2  A    between atoms: C_5  and  C_6 
REMARK    3  A    between atoms: C_6  and  C_7 
REMARK    4  A    between atoms: C_13  and  O_14 
ROOT
HETATM    1  C   UNL     1     -41.157  54.732 -54.217  1.00  0.00     0.113 A 
HETATM    2  N   UNL     1     -41.490  55.841 -53.525  1.00  0.00    -0.223 NA
HETATM    3  C   UNL     1     -41.360  55.827 -52.173  1.00  0.00     0.106 A 
HETATM    4  N   UNL     1     -40.921  54.759 -51.484  1.00  0.00    -0.347 N 
HETATM    5  H   UNL     1     -40.891  54.787 -50.460  1.00  0.00     0.167 HD
HETATM    6  C   UNL     1     -40.593  53.664 -52.163  1.00  0.00     0.020 A 
HETATM    7  C   UNL     1     -40.695  53.622 -53.543  1.00  0.00     0.005 A 
HETATM    8  C   UNL     1     -40.292  52.278 -54.057  1.00  0.00     0.044 C 
HETATM    9  C   UNL     1     -39.547  51.698 -52.840  1.00  0.00     0.011 C 
HETATM   10  C   UNL     1     -40.144  52.361 -51.587  1.00  0.00     0.058 C 
ENDROOT
BRANCH   3  11
HETATM   11  C   UNL     1     -41.763  57.053 -51.407  1.00  0.00     0.085 C 
BRANCH  11  12
HETATM   12  C   UNL     1     -40.608  58.054 -51.133  1.00  0.00     0.021 C 
HETATM   13  C   UNL     1     -40.104  58.782 -52.380  1.00  0.00     0.181 C 
HETATM   14  O   UNL     1     -41.221  59.316 -53.103  1.00  0.00    -0.347 OA
HETATM   15  C   UNL     1     -41.987  60.166 -52.333  1.00  0.00     0.108 A 
HETATM   16  C   UNL     1     -41.969  60.134 -50.927  1.00  0.00    -0.021 A 
HETATM   17  C   UNL     1     -42.867  61.022 -53.001  1.00  0.00     0.102 A 
HETATM   18  C   UNL     1     -41.093  59.157 -50.181  1.00  0.00     0.048 C 
HETATM   19  C   UNL     1     -42.792  61.014 -50.213  1.00  0.00     0.010 A 
HETATM   20  C   UNL     1     -43.660  61.876 -50.889  1.00  0.00     0.003 A 
HETATM   21  C   UNL     1     -43.713  61.866 -52.282  1.00  0.00     0.039 A 
BRANCH  17  22
HETATM   22  O   UNL     1     -42.977  60.993 -54.366  1.00  0.00    -0.353 OA
HETATM   23  C   UNL     1     -44.322  60.690 -54.746  1.00  0.00     0.210 C 
ENDBRANCH  17  22
ENDBRANCH  11  12
ENDBRANCH   3  11
BRANCH   1  24
HETATM   24  N   UNL     1     -41.198  54.727 -55.607  1.00  0.00    -0.281 NA
HETATM   25  C   UNL     1     -42.484  55.033 -56.216  1.00  0.00     0.114 C 
HETATM   26  H   UNL     1     -40.780  53.890 -56.002  1.00  0.00     0.128 HD
ENDBRANCH   1  24
TORSDOF 4
ENDMDL
