MODEL 1
REMARK VINA RESULT:      -8.1      0.000      0.000
REMARK  9 active torsions:
REMARK  status: ('A' for Active; 'I' for Inactive)
REMARK    1  A    between atoms: O_2  and  C_3 
REMARK    2  A    between atoms: C_3  and  C_4 
REMARK    3  A    between atoms: C_4  and  O_5 
REMARK    4  A    between atoms: O_5  and  C_6 
REMARK       I    between atoms: C_6  and  N_8 
REMARK    5  A    between atoms: N_15  and  C_28 
REMARK    6  A    between atoms: N_18  and  C_19 
REMARK    7  A    between atoms: C_19  and  C_20 
REMARK    8  A    between atoms: C_24  and  O_25 
REMARK    9  A    between atoms: C_31  and  C_34 
ROOT
HETATM    1  C   UNL     1     -46.023  61.876 -51.773  1.00  0.00     0.362 C 
HETATM    2  O   UNL     1     -46.735  62.375 -52.637  1.00  0.00    -0.238 OA
HETATM    3  N   UNL     1     -45.442  60.606 -51.880  1.00  0.00    -0.328 N 
HETATM    4  C   UNL     1     -44.346  60.255 -50.983  1.00  0.00     0.130 C 
HETATM    5  C   UNL     1     -43.875  58.812 -51.101  1.00  0.00     0.053 C 
HETATM    6  C   UNL     1     -43.664  58.339 -52.553  1.00  0.00     0.057 C 
HETATM    7  C   UNL     1     -44.930  58.638 -53.367  1.00  0.00     0.053 C 
HETATM    8  C   UNL     1     -45.453  60.057 -53.228  1.00  0.00     0.130 C 
HETATM    9  C   UNL     1     -43.436  56.799 -52.542  1.00  0.00     0.165 C 
HETATM   10  N   UNL     1     -42.019  56.599 -52.763  1.00  0.00    -0.297 N 
HETATM   11  C   UNL     1     -41.410  57.812 -53.123  1.00  0.00     0.326 C 
HETATM   12  O   UNL     1     -40.244  58.013 -53.432  1.00  0.00    -0.247 OA
HETATM   13  N   UNL     1     -42.394  58.811 -53.124  1.00  0.00    -0.318 N 
ENDROOT
BRANCH  13  14
HETATM   14  C   UNL     1     -42.081  60.149 -53.615  1.00  0.00     0.167 C 
BRANCH  14  15
HETATM   15  C   UNL     1     -42.367  60.358 -55.088  1.00  0.00    -0.037 A 
HETATM   16  C   UNL     1     -42.974  61.529 -55.561  1.00  0.00     0.009 A 
HETATM   17  C   UNL     1     -43.263  61.679 -56.917  1.00  0.00     0.003 A 
HETATM   18  C   UNL     1     -42.948  60.661 -57.815  1.00  0.00     0.037 A 
HETATM   19  C   UNL     1     -42.353  59.483 -57.367  1.00  0.00     0.068 A 
HETATM   20  C   UNL     1     -42.093  59.324 -56.004  1.00  0.00     0.045 A 
BRANCH  19  21
HETATM   21  O   UNL     1     -42.089  58.561 -58.341  1.00  0.00    -0.356 OA
HETATM   22  C   UNL     1     -42.718  57.291 -58.205  1.00  0.00     0.210 C 
ENDBRANCH  19  21
ENDBRANCH  14  15
ENDBRANCH  13  14
BRANCH  10  23
HETATM   23  C   UNL     1     -41.442  55.301 -52.877  1.00  0.00     0.039 A 
HETATM   24  C   UNL     1     -41.286  54.665 -54.114  1.00  0.00     0.030 A 
HETATM   25  C   UNL     1     -40.803  53.351 -54.207  1.00  0.00     0.014 A 
HETATM   26  C   UNL     1     -40.445  52.638 -53.062  1.00  0.00    -0.023 A 
HETATM   27  C   UNL     1     -40.551  53.278 -51.824  1.00  0.00     0.014 A 
HETATM   28  C   UNL     1     -41.046  54.589 -51.735  1.00  0.00     0.030 A 
BRANCH  26  29
HETATM   29  C   UNL     1     -39.987  51.264 -53.146  1.00  0.00     0.010 A 
HETATM   30  C   UNL     1     -39.763  50.425 -54.261  1.00  0.00     0.152 A 
HETATM   31  N   UNL     1     -39.299  49.220 -53.916  1.00  0.00    -0.187 NA
HETATM   32  N   UNL     1     -39.222  49.285 -52.578  1.00  0.00    -0.289 N 
HETATM   33  H   UNL     1     -38.881  48.473 -52.075  1.00  0.00     0.188 HD
HETATM   34  C   UNL     1     -39.618  50.487 -52.067  1.00  0.00     0.123 A 
ENDBRANCH  26  29
ENDBRANCH  10  23
BRANCH   1  35
HETATM   35  O   UNL     1     -45.648  62.531 -50.640  1.00  0.00    -0.302 OA
BRANCH  35  36
HETATM   36  C   UNL     1     -46.699  62.771 -49.693  1.00  0.00     0.207 C 
BRANCH  36  37
HETATM   37  C   UNL     1     -46.297  62.391 -48.273  1.00  0.00     0.193 C 
BRANCH  37  38
HETATM   38  O   UNL     1     -46.266  60.966 -48.175  1.00  0.00    -0.394 OA
HETATM   39  C   UNL     1     -45.861  60.534 -46.884  1.00  0.00     0.201 C 
ENDBRANCH  37  38
ENDBRANCH  36  37
ENDBRANCH  35  36
ENDBRANCH   1  35
TORSDOF 9
ENDMDL
MODEL 2
REMARK VINA RESULT:      -7.8      3.202      9.724
REMARK  9 active torsions:
REMARK  status: ('A' for Active; 'I' for Inactive)
REMARK    1  A    between atoms: O_2  and  C_3 
REMARK    2  A    between atoms: C_3  and  C_4 
REMARK    3  A    between atoms: C_4  and  O_5 
REMARK    4  A    between atoms: O_5  and  C_6 
REMARK       I    between atoms: C_6  and  N_8 
REMARK    5  A    between atoms: N_15  and  C_28 
REMARK    6  A    between atoms: N_18  and  C_19 
REMARK    7  A    between atoms: C_19  and  C_20 
REMARK    8  A    between atoms: C_24  and  O_25 
REMARK    9  A    between atoms: C_31  and  C_34 
ROOT
HETATM    1  C   UNL     1     -42.830  56.871 -56.607  1.00  0.00     0.362 C 
HETATM    2  O   UNL     1     -42.940  55.653 -56.687  1.00  0.00    -0.238 OA
HETATM    3  N   UNL     1     -43.352  57.632 -55.553  1.00  0.00    -0.328 N 
HETATM    4  C   UNL     1     -42.872  58.997 -55.366  1.00  0.00     0.130 C 
HETATM    5  C   UNL     1     -43.593  59.772 -54.271  1.00  0.00     0.053 C 
HETATM    6  C   UNL     1     -43.762  58.988 -52.956  1.00  0.00     0.057 C 
HETATM    7  C   UNL     1     -44.397  57.625 -53.261  1.00  0.00     0.053 C 
HETATM    8  C   UNL     1     -43.730  56.851 -54.384  1.00  0.00     0.130 C 
HETATM    9  C   UNL     1     -44.723  59.784 -52.026  1.00  0.00     0.165 C 
HETATM   10  N   UNL     1     -43.890  60.396 -51.012  1.00  0.00    -0.297 N 
HETATM   11  C   UNL     1     -42.583  59.888 -51.089  1.00  0.00     0.326 C 
HETATM   12  O   UNL     1     -41.630  60.135 -50.364  1.00  0.00    -0.247 OA
HETATM   13  N   UNL     1     -42.534  58.968 -52.146  1.00  0.00    -0.318 N 
ENDROOT
BRANCH  13  14
HETATM   14  C   UNL     1     -41.338  58.162 -52.363  1.00  0.00     0.167 C 
BRANCH  14  15
HETATM   15  C   UNL     1     -41.341  56.830 -51.640  1.00  0.00    -0.037 A 
HETATM   16  C   UNL     1     -41.382  56.752 -50.242  1.00  0.00     0.009 A 
HETATM   17  C   UNL     1     -41.343  55.515 -49.600  1.00  0.00     0.003 A 
HETATM   18  C   UNL     1     -41.261  54.342 -50.349  1.00  0.00     0.037 A 
HETATM   19  C   UNL     1     -41.209  54.395 -51.740  1.00  0.00     0.068 A 
HETATM   20  C   UNL     1     -41.218  55.637 -52.378  1.00  0.00     0.045 A 
BRANCH  19  21
HETATM   21  O   UNL     1     -41.135  53.180 -52.363  1.00  0.00    -0.356 OA
HETATM   22  C   UNL     1     -40.783  53.191 -53.743  1.00  0.00     0.210 C 
ENDBRANCH  19  21
ENDBRANCH  14  15
ENDBRANCH  13  14
BRANCH  10  23
HETATM   23  C   UNL     1     -44.434  61.162 -49.940  1.00  0.00     0.039 A 
HETATM   24  C   UNL     1     -44.088  62.502 -49.735  1.00  0.00     0.030 A 
HETATM   25  C   UNL     1     -44.555  63.219 -48.624  1.00  0.00     0.014 A 
HETATM   26  C   UNL     1     -45.400  62.619 -47.690  1.00  0.00    -0.023 A 
HETATM   27  C   UNL     1     -45.792  61.295 -47.907  1.00  0.00     0.014 A 
HETATM   28  C   UNL     1     -45.311  60.578 -49.014  1.00  0.00     0.030 A 
BRANCH  26  29
HETATM   29  C   UNL     1     -45.853  63.340 -46.515  1.00  0.00     0.010 A 
HETATM   30  C   UNL     1     -47.022  64.098 -46.283  1.00  0.00     0.152 A 
HETATM   31  N   UNL     1     -47.088  64.580 -45.038  1.00  0.00    -0.187 NA
HETATM   32  N   UNL     1     -45.960  64.128 -44.468  1.00  0.00    -0.289 N 
HETATM   33  H   UNL     1     -45.784  64.362 -43.496  1.00  0.00     0.188 HD
HETATM   34  C   UNL     1     -45.188  63.378 -45.307  1.00  0.00     0.123 A 
ENDBRANCH  26  29
ENDBRANCH  10  23
BRANCH   1  35
HETATM   35  O   UNL     1     -42.121  57.620 -57.495  1.00  0.00    -0.302 OA
BRANCH  35  36
HETATM   36  C   UNL     1     -42.791  57.907 -58.731  1.00  0.00     0.207 C 
BRANCH  36  37
HETATM   37  C   UNL     1     -42.009  57.414 -59.942  1.00  0.00     0.193 C 
BRANCH  37  38
HETATM   38  O   UNL     1     -42.483  56.112 -60.290  1.00  0.00    -0.394 OA
HETATM   39  C   UNL     1     -43.897  56.020 -60.189  1.00  0.00     0.201 C 
ENDBRANCH  37  38
ENDBRANCH  36  37
ENDBRANCH  35  36
ENDBRANCH   1  35
TORSDOF 9
ENDMDL
MODEL 3
REMARK VINA RESULT:      -7.7      2.844      4.609
REMARK  9 active torsions:
REMARK  status: ('A' for Active; 'I' for Inactive)
REMARK    1  A    between atoms: O_2  and  C_3 
REMARK    2  A    between atoms: C_3  and  C_4 
REMARK    3  A    between atoms: C_4  and  O_5 
REMARK    4  A    between atoms: O_5  and  C_6 
REMARK       I    between atoms: C_6  and  N_8 
REMARK    5  A    between atoms: N_15  and  C_28 
REMARK    6  A    between atoms: N_18  and  C_19 
REMARK    7  A    between atoms: C_19  and  C_20 
REMARK    8  A    between atoms: C_24  and  O_25 
REMARK    9  A    between atoms: C_31  and  C_34 
ROOT
HETATM    1  C   UNL     1     -44.118  62.328 -55.127  1.00  0.00     0.362 C 
HETATM    2  O   UNL     1     -45.244  62.708 -54.822  1.00  0.00    -0.238 OA
HETATM    3  N   UNL     1     -43.546  61.138 -54.660  1.00  0.00    -0.328 N 
HETATM    4  C   UNL     1     -42.373  60.606 -55.345  1.00  0.00     0.130 C 
HETATM    5  C   UNL     1     -41.760  59.380 -54.681  1.00  0.00     0.053 C 
HETATM    6  C   UNL     1     -42.788  58.303 -54.284  1.00  0.00     0.057 C 
HETATM    7  C   UNL     1     -43.903  58.955 -53.456  1.00  0.00     0.053 C 
HETATM    8  C   UNL     1     -44.498  60.210 -54.069  1.00  0.00     0.130 C 
HETATM    9  C   UNL     1     -42.073  57.240 -53.401  1.00  0.00     0.165 C 
HETATM   10  N   UNL     1     -41.877  56.079 -54.244  1.00  0.00    -0.297 N 
HETATM   11  C   UNL     1     -42.579  56.233 -55.450  1.00  0.00     0.326 C 
HETATM   12  O   UNL     1     -42.686  55.439 -56.372  1.00  0.00    -0.247 OA
HETATM   13  N   UNL     1     -43.218  57.482 -55.425  1.00  0.00    -0.318 N 
ENDROOT
BRANCH  13  14
HETATM   14  C   UNL     1     -44.153  57.849 -56.484  1.00  0.00     0.167 C 
BRANCH  14  15
HETATM   15  C   UNL     1     -43.579  57.762 -57.883  1.00  0.00    -0.037 A 
HETATM   16  C   UNL     1     -42.543  58.605 -58.308  1.00  0.00     0.009 A 
HETATM   17  C   UNL     1     -42.060  58.533 -59.614  1.00  0.00     0.003 A 
HETATM   18  C   UNL     1     -42.608  57.617 -60.511  1.00  0.00     0.037 A 
HETATM   19  C   UNL     1     -43.646  56.775 -60.115  1.00  0.00     0.068 A 
HETATM   20  C   UNL     1     -44.146  56.871 -58.815  1.00  0.00     0.045 A 
BRANCH  19  21
HETATM   21  O   UNL     1     -44.096  55.918 -61.081  1.00  0.00    -0.356 OA
HETATM   22  C   UNL     1     -45.001  54.903 -60.661  1.00  0.00     0.210 C 
ENDBRANCH  19  21
ENDBRANCH  14  15
ENDBRANCH  13  14
BRANCH  10  23
HETATM   23  C   UNL     1     -41.300  54.871 -53.755  1.00  0.00     0.039 A 
HETATM   24  C   UNL     1     -40.710  53.932 -54.608  1.00  0.00     0.030 A 
HETATM   25  C   UNL     1     -40.229  52.705 -54.128  1.00  0.00     0.014 A 
HETATM   26  C   UNL     1     -40.308  52.387 -52.772  1.00  0.00    -0.023 A 
HETATM   27  C   UNL     1     -40.851  53.336 -51.901  1.00  0.00     0.014 A 
HETATM   28  C   UNL     1     -41.343  54.557 -52.388  1.00  0.00     0.030 A 
BRANCH  26  29
HETATM   29  C   UNL     1     -39.853  51.103 -52.273  1.00  0.00     0.010 A 
HETATM   30  C   UNL     1     -39.606  50.651 -50.958  1.00  0.00     0.152 A 
HETATM   31  N   UNL     1     -39.226  49.371 -50.914  1.00  0.00    -0.187 NA
HETATM   32  N   UNL     1     -39.231  48.998 -52.203  1.00  0.00    -0.289 N 
HETATM   33  H   UNL     1     -38.979  48.041 -52.429  1.00  0.00     0.188 HD
HETATM   34  C   UNL     1     -39.602  49.996 -53.057  1.00  0.00     0.123 A 
ENDBRANCH  26  29
ENDBRANCH  10  23
BRANCH   1  35
HETATM   35  O   UNL     1     -43.322  62.981 -56.017  1.00  0.00    -0.302 OA
BRANCH  35  36
HETATM   36  C   UNL     1     -43.915  63.238 -57.298  1.00  0.00     0.207 C 
BRANCH  36  37
HETATM   37  C   UNL     1     -42.900  63.163 -58.432  1.00  0.00     0.193 C 
BRANCH  37  38
HETATM   38  O   UNL     1     -41.605  62.948 -57.869  1.00  0.00    -0.394 OA
HETATM   39  C   UNL     1     -40.835  62.042 -58.646  1.00  0.00     0.201 C 
ENDBRANCH  37  38
ENDBRANCH  36  37
ENDBRANCH  35  36
ENDBRANCH   1  35
TORSDOF 9
ENDMDL
MODEL 4
REMARK VINA RESULT:      -7.5      4.690      8.845
REMARK  9 active torsions:
REMARK  status: ('A' for Active; 'I' for Inactive)
REMARK    1  A    between atoms: O_2  and  C_3 
REMARK    2  A    between atoms: C_3  and  C_4 
REMARK    3  A    between atoms: C_4  and  O_5 
REMARK    4  A    between atoms: O_5  and  C_6 
REMARK       I    between atoms: C_6  and  N_8 
REMARK    5  A    between atoms: N_15  and  C_28 
REMARK    6  A    between atoms: N_18  and  C_19 
REMARK    7  A    between atoms: C_19  and  C_20 
REMARK    8  A    between atoms: C_24  and  O_25 
REMARK    9  A    between atoms: C_31  and  C_34 
ROOT
HETATM    1  C   UNL     1     -42.377  58.010 -51.590  1.00  0.00     0.362 C 
HETATM    2  O   UNL     1     -41.542  58.835 -51.236  1.00  0.00    -0.238 OA
HETATM    3  N   UNL     1     -43.161  58.141 -52.744  1.00  0.00    -0.328 N 
HETATM    4  C   UNL     1     -43.853  56.966 -53.261  1.00  0.00     0.130 C 
HETATM    5  C   UNL     1     -44.772  57.248 -54.443  1.00  0.00     0.053 C 
HETATM    6  C   UNL     1     -44.134  58.124 -55.537  1.00  0.00     0.057 C 
HETATM    7  C   UNL     1     -43.559  59.393 -54.893  1.00  0.00     0.053 C 
HETATM    8  C   UNL     1     -42.679  59.146 -53.680  1.00  0.00     0.130 C 
HETATM    9  C   UNL     1     -45.244  58.542 -56.545  1.00  0.00     0.165 C 
HETATM   10  N   UNL     1     -45.042  57.732 -57.728  1.00  0.00    -0.297 N 
HETATM   11  C   UNL     1     -43.822  57.042 -57.639  1.00  0.00     0.326 C 
HETATM   12  O   UNL     1     -43.302  56.311 -58.469  1.00  0.00    -0.247 OA
HETATM   13  N   UNL     1     -43.226  57.368 -56.412  1.00  0.00    -0.318 N 
ENDROOT
BRANCH  13  14
HETATM   14  C   UNL     1     -41.870  56.920 -56.113  1.00  0.00     0.167 C 
BRANCH  14  15
HETATM   15  C   UNL     1     -41.795  55.599 -55.374  1.00  0.00    -0.037 A 
HETATM   16  C   UNL     1     -42.611  54.515 -55.721  1.00  0.00     0.009 A 
HETATM   17  C   UNL     1     -42.552  53.323 -54.998  1.00  0.00     0.003 A 
HETATM   18  C   UNL     1     -41.676  53.204 -53.921  1.00  0.00     0.037 A 
HETATM   19  C   UNL     1     -40.860  54.272 -53.551  1.00  0.00     0.068 A 
HETATM   20  C   UNL     1     -40.945  55.473 -54.259  1.00  0.00     0.045 A 
BRANCH  19  21
HETATM   21  O   UNL     1     -40.041  54.032 -52.483  1.00  0.00    -0.356 OA
HETATM   22  C   UNL     1     -40.136  52.744 -51.884  1.00  0.00     0.210 C 
ENDBRANCH  19  21
ENDBRANCH  14  15
ENDBRANCH  13  14
BRANCH  10  23
HETATM   23  C   UNL     1     -45.842  57.880 -58.898  1.00  0.00     0.039 A 
HETATM   24  C   UNL     1     -46.092  59.131 -59.473  1.00  0.00     0.030 A 
HETATM   25  C   UNL     1     -46.955  59.276 -60.569  1.00  0.00     0.014 A 
HETATM   26  C   UNL     1     -47.583  58.167 -61.135  1.00  0.00    -0.023 A 
HETATM   27  C   UNL     1     -47.306  56.905 -60.602  1.00  0.00     0.014 A 
HETATM   28  C   UNL     1     -46.450  56.767 -59.497  1.00  0.00     0.030 A 
BRANCH  26  29
HETATM   29  C   UNL     1     -48.511  58.313 -62.241  1.00  0.00     0.010 A 
HETATM   30  C   UNL     1     -48.880  57.417 -63.270  1.00  0.00     0.152 A 
HETATM   31  N   UNL     1     -49.808  57.922 -64.087  1.00  0.00    -0.187 NA
HETATM   32  N   UNL     1     -50.039  59.145 -63.582  1.00  0.00    -0.289 N 
HETATM   33  H   UNL     1     -50.728  59.732 -64.039  1.00  0.00     0.188 HD
HETATM   34  C   UNL     1     -49.291  59.426 -62.476  1.00  0.00     0.123 A 
ENDBRANCH  26  29
ENDBRANCH  10  23
BRANCH   1  35
HETATM   35  O   UNL     1     -42.587  56.831 -50.944  1.00  0.00    -0.302 OA
BRANCH  35  36
HETATM   36  C   UNL     1     -41.461  56.321 -50.216  1.00  0.00     0.207 C 
BRANCH  36  37
HETATM   37  C   UNL     1     -41.773  55.006 -49.511  1.00  0.00     0.193 C 
BRANCH  37  38
HETATM   38  O   UNL     1     -41.093  54.991 -48.255  1.00  0.00    -0.394 OA
HETATM   39  C   UNL     1     -40.130  53.950 -48.187  1.00  0.00     0.201 C 
ENDBRANCH  37  38
ENDBRANCH  36  37
ENDBRANCH  35  36
ENDBRANCH   1  35
TORSDOF 9
ENDMDL
MODEL 5
REMARK VINA RESULT:      -7.3      2.065      5.138
REMARK  9 active torsions:
REMARK  status: ('A' for Active; 'I' for Inactive)
REMARK    1  A    between atoms: O_2  and  C_3 
REMARK    2  A    between atoms: C_3  and  C_4 
REMARK    3  A    between atoms: C_4  and  O_5 
REMARK    4  A    between atoms: O_5  and  C_6 
REMARK       I    between atoms: C_6  and  N_8 
REMARK    5  A    between atoms: N_15  and  C_28 
REMARK    6  A    between atoms: N_18  and  C_19 
REMARK    7  A    between atoms: C_19  and  C_20 
REMARK    8  A    between atoms: C_24  and  O_25 
REMARK    9  A    between atoms: C_31  and  C_34 
ROOT
HETATM    1  C   UNL     1     -43.358  62.868 -55.570  1.00  0.00     0.362 C 
HETATM    2  O   UNL     1     -43.570  63.722 -54.716  1.00  0.00    -0.238 OA
HETATM    3  N   UNL     1     -42.785  61.619 -55.295  1.00  0.00    -0.328 N 
HETATM    4  C   UNL     1     -42.900  60.558 -56.291  1.00  0.00     0.130 C 
HETATM    5  C   UNL     1     -42.137  59.287 -55.944  1.00  0.00     0.053 C 
HETATM    6  C   UNL     1     -42.348  58.805 -54.496  1.00  0.00     0.057 C 
HETATM    7  C   UNL     1     -42.069  59.967 -53.534  1.00  0.00     0.053 C 
HETATM    8  C   UNL     1     -42.777  61.264 -53.884  1.00  0.00     0.130 C 
HETATM    9  C   UNL     1     -41.330  57.664 -54.202  1.00  0.00     0.165 C 
HETATM   10  N   UNL     1     -42.086  56.430 -54.230  1.00  0.00    -0.297 N 
HETATM   11  C   UNL     1     -43.462  56.707 -54.286  1.00  0.00     0.326 C 
HETATM   12  O   UNL     1     -44.395  55.918 -54.272  1.00  0.00    -0.247 OA
HETATM   13  N   UNL     1     -43.625  58.099 -54.314  1.00  0.00    -0.318 N 
ENDROOT
BRANCH  13  14
HETATM   14  C   UNL     1     -44.958  58.683 -54.214  1.00  0.00     0.167 C 
BRANCH  14  15
HETATM   15  C   UNL     1     -45.275  59.291 -52.863  1.00  0.00    -0.037 A 
HETATM   16  C   UNL     1     -45.046  58.594 -51.669  1.00  0.00     0.009 A 
HETATM   17  C   UNL     1     -45.385  59.160 -50.441  1.00  0.00     0.003 A 
HETATM   18  C   UNL     1     -45.956  60.430 -50.392  1.00  0.00     0.037 A 
HETATM   19  C   UNL     1     -46.203  61.140 -51.566  1.00  0.00     0.068 A 
HETATM   20  C   UNL     1     -45.890  60.556 -52.795  1.00  0.00     0.045 A 
BRANCH  19  21
HETATM   21  O   UNL     1     -46.762  62.375 -51.389  1.00  0.00    -0.356 OA
HETATM   22  C   UNL     1     -46.597  63.308 -52.451  1.00  0.00     0.210 C 
ENDBRANCH  19  21
ENDBRANCH  14  15
ENDBRANCH  13  14
BRANCH  10  23
HETATM   23  C   UNL     1     -41.492  55.167 -53.942  1.00  0.00     0.039 A 
HETATM   24  C   UNL     1     -40.823  54.421 -54.919  1.00  0.00     0.030 A 
HETATM   25  C   UNL     1     -40.325  53.138 -54.648  1.00  0.00     0.014 A 
HETATM   26  C   UNL     1     -40.467  52.568 -53.383  1.00  0.00    -0.023 A 
HETATM   27  C   UNL     1     -41.091  53.320 -52.384  1.00  0.00     0.014 A 
HETATM   28  C   UNL     1     -41.599  54.599 -52.663  1.00  0.00     0.030 A 
BRANCH  26  29
HETATM   29  C   UNL     1     -39.993  51.225 -53.107  1.00  0.00     0.010 A 
HETATM   30  C   UNL     1     -39.809  50.111 -53.957  1.00  0.00     0.152 A 
HETATM   31  N   UNL     1     -39.312  49.048 -53.317  1.00  0.00    -0.187 NA
HETATM   32  N   UNL     1     -39.174  49.480 -52.054  1.00  0.00    -0.289 N 
HETATM   33  H   UNL     1     -38.798  48.838 -51.364  1.00  0.00     0.188 HD
HETATM   34  C   UNL     1     -39.563  50.776 -51.875  1.00  0.00     0.123 A 
ENDBRANCH  26  29
ENDBRANCH  10  23
BRANCH   1  35
HETATM   35  O   UNL     1     -43.725  63.002 -56.873  1.00  0.00    -0.302 OA
BRANCH  35  36
HETATM   36  C   UNL     1     -45.026  63.568 -57.090  1.00  0.00     0.207 C 
BRANCH  36  37
HETATM   37  C   UNL     1     -45.785  62.863 -58.207  1.00  0.00     0.193 C 
BRANCH  37  38
HETATM   38  O   UNL     1     -45.760  61.457 -57.957  1.00  0.00    -0.394 OA
HETATM   39  C   UNL     1     -46.663  61.087 -56.926  1.00  0.00     0.201 C 
ENDBRANCH  37  38
ENDBRANCH  36  37
ENDBRANCH  35  36
ENDBRANCH   1  35
TORSDOF 9
ENDMDL
MODEL 6
REMARK VINA RESULT:      -7.2      3.780      9.123
REMARK  9 active torsions:
REMARK  status: ('A' for Active; 'I' for Inactive)
REMARK    1  A    between atoms: O_2  and  C_3 
REMARK    2  A    between atoms: C_3  and  C_4 
REMARK    3  A    between atoms: C_4  and  O_5 
REMARK    4  A    between atoms: O_5  and  C_6 
REMARK       I    between atoms: C_6  and  N_8 
REMARK    5  A    between atoms: N_15  and  C_28 
REMARK    6  A    between atoms: N_18  and  C_19 
REMARK    7  A    between atoms: C_19  and  C_20 
REMARK    8  A    between atoms: C_24  and  O_25 
REMARK    9  A    between atoms: C_31  and  C_34 
ROOT
HETATM    1  C   UNL     1     -40.886  53.552 -50.950  1.00  0.00     0.362 C 
HETATM    2  O   UNL     1     -40.967  53.792 -49.751  1.00  0.00    -0.238 OA
HETATM    3  N   UNL     1     -41.725  54.120 -51.917  1.00  0.00    -0.328 N 
HETATM    4  C   UNL     1     -41.329  54.052 -53.320  1.00  0.00     0.130 C 
HETATM    5  C   UNL     1     -42.371  54.588 -54.293  1.00  0.00     0.053 C 
HETATM    6  C   UNL     1     -42.971  55.946 -53.882  1.00  0.00     0.057 C 
HETATM    7  C   UNL     1     -43.474  55.856 -52.436  1.00  0.00     0.053 C 
HETATM    8  C   UNL     1     -42.474  55.277 -51.451  1.00  0.00     0.130 C 
HETATM    9  C   UNL     1     -44.184  56.251 -54.810  1.00  0.00     0.165 C 
HETATM   10  N   UNL     1     -43.733  57.258 -55.747  1.00  0.00    -0.297 N 
HETATM   11  C   UNL     1     -42.477  57.753 -55.359  1.00  0.00     0.326 C 
HETATM   12  O   UNL     1     -41.819  58.641 -55.879  1.00  0.00    -0.247 OA
HETATM   13  N   UNL     1     -42.083  57.076 -54.195  1.00  0.00    -0.318 N 
ENDROOT
BRANCH  13  14
HETATM   14  C   UNL     1     -40.886  57.494 -53.474  1.00  0.00     0.167 C 
BRANCH  14  15
HETATM   15  C   UNL     1     -41.139  58.505 -52.374  1.00  0.00    -0.037 A 
HETATM   16  C   UNL     1     -40.373  58.524 -51.201  1.00  0.00     0.009 A 
HETATM   17  C   UNL     1     -40.652  59.439 -50.187  1.00  0.00     0.003 A 
HETATM   18  C   UNL     1     -41.701  60.345 -50.333  1.00  0.00     0.037 A 
HETATM   19  C   UNL     1     -42.483  60.339 -51.487  1.00  0.00     0.068 A 
HETATM   20  C   UNL     1     -42.219  59.401 -52.487  1.00  0.00     0.045 A 
BRANCH  19  21
HETATM   21  O   UNL     1     -43.478  61.277 -51.516  1.00  0.00    -0.356 OA
HETATM   22  C   UNL     1     -44.653  60.937 -52.243  1.00  0.00     0.210 C 
ENDBRANCH  19  21
ENDBRANCH  14  15
ENDBRANCH  13  14
BRANCH  10  23
HETATM   23  C   UNL     1     -44.600  57.834 -56.721  1.00  0.00     0.039 A 
HETATM   24  C   UNL     1     -45.597  58.753 -56.377  1.00  0.00     0.030 A 
HETATM   25  C   UNL     1     -46.504  59.242 -57.329  1.00  0.00     0.014 A 
HETATM   26  C   UNL     1     -46.429  58.837 -58.662  1.00  0.00    -0.023 A 
HETATM   27  C   UNL     1     -45.409  57.955 -59.029  1.00  0.00     0.014 A 
HETATM   28  C   UNL     1     -44.511  57.459 -58.070  1.00  0.00     0.030 A 
BRANCH  26  29
HETATM   29  C   UNL     1     -47.390  59.303 -59.643  1.00  0.00     0.010 A 
HETATM   30  C   UNL     1     -47.635  58.893 -60.973  1.00  0.00     0.152 A 
HETATM   31  N   UNL     1     -48.646  59.556 -61.541  1.00  0.00    -0.187 NA
HETATM   32  N   UNL     1     -49.055  60.393 -60.575  1.00  0.00    -0.289 N 
HETATM   33  H   UNL     1     -49.836  61.009 -60.770  1.00  0.00     0.188 HD
HETATM   34  C   UNL     1     -48.339  60.279 -59.418  1.00  0.00     0.123 A 
ENDBRANCH  26  29
ENDBRANCH  10  23
BRANCH   1  35
HETATM   35  O   UNL     1     -39.918  52.763 -51.492  1.00  0.00    -0.302 OA
BRANCH  35  36
HETATM   36  C   UNL     1     -39.848  51.429 -50.968  1.00  0.00     0.207 C 
BRANCH  36  37
HETATM   37  C   UNL     1     -39.488  50.404 -52.037  1.00  0.00     0.193 C 
BRANCH  37  38
HETATM   38  O   UNL     1     -39.515  51.049 -53.312  1.00  0.00    -0.394 OA
HETATM   39  C   UNL     1     -39.898  50.156 -54.348  1.00  0.00     0.201 C 
ENDBRANCH  37  38
ENDBRANCH  36  37
ENDBRANCH  35  36
ENDBRANCH   1  35
TORSDOF 9
ENDMDL
MODEL 7
REMARK VINA RESULT:      -7.0      2.337      5.344
REMARK  9 active torsions:
REMARK  status: ('A' for Active; 'I' for Inactive)
REMARK    1  A    between atoms: O_2  and  C_3 
REMARK    2  A    between atoms: C_3  and  C_4 
REMARK    3  A    between atoms: C_4  and  O_5 
REMARK    4  A    between atoms: O_5  and  C_6 
REMARK       I    between atoms: C_6  and  N_8 
REMARK    5  A    between atoms: N_15  and  C_28 
REMARK    6  A    between atoms: N_18  and  C_19 
REMARK    7  A    between atoms: C_19  and  C_20 
REMARK    8  A    between atoms: C_24  and  O_25 
REMARK    9  A    between atoms: C_31  and  C_34 
ROOT
HETATM    1  C   UNL     1     -44.754  62.039 -56.906  1.00  0.00     0.362 C 
HETATM    2  O   UNL     1     -44.115  62.990 -57.344  1.00  0.00    -0.238 OA
HETATM    3  N   UNL     1     -44.197  60.780 -56.647  1.00  0.00    -0.328 N 
HETATM    4  C   UNL     1     -44.938  59.842 -55.810  1.00  0.00     0.130 C 
HETATM    5  C   UNL     1     -44.300  58.464 -55.696  1.00  0.00     0.053 C 
HETATM    6  C   UNL     1     -42.788  58.496 -55.403  1.00  0.00     0.057 C 
HETATM    7  C   UNL     1     -42.098  59.406 -56.427  1.00  0.00     0.053 C 
HETATM    8  C   UNL     1     -42.742  60.770 -56.600  1.00  0.00     0.130 C 
HETATM    9  C   UNL     1     -42.224  57.054 -55.564  1.00  0.00     0.165 C 
HETATM   10  N   UNL     1     -42.001  56.555 -54.223  1.00  0.00    -0.297 N 
HETATM   11  C   UNL     1     -42.152  57.593 -53.289  1.00  0.00     0.326 C 
HETATM   12  O   UNL     1     -41.990  57.554 -52.079  1.00  0.00    -0.247 OA
HETATM   13  N   UNL     1     -42.490  58.762 -53.988  1.00  0.00    -0.318 N 
ENDROOT
BRANCH  13  14
HETATM   14  C   UNL     1     -42.556  60.041 -53.289  1.00  0.00     0.167 C 
BRANCH  14  15
HETATM   15  C   UNL     1     -43.611  60.108 -52.204  1.00  0.00    -0.037 A 
HETATM   16  C   UNL     1     -44.895  59.579 -52.392  1.00  0.00     0.009 A 
HETATM   17  C   UNL     1     -45.861  59.690 -51.392  1.00  0.00     0.003 A 
HETATM   18  C   UNL     1     -45.554  60.331 -50.193  1.00  0.00     0.037 A 
HETATM   19  C   UNL     1     -44.287  60.874 -49.987  1.00  0.00     0.068 A 
HETATM   20  C   UNL     1     -43.332  60.787 -51.003  1.00  0.00     0.045 A 
BRANCH  19  21
HETATM   21  O   UNL     1     -44.105  61.473 -48.771  1.00  0.00    -0.356 OA
HETATM   22  C   UNL     1     -44.681  62.764 -48.604  1.00  0.00     0.210 C 
ENDBRANCH  19  21
ENDBRANCH  14  15
ENDBRANCH  13  14
BRANCH  10  23
HETATM   23  C   UNL     1     -41.427  55.275 -53.973  1.00  0.00     0.039 A 
HETATM   24  C   UNL     1     -40.684  54.592 -54.942  1.00  0.00     0.030 A 
HETATM   25  C   UNL     1     -40.202  53.294 -54.717  1.00  0.00     0.014 A 
HETATM   26  C   UNL     1     -40.436  52.644 -53.505  1.00  0.00    -0.023 A 
HETATM   27  C   UNL     1     -41.136  53.332 -52.510  1.00  0.00     0.014 A 
HETATM   28  C   UNL     1     -41.627  54.627 -52.744  1.00  0.00     0.030 A 
BRANCH  26  29
HETATM   29  C   UNL     1     -39.980  51.286 -53.281  1.00  0.00     0.010 A 
HETATM   30  C   UNL     1     -39.729  50.228 -54.184  1.00  0.00     0.152 A 
HETATM   31  N   UNL     1     -39.278  49.126 -53.577  1.00  0.00    -0.187 NA
HETATM   32  N   UNL     1     -39.236  49.476 -52.282  1.00  0.00    -0.289 N 
HETATM   33  H   UNL     1     -38.911  48.791 -51.608  1.00  0.00     0.188 HD
HETATM   34  C   UNL     1     -39.642  50.758 -52.051  1.00  0.00     0.123 A 
ENDBRANCH  26  29
ENDBRANCH  10  23
BRANCH   1  35
HETATM   35  O   UNL     1     -46.065  62.118 -56.548  1.00  0.00    -0.302 OA
BRANCH  35  36
HETATM   36  C   UNL     1     -46.943  62.656 -57.546  1.00  0.00     0.207 C 
BRANCH  36  37
HETATM   37  C   UNL     1     -48.180  61.790 -57.758  1.00  0.00     0.193 C 
BRANCH  37  38
HETATM   38  O   UNL     1     -47.785  60.418 -57.719  1.00  0.00    -0.394 OA
HETATM   39  C   UNL     1     -47.418  59.936 -59.003  1.00  0.00     0.201 C 
ENDBRANCH  37  38
ENDBRANCH  36  37
ENDBRANCH  35  36
ENDBRANCH   1  35
TORSDOF 9
ENDMDL
MODEL 8
REMARK VINA RESULT:      -7.0      3.786      9.279
REMARK  9 active torsions:
REMARK  status: ('A' for Active; 'I' for Inactive)
REMARK    1  A    between atoms: O_2  and  C_3 
REMARK    2  A    between atoms: C_3  and  C_4 
REMARK    3  A    between atoms: C_4  and  O_5 
REMARK    4  A    between atoms: O_5  and  C_6 
REMARK       I    between atoms: C_6  and  N_8 
REMARK    5  A    between atoms: N_15  and  C_28 
REMARK    6  A    between atoms: N_18  and  C_19 
REMARK    7  A    between atoms: C_19  and  C_20 
REMARK    8  A    between atoms: C_24  and  O_25 
REMARK    9  A    between atoms: C_31  and  C_34 
ROOT
HETATM    1  C   UNL     1     -41.569  53.760 -52.024  1.00  0.00     0.362 C 
HETATM    2  O   UNL     1     -42.362  53.578 -51.107  1.00  0.00    -0.238 OA
HETATM    3  N   UNL     1     -41.911  54.361 -53.243  1.00  0.00    -0.328 N 
HETATM    4  C   UNL     1     -40.845  54.848 -54.111  1.00  0.00     0.130 C 
HETATM    5  C   UNL     1     -41.323  55.367 -55.461  1.00  0.00     0.053 C 
HETATM    6  C   UNL     1     -42.535  56.315 -55.374  1.00  0.00     0.057 C 
HETATM    7  C   UNL     1     -43.641  55.641 -54.552  1.00  0.00     0.053 C 
HETATM    8  C   UNL     1     -43.183  55.068 -53.222  1.00  0.00     0.130 C 
HETATM    9  C   UNL     1     -43.071  56.563 -56.814  1.00  0.00     0.165 C 
HETATM   10  N   UNL     1     -42.643  57.896 -57.181  1.00  0.00    -0.297 N 
HETATM   11  C   UNL     1     -42.110  58.558 -56.063  1.00  0.00     0.326 C 
HETATM   12  O   UNL     1     -41.700  59.707 -55.985  1.00  0.00    -0.247 OA
HETATM   13  N   UNL     1     -42.160  57.678 -54.971  1.00  0.00    -0.318 N 
ENDROOT
BRANCH  13  14
HETATM   14  C   UNL     1     -41.817  58.149 -53.634  1.00  0.00     0.167 C 
BRANCH  14  15
HETATM   15  C   UNL     1     -42.840  59.081 -53.016  1.00  0.00    -0.037 A 
HETATM   16  C   UNL     1     -44.177  58.698 -52.847  1.00  0.00     0.009 A 
HETATM   17  C   UNL     1     -45.108  59.589 -52.314  1.00  0.00     0.003 A 
HETATM   18  C   UNL     1     -44.711  60.874 -51.944  1.00  0.00     0.037 A 
HETATM   19  C   UNL     1     -43.389  61.281 -52.112  1.00  0.00     0.068 A 
HETATM   20  C   UNL     1     -42.468  60.395 -52.674  1.00  0.00     0.045 A 
BRANCH  19  21
HETATM   21  O   UNL     1     -43.122  62.560 -51.709  1.00  0.00    -0.356 OA
HETATM   22  C   UNL     1     -43.590  62.931 -50.416  1.00  0.00     0.210 C 
ENDBRANCH  19  21
ENDBRANCH  14  15
ENDBRANCH  13  14
BRANCH  10  23
HETATM   23  C   UNL     1     -43.005  58.498 -58.421  1.00  0.00     0.039 A 
HETATM   24  C   UNL     1     -42.064  58.749 -59.427  1.00  0.00     0.030 A 
HETATM   25  C   UNL     1     -42.413  59.426 -60.605  1.00  0.00     0.014 A 
HETATM   26  C   UNL     1     -43.721  59.859 -60.820  1.00  0.00    -0.023 A 
HETATM   27  C   UNL     1     -44.682  59.574 -59.846  1.00  0.00     0.014 A 
HETATM   28  C   UNL     1     -44.325  58.907 -58.662  1.00  0.00     0.030 A 
BRANCH  26  29
HETATM   29  C   UNL     1     -44.080  60.598 -62.016  1.00  0.00     0.010 A 
HETATM   30  C   UNL     1     -45.337  61.016 -62.508  1.00  0.00     0.152 A 
HETATM   31  N   UNL     1     -45.242  61.716 -63.642  1.00  0.00    -0.187 NA
HETATM   32  N   UNL     1     -43.921  61.751 -63.878  1.00  0.00    -0.289 N 
HETATM   33  H   UNL     1     -43.591  62.246 -64.701  1.00  0.00     0.188 HD
HETATM   34  C   UNL     1     -43.181  61.100 -62.934  1.00  0.00     0.123 A 
ENDBRANCH  26  29
ENDBRANCH  10  23
BRANCH   1  35
HETATM   35  O   UNL     1     -40.242  53.471 -51.935  1.00  0.00    -0.302 OA
BRANCH  35  36
HETATM   36  C   UNL     1     -39.911  52.355 -51.097  1.00  0.00     0.207 C 
BRANCH  36  37
HETATM   37  C   UNL     1     -39.514  51.123 -51.902  1.00  0.00     0.193 C 
BRANCH  37  38
HETATM   38  O   UNL     1     -39.370  51.503 -53.272  1.00  0.00    -0.394 OA
HETATM   39  C   UNL     1     -39.664  50.428 -54.152  1.00  0.00     0.201 C 
ENDBRANCH  37  38
ENDBRANCH  36  37
ENDBRANCH  35  36
ENDBRANCH   1  35
TORSDOF 9
ENDMDL
MODEL 9
REMARK VINA RESULT:      -7.0      1.813      2.615
REMARK  9 active torsions:
REMARK  status: ('A' for Active; 'I' for Inactive)
REMARK    1  A    between atoms: O_2  and  C_3 
REMARK    2  A    between atoms: C_3  and  C_4 
REMARK    3  A    between atoms: C_4  and  O_5 
REMARK    4  A    between atoms: O_5  and  C_6 
REMARK       I    between atoms: C_6  and  N_8 
REMARK    5  A    between atoms: N_15  and  C_28 
REMARK    6  A    between atoms: N_18  and  C_19 
REMARK    7  A    between atoms: C_19  and  C_20 
REMARK    8  A    between atoms: C_24  and  O_25 
REMARK    9  A    between atoms: C_31  and  C_34 
ROOT
HETATM    1  C   UNL     1     -46.125  61.916 -53.367  1.00  0.00     0.362 C 
HETATM    2  O   UNL     1     -46.753  62.210 -54.379  1.00  0.00    -0.238 OA
HETATM    3  N   UNL     1     -45.536  60.663 -53.153  1.00  0.00    -0.328 N 
HETATM    4  C   UNL     1     -44.530  60.529 -52.105  1.00  0.00     0.130 C 
HETATM    5  C   UNL     1     -44.048  59.102 -51.876  1.00  0.00     0.053 C 
HETATM    6  C   UNL     1     -43.701  58.343 -53.171  1.00  0.00     0.057 C 
HETATM    7  C   UNL     1     -44.884  58.441 -54.143  1.00  0.00     0.053 C 
HETATM    8  C   UNL     1     -45.419  59.847 -54.352  1.00  0.00     0.130 C 
HETATM    9  C   UNL     1     -43.473  56.844 -52.819  1.00  0.00     0.165 C 
HETATM   10  N   UNL     1     -42.042  56.632 -52.861  1.00  0.00    -0.297 N 
HETATM   11  C   UNL     1     -41.402  57.756 -53.408  1.00  0.00     0.326 C 
HETATM   12  O   UNL     1     -40.212  57.912 -53.643  1.00  0.00    -0.247 OA
HETATM   13  N   UNL     1     -42.382  58.712 -53.708  1.00  0.00    -0.318 N 
ENDROOT
BRANCH  13  14
HETATM   14  C   UNL     1     -42.025  59.925 -54.436  1.00  0.00     0.167 C 
BRANCH  14  15
HETATM   15  C   UNL     1     -42.149  59.811 -55.942  1.00  0.00    -0.037 A 
HETATM   16  C   UNL     1     -42.138  58.569 -56.589  1.00  0.00     0.009 A 
HETATM   17  C   UNL     1     -42.212  58.493 -57.980  1.00  0.00     0.003 A 
HETATM   18  C   UNL     1     -42.297  59.659 -58.738  1.00  0.00     0.037 A 
HETATM   19  C   UNL     1     -42.300  60.907 -58.118  1.00  0.00     0.068 A 
HETATM   20  C   UNL     1     -42.195  60.979 -56.727  1.00  0.00     0.045 A 
BRANCH  19  21
HETATM   21  O   UNL     1     -42.392  61.975 -58.967  1.00  0.00    -0.356 OA
HETATM   22  C   UNL     1     -43.427  62.916 -58.698  1.00  0.00     0.210 C 
ENDBRANCH  19  21
ENDBRANCH  14  15
ENDBRANCH  13  14
BRANCH  10  23
HETATM   23  C   UNL     1     -41.455  55.350 -52.648  1.00  0.00     0.039 A 
HETATM   24  C   UNL     1     -41.172  54.479 -53.706  1.00  0.00     0.030 A 
HETATM   25  C   UNL     1     -40.682  53.184 -53.479  1.00  0.00     0.014 A 
HETATM   26  C   UNL     1     -40.444  52.727 -52.182  1.00  0.00    -0.023 A 
HETATM   27  C   UNL     1     -40.677  53.603 -51.119  1.00  0.00     0.014 A 
HETATM   28  C   UNL     1     -41.179  54.894 -51.350  1.00  0.00     0.030 A 
BRANCH  26  29
HETATM   29  C   UNL     1     -39.979  51.375 -51.936  1.00  0.00     0.010 A 
HETATM   30  C   UNL     1     -39.787  50.663 -50.731  1.00  0.00     0.152 A 
HETATM   31  N   UNL     1     -39.374  49.408 -50.932  1.00  0.00    -0.187 NA
HETATM   32  N   UNL     1     -39.303  49.312 -52.269  1.00  0.00    -0.289 N 
HETATM   33  H   UNL     1     -39.012  48.428 -52.674  1.00  0.00     0.188 HD
HETATM   34  C   UNL     1     -39.657  50.460 -52.917  1.00  0.00     0.123 A 
ENDBRANCH  26  29
ENDBRANCH  10  23
BRANCH   1  35
HETATM   35  O   UNL     1     -45.860  62.799 -52.366  1.00  0.00    -0.302 OA
BRANCH  35  36
HETATM   36  C   UNL     1     -44.942  63.850 -52.701  1.00  0.00     0.207 C 
BRANCH  36  37
HETATM   37  C   UNL     1     -44.035  64.221 -51.534  1.00  0.00     0.193 C 
BRANCH  37  38
HETATM   38  O   UNL     1     -42.746  64.558 -52.049  1.00  0.00    -0.394 OA
HETATM   39  C   UNL     1     -42.674  64.373 -53.455  1.00  0.00     0.201 C 
ENDBRANCH  37  38
ENDBRANCH  36  37
ENDBRANCH  35  36
ENDBRANCH   1  35
TORSDOF 9
ENDMDL
MODEL 10
REMARK VINA RESULT:      -6.8     17.759     21.074
REMARK  9 active torsions:
REMARK  status: ('A' for Active; 'I' for Inactive)
REMARK    1  A    between atoms: O_2  and  C_3 
REMARK    2  A    between atoms: C_3  and  C_4 
REMARK    3  A    between atoms: C_4  and  O_5 
REMARK    4  A    between atoms: O_5  and  C_6 
REMARK       I    between atoms: C_6  and  N_8 
REMARK    5  A    between atoms: N_15  and  C_28 
REMARK    6  A    between atoms: N_18  and  C_19 
REMARK    7  A    between atoms: C_19  and  C_20 
REMARK    8  A    between atoms: C_24  and  O_25 
REMARK    9  A    between atoms: C_31  and  C_34 
ROOT
HETATM    1  C   UNL     1     -37.664  41.604 -55.483  1.00  0.00     0.362 C 
HETATM    2  O   UNL     1     -38.810  41.221 -55.693  1.00  0.00    -0.238 OA
HETATM    3  N   UNL     1     -36.986  41.403 -54.274  1.00  0.00    -0.328 N 
HETATM    4  C   UNL     1     -35.537  41.572 -54.244  1.00  0.00     0.130 C 
HETATM    5  C   UNL     1     -34.919  41.452 -52.858  1.00  0.00     0.053 C 
HETATM    6  C   UNL     1     -35.419  40.237 -52.053  1.00  0.00     0.057 C 
HETATM    7  C   UNL     1     -36.953  40.239 -52.041  1.00  0.00     0.053 C 
HETATM    8  C   UNL     1     -37.598  40.409 -53.405  1.00  0.00     0.130 C 
HETATM    9  C   UNL     1     -34.913  40.374 -50.587  1.00  0.00     0.165 C 
HETATM   10  N   UNL     1     -33.823  39.433 -50.445  1.00  0.00    -0.297 N 
HETATM   11  C   UNL     1     -33.757  38.596 -51.571  1.00  0.00     0.326 C 
HETATM   12  O   UNL     1     -33.002  37.657 -51.775  1.00  0.00    -0.247 OA
HETATM   13  N   UNL     1     -34.771  38.982 -52.460  1.00  0.00    -0.318 N 
ENDROOT
BRANCH  13  14
HETATM   14  C   UNL     1     -35.044  38.185 -53.651  1.00  0.00     0.167 C 
BRANCH  14  15
HETATM   15  C   UNL     1     -34.271  38.613 -54.882  1.00  0.00    -0.037 A 
HETATM   16  C   UNL     1     -34.811  38.492 -56.169  1.00  0.00     0.009 A 
HETATM   17  C   UNL     1     -34.063  38.856 -57.289  1.00  0.00     0.003 A 
HETATM   18  C   UNL     1     -32.766  39.343 -57.133  1.00  0.00     0.037 A 
HETATM   19  C   UNL     1     -32.204  39.463 -55.863  1.00  0.00     0.068 A 
HETATM   20  C   UNL     1     -32.946  39.069 -54.748  1.00  0.00     0.045 A 
BRANCH  19  21
HETATM   21  O   UNL     1     -30.929  39.956 -55.839  1.00  0.00    -0.356 OA
HETATM   22  C   UNL     1     -29.950  39.229 -56.574  1.00  0.00     0.210 C 
ENDBRANCH  19  21
ENDBRANCH  14  15
ENDBRANCH  13  14
BRANCH  10  23
HETATM   23  C   UNL     1     -33.145  39.233 -49.207  1.00  0.00     0.039 A 
HETATM   24  C   UNL     1     -31.958  39.903 -48.894  1.00  0.00     0.030 A 
HETATM   25  C   UNL     1     -31.250  39.630 -47.715  1.00  0.00     0.014 A 
HETATM   26  C   UNL     1     -31.719  38.685 -46.802  1.00  0.00    -0.023 A 
HETATM   27  C   UNL     1     -32.929  38.042 -47.078  1.00  0.00     0.014 A 
HETATM   28  C   UNL     1     -33.628  38.310 -48.266  1.00  0.00     0.030 A 
BRANCH  26  29
HETATM   29  C   UNL     1     -30.971  38.365 -45.601  1.00  0.00     0.010 A 
HETATM   30  C   UNL     1     -30.184  39.175 -44.752  1.00  0.00     0.152 A 
HETATM   31  N   UNL     1     -29.682  38.501 -43.713  1.00  0.00    -0.187 NA
HETATM   32  N   UNL     1     -30.149  37.255 -43.893  1.00  0.00    -0.289 N 
HETATM   33  H   UNL     1     -29.903  36.546 -43.211  1.00  0.00     0.188 HD
HETATM   34  C   UNL     1     -30.928  37.121 -45.005  1.00  0.00     0.123 A 
ENDBRANCH  26  29
ENDBRANCH  10  23
BRANCH   1  35
HETATM   35  O   UNL     1     -36.889  42.201 -56.428  1.00  0.00    -0.302 OA
BRANCH  35  36
HETATM   36  C   UNL     1     -36.684  41.440 -57.627  1.00  0.00     0.207 C 
BRANCH  36  37
HETATM   37  C   UNL     1     -37.007  42.239 -58.884  1.00  0.00     0.193 C 
BRANCH  37  38
HETATM   38  O   UNL     1     -37.462  41.335 -59.892  1.00  0.00    -0.394 OA
HETATM   39  C   UNL     1     -37.422  39.986 -59.450  1.00  0.00     0.201 C 
ENDBRANCH  37  38
ENDBRANCH  36  37
ENDBRANCH  35  36
ENDBRANCH   1  35
TORSDOF 9
ENDMDL
