MODEL 1
REMARK VINA RESULT:      -8.0      0.000      0.000
REMARK  7 active torsions:
REMARK  status: ('A' for Active; 'I' for Inactive)
REMARK    1  A    between atoms: C_4  and  C_5 
REMARK    2  A    between atoms: C_5  and  N_6 
REMARK       I    between atoms: N_6  and  C_7 
REMARK       I    between atoms: C_7  and  N_8 
REMARK    3  A    between atoms: N_8  and  C_9 
REMARK    4  A    between atoms: C_9  and  C_10 
REMARK    5  A    between atoms: C_12  and  O_13 
REMARK    6  A    between atoms: O_13  and  C_14 
REMARK    7  A    between atoms: C_23  and  O_24 
ROOT
HETATM    1  N   UNL     1     -42.249  54.664 -54.409  1.00  0.00    -0.335 N 
HETATM    2  C   UNL     1     -43.303  54.704 -55.268  1.00  0.00     0.316 C 
HETATM    3  N   UNL     1     -44.265  55.620 -54.987  1.00  0.00    -0.339 N 
HETATM    4  O   UNL     1     -43.417  54.005 -56.267  1.00  0.00    -0.247 OA
HETATM    5  H   UNL     1     -42.411  55.017 -53.482  1.00  0.00     0.165 HD
HETATM    6  H   UNL     1     -45.004  55.625 -55.679  1.00  0.00     0.164 HD
ENDROOT
BRANCH   1   7
HETATM    7  C   UNL     1     -41.179  53.681 -54.548  1.00  0.00     0.118 C 
HETATM    8  C   UNL     1     -40.000  54.329 -55.277  1.00  0.00     0.037 C 
BRANCH   7   9
HETATM    9  C   UNL     1     -40.714  53.101 -53.213  1.00  0.00    -0.002 A 
HETATM   10  C   UNL     1     -40.706  53.878 -52.036  1.00  0.00     0.018 A 
HETATM   11  C   UNL     1     -40.252  53.355 -50.819  1.00  0.00    -0.061 A 
HETATM   12  C   UNL     1     -40.248  54.191 -49.573  1.00  0.00     0.048 C 
HETATM   13  C   UNL     1     -39.787  52.039 -50.779  1.00  0.00     0.009 A 
HETATM   14  C   UNL     1     -39.773  51.257 -51.936  1.00  0.00     0.038 A 
HETATM   15  C   UNL     1     -40.230  51.777 -53.152  1.00  0.00     0.076 A 
BRANCH  15  16
HETATM   16  O   UNL     1     -40.216  51.085 -54.337  1.00  0.00    -0.355 OA
HETATM   17  C   UNL     1     -39.605  49.802 -54.341  1.00  0.00     0.210 C 
ENDBRANCH  15  16
ENDBRANCH   7   9
ENDBRANCH   1   7
BRANCH   3  18
HETATM   18  C   UNL     1     -44.278  56.649 -53.970  1.00  0.00     0.163 C 
BRANCH  18  19
HETATM   19  C   UNL     1     -43.379  57.809 -54.307  1.00  0.00    -0.035 A 
HETATM   20  C   UNL     1     -42.179  57.998 -53.615  1.00  0.00     0.066 A 
HETATM   21  C   UNL     1     -41.375  59.074 -53.960  1.00  0.00     0.164 A 
HETATM   22  N   UNL     1     -41.670  59.955 -54.936  1.00  0.00    -0.237 NA
HETATM   23  C   UNL     1     -42.822  59.745 -55.606  1.00  0.00     0.120 A 
HETATM   24  C   UNL     1     -43.693  58.703 -55.337  1.00  0.00     0.028 A 
BRANCH  21  25
HETATM   25  O   UNL     1     -40.209  59.232 -53.235  1.00  0.00    -0.329 OA
BRANCH  25  26
HETATM   26  C   UNL     1     -40.279  58.869 -51.839  1.00  0.00     0.130 C 
HETATM   27  C   UNL     1     -39.134  59.379 -50.924  1.00  0.00     0.032 C 
HETATM   28  C   UNL     1     -40.197  59.653 -49.846  1.00  0.00     0.005 C 
HETATM   29  C   UNL     1     -41.228  59.752 -50.986  1.00  0.00     0.032 C 
ENDBRANCH  25  26
ENDBRANCH  21  25
ENDBRANCH  18  19
ENDBRANCH   3  18
TORSDOF 7
ENDMDL
MODEL 2
REMARK VINA RESULT:      -7.9      2.528      4.939
REMARK  7 active torsions:
REMARK  status: ('A' for Active; 'I' for Inactive)
REMARK    1  A    between atoms: C_4  and  C_5 
REMARK    2  A    between atoms: C_5  and  N_6 
REMARK       I    between atoms: N_6  and  C_7 
REMARK       I    between atoms: C_7  and  N_8 
REMARK    3  A    between atoms: N_8  and  C_9 
REMARK    4  A    between atoms: C_9  and  C_10 
REMARK    5  A    between atoms: C_12  and  O_13 
REMARK    6  A    between atoms: O_13  and  C_14 
REMARK    7  A    between atoms: C_23  and  O_24 
ROOT
HETATM    1  N   UNL     1     -41.777  55.569 -51.129  1.00  0.00    -0.335 N 
HETATM    2  C   UNL     1     -41.845  56.918 -50.970  1.00  0.00     0.316 C 
HETATM    3  N   UNL     1     -42.911  57.532 -51.544  1.00  0.00    -0.339 N 
HETATM    4  O   UNL     1     -41.041  57.587 -50.333  1.00  0.00    -0.247 OA
HETATM    5  H   UNL     1     -42.269  55.183 -51.916  1.00  0.00     0.165 HD
HETATM    6  H   UNL     1     -42.923  58.528 -51.363  1.00  0.00     0.164 HD
ENDROOT
BRANCH   1   7
HETATM    7  C   UNL     1     -40.650  54.789 -50.627  1.00  0.00     0.118 C 
HETATM    8  C   UNL     1     -40.911  54.421 -49.165  1.00  0.00     0.037 C 
BRANCH   7   9
HETATM    9  C   UNL     1     -40.377  53.527 -51.444  1.00  0.00    -0.002 A 
HETATM   10  C   UNL     1     -40.086  52.296 -50.820  1.00  0.00     0.018 A 
HETATM   11  C   UNL     1     -39.805  51.146 -51.569  1.00  0.00    -0.061 A 
HETATM   12  C   UNL     1     -39.498  49.841 -50.895  1.00  0.00     0.048 C 
HETATM   13  C   UNL     1     -39.804  51.230 -52.963  1.00  0.00     0.009 A 
HETATM   14  C   UNL     1     -40.075  52.443 -53.600  1.00  0.00     0.038 A 
HETATM   15  C   UNL     1     -40.359  53.591 -52.854  1.00  0.00     0.076 A 
BRANCH  15  16
HETATM   16  O   UNL     1     -40.601  54.825 -53.403  1.00  0.00    -0.355 OA
HETATM   17  C   UNL     1     -40.294  55.002 -54.780  1.00  0.00     0.210 C 
ENDBRANCH  15  16
ENDBRANCH   7   9
ENDBRANCH   1   7
BRANCH   3  18
HETATM   18  C   UNL     1     -44.058  56.946 -52.202  1.00  0.00     0.163 C 
BRANCH  18  19
HETATM   19  C   UNL     1     -44.208  57.410 -53.627  1.00  0.00    -0.035 A 
HETATM   20  C   UNL     1     -43.573  56.724 -54.666  1.00  0.00     0.066 A 
HETATM   21  C   UNL     1     -43.743  57.179 -55.964  1.00  0.00     0.164 A 
HETATM   22  N   UNL     1     -44.496  58.245 -56.299  1.00  0.00    -0.237 NA
HETATM   23  C   UNL     1     -45.118  58.882 -55.287  1.00  0.00     0.120 A 
HETATM   24  C   UNL     1     -45.011  58.508 -53.957  1.00  0.00     0.028 A 
BRANCH  21  25
HETATM   25  O   UNL     1     -43.079  56.481 -56.955  1.00  0.00    -0.329 OA
BRANCH  25  26
HETATM   26  C   UNL     1     -43.196  57.015 -58.292  1.00  0.00     0.130 C 
HETATM   27  C   UNL     1     -42.024  57.899 -58.798  1.00  0.00     0.032 C 
HETATM   28  C   UNL     1     -42.177  57.212 -60.167  1.00  0.00     0.005 C 
HETATM   29  C   UNL     1     -42.814  56.024 -59.423  1.00  0.00     0.032 C 
ENDBRANCH  25  26
ENDBRANCH  21  25
ENDBRANCH  18  19
ENDBRANCH   3  18
TORSDOF 7
ENDMDL
MODEL 3
REMARK VINA RESULT:      -7.9      2.612      4.522
REMARK  7 active torsions:
REMARK  status: ('A' for Active; 'I' for Inactive)
REMARK    1  A    between atoms: C_4  and  C_5 
REMARK    2  A    between atoms: C_5  and  N_6 
REMARK       I    between atoms: N_6  and  C_7 
REMARK       I    between atoms: C_7  and  N_8 
REMARK    3  A    between atoms: N_8  and  C_9 
REMARK    4  A    between atoms: C_9  and  C_10 
REMARK    5  A    between atoms: C_12  and  O_13 
REMARK    6  A    between atoms: O_13  and  C_14 
REMARK    7  A    between atoms: C_23  and  O_24 
ROOT
HETATM    1  N   UNL     1     -42.699  56.227 -51.971  1.00  0.00    -0.335 N 
HETATM    2  C   UNL     1     -43.482  56.944 -51.121  1.00  0.00     0.316 C 
HETATM    3  N   UNL     1     -43.025  58.179 -50.789  1.00  0.00    -0.339 N 
HETATM    4  O   UNL     1     -44.558  56.566 -50.676  1.00  0.00    -0.247 OA
HETATM    5  H   UNL     1     -41.725  56.473 -52.001  1.00  0.00     0.165 HD
HETATM    6  H   UNL     1     -43.665  58.675 -50.182  1.00  0.00     0.164 HD
ENDROOT
BRANCH   1   7
HETATM    7  C   UNL     1     -43.032  54.859 -52.356  1.00  0.00     0.118 C 
HETATM    8  C   UNL     1     -43.516  54.854 -53.807  1.00  0.00     0.037 C 
BRANCH   7   9
HETATM    9  C   UNL     1     -41.867  53.884 -52.189  1.00  0.00    -0.002 A 
HETATM   10  C   UNL     1     -41.323  53.192 -53.292  1.00  0.00     0.018 A 
HETATM   11  C   UNL     1     -40.276  52.276 -53.135  1.00  0.00    -0.061 A 
HETATM   12  C   UNL     1     -39.705  51.547 -54.316  1.00  0.00     0.048 C 
HETATM   13  C   UNL     1     -39.772  52.037 -51.855  1.00  0.00     0.009 A 
HETATM   14  C   UNL     1     -40.305  52.701 -50.748  1.00  0.00     0.038 A 
HETATM   15  C   UNL     1     -41.349  53.619 -50.904  1.00  0.00     0.076 A 
BRANCH  15  16
HETATM   16  O   UNL     1     -41.949  54.284 -49.864  1.00  0.00    -0.355 OA
HETATM   17  C   UNL     1     -41.103  54.923 -48.918  1.00  0.00     0.210 C 
ENDBRANCH  15  16
ENDBRANCH   7   9
ENDBRANCH   1   7
BRANCH   3  18
HETATM   18  C   UNL     1     -41.878  58.896 -51.302  1.00  0.00     0.163 C 
BRANCH  18  19
HETATM   19  C   UNL     1     -42.216  59.751 -52.495  1.00  0.00    -0.035 A 
HETATM   20  C   UNL     1     -41.749  59.406 -53.767  1.00  0.00     0.066 A 
HETATM   21  C   UNL     1     -42.088  60.215 -54.841  1.00  0.00     0.164 A 
HETATM   22  N   UNL     1     -42.855  61.319 -54.744  1.00  0.00    -0.237 NA
HETATM   23  C   UNL     1     -43.313  61.624 -53.513  1.00  0.00     0.120 A 
HETATM   24  C   UNL     1     -43.030  60.883 -52.377  1.00  0.00     0.028 A 
BRANCH  21  25
HETATM   25  O   UNL     1     -41.587  59.845 -56.075  1.00  0.00    -0.329 OA
BRANCH  25  26
HETATM   26  C   UNL     1     -42.490  59.112 -56.930  1.00  0.00     0.130 C 
HETATM   27  C   UNL     1     -42.049  58.906 -58.403  1.00  0.00     0.032 C 
HETATM   28  C   UNL     1     -42.614  57.478 -58.311  1.00  0.00     0.005 C 
HETATM   29  C   UNL     1     -42.408  57.568 -56.788  1.00  0.00     0.032 C 
ENDBRANCH  25  26
ENDBRANCH  21  25
ENDBRANCH  18  19
ENDBRANCH   3  18
TORSDOF 7
ENDMDL
MODEL 4
REMARK VINA RESULT:      -7.8      3.260      5.135
REMARK  7 active torsions:
REMARK  status: ('A' for Active; 'I' for Inactive)
REMARK    1  A    between atoms: C_4  and  C_5 
REMARK    2  A    between atoms: C_5  and  N_6 
REMARK       I    between atoms: N_6  and  C_7 
REMARK       I    between atoms: C_7  and  N_8 
REMARK    3  A    between atoms: N_8  and  C_9 
REMARK    4  A    between atoms: C_9  and  C_10 
REMARK    5  A    between atoms: C_12  and  O_13 
REMARK    6  A    between atoms: O_13  and  C_14 
REMARK    7  A    between atoms: C_23  and  O_24 
ROOT
HETATM    1  N   UNL     1     -42.192  54.839 -54.215  1.00  0.00    -0.335 N 
HETATM    2  C   UNL     1     -41.536  55.871 -54.811  1.00  0.00     0.316 C 
HETATM    3  N   UNL     1     -41.827  56.086 -56.119  1.00  0.00    -0.339 N 
HETATM    4  O   UNL     1     -40.744  56.614 -54.244  1.00  0.00    -0.247 OA
HETATM    5  H   UNL     1     -42.539  54.117 -54.822  1.00  0.00     0.165 HD
HETATM    6  H   UNL     1     -41.333  56.886 -56.495  1.00  0.00     0.164 HD
ENDROOT
BRANCH   1   7
HETATM    7  C   UNL     1     -41.925  54.450 -52.834  1.00  0.00     0.118 C 
HETATM    8  C   UNL     1     -43.251  54.131 -52.140  1.00  0.00     0.037 C 
BRANCH   7   9
HETATM    9  C   UNL     1     -40.973  53.260 -52.716  1.00  0.00    -0.002 A 
HETATM   10  C   UNL     1     -40.886  52.283 -53.730  1.00  0.00     0.018 A 
HETATM   11  C   UNL     1     -40.037  51.177 -53.608  1.00  0.00    -0.061 A 
HETATM   12  C   UNL     1     -39.951  50.145 -54.693  1.00  0.00     0.048 C 
HETATM   13  C   UNL     1     -39.270  51.037 -52.449  1.00  0.00     0.009 A 
HETATM   14  C   UNL     1     -39.352  51.985 -51.427  1.00  0.00     0.038 A 
HETATM   15  C   UNL     1     -40.197  53.093 -51.549  1.00  0.00     0.076 A 
BRANCH  15  16
HETATM   16  O   UNL     1     -40.359  54.047 -50.576  1.00  0.00    -0.355 OA
HETATM   17  C   UNL     1     -40.474  53.601 -49.231  1.00  0.00     0.210 C 
ENDBRANCH  15  16
ENDBRANCH   7   9
ENDBRANCH   1   7
BRANCH   3  18
HETATM   18  C   UNL     1     -42.828  55.451 -56.948  1.00  0.00     0.163 C 
BRANCH  18  19
HETATM   19  C   UNL     1     -43.182  56.272 -58.160  1.00  0.00    -0.035 A 
HETATM   20  C   UNL     1     -43.054  57.663 -58.135  1.00  0.00     0.066 A 
HETATM   21  C   UNL     1     -43.384  58.382 -59.273  1.00  0.00     0.164 A 
HETATM   22  N   UNL     1     -43.815  57.824 -60.421  1.00  0.00    -0.237 NA
HETATM   23  C   UNL     1     -43.914  56.478 -60.434  1.00  0.00     0.120 A 
HETATM   24  C   UNL     1     -43.611  55.672 -59.350  1.00  0.00     0.028 A 
BRANCH  21  25
HETATM   25  O   UNL     1     -43.259  59.756 -59.194  1.00  0.00    -0.329 OA
BRANCH  25  26
HETATM   26  C   UNL     1     -41.914  60.275 -59.283  1.00  0.00     0.130 C 
HETATM   27  C   UNL     1     -41.733  61.628 -60.022  1.00  0.00     0.032 C 
HETATM   28  C   UNL     1     -40.710  62.014 -58.939  1.00  0.00     0.005 C 
HETATM   29  C   UNL     1     -41.418  61.011 -58.010  1.00  0.00     0.032 C 
ENDBRANCH  25  26
ENDBRANCH  21  25
ENDBRANCH  18  19
ENDBRANCH   3  18
TORSDOF 7
ENDMDL
MODEL 5
REMARK VINA RESULT:      -7.8      1.909      3.693
REMARK  7 active torsions:
REMARK  status: ('A' for Active; 'I' for Inactive)
REMARK    1  A    between atoms: C_4  and  C_5 
REMARK    2  A    between atoms: C_5  and  N_6 
REMARK       I    between atoms: N_6  and  C_7 
REMARK       I    between atoms: C_7  and  N_8 
REMARK    3  A    between atoms: N_8  and  C_9 
REMARK    4  A    between atoms: C_9  and  C_10 
REMARK    5  A    between atoms: C_12  and  O_13 
REMARK    6  A    between atoms: O_13  and  C_14 
REMARK    7  A    between atoms: C_23  and  O_24 
ROOT
HETATM    1  N   UNL     1     -42.195  54.765 -54.226  1.00  0.00    -0.335 N 
HETATM    2  C   UNL     1     -43.396  54.666 -54.856  1.00  0.00     0.316 C 
HETATM    3  N   UNL     1     -44.327  55.593 -54.513  1.00  0.00    -0.339 N 
HETATM    4  O   UNL     1     -43.670  53.833 -55.711  1.00  0.00    -0.247 OA
HETATM    5  H   UNL     1     -42.189  55.240 -53.341  1.00  0.00     0.165 HD
HETATM    6  H   UNL     1     -45.186  55.488 -55.038  1.00  0.00     0.164 HD
ENDROOT
BRANCH   1   7
HETATM    7  C   UNL     1     -41.128  53.794 -54.445  1.00  0.00     0.118 C 
HETATM    8  C   UNL     1     -39.952  54.491 -55.133  1.00  0.00     0.037 C 
BRANCH   7   9
HETATM    9  C   UNL     1     -40.655  53.116 -53.160  1.00  0.00    -0.002 A 
HETATM   10  C   UNL     1     -40.694  53.784 -51.918  1.00  0.00     0.018 A 
HETATM   11  C   UNL     1     -40.233  53.174 -50.745  1.00  0.00    -0.061 A 
HETATM   12  C   UNL     1     -40.281  53.894 -49.430  1.00  0.00     0.048 C 
HETATM   13  C   UNL     1     -39.712  51.881 -50.815  1.00  0.00     0.009 A 
HETATM   14  C   UNL     1     -39.650  51.207 -52.037  1.00  0.00     0.038 A 
HETATM   15  C   UNL     1     -40.115  51.813 -53.209  1.00  0.00     0.076 A 
BRANCH  15  16
HETATM   16  O   UNL     1     -40.056  51.232 -54.450  1.00  0.00    -0.355 OA
HETATM   17  C   UNL     1     -39.770  49.841 -54.511  1.00  0.00     0.210 C 
ENDBRANCH  15  16
ENDBRANCH   7   9
ENDBRANCH   1   7
BRANCH   3  18
HETATM   18  C   UNL     1     -44.189  56.752 -53.659  1.00  0.00     0.163 C 
BRANCH  18  19
HETATM   19  C   UNL     1     -43.323  57.823 -54.269  1.00  0.00    -0.035 A 
HETATM   20  C   UNL     1     -43.503  58.205 -55.601  1.00  0.00     0.066 A 
HETATM   21  C   UNL     1     -42.691  59.199 -56.123  1.00  0.00     0.164 A 
HETATM   22  N   UNL     1     -41.734  59.839 -55.423  1.00  0.00    -0.237 NA
HETATM   23  C   UNL     1     -41.588  59.472 -54.133  1.00  0.00     0.120 A 
HETATM   24  C   UNL     1     -42.347  58.489 -53.519  1.00  0.00     0.028 A 
BRANCH  21  25
HETATM   25  O   UNL     1     -42.892  59.529 -57.450  1.00  0.00    -0.329 OA
BRANCH  25  26
HETATM   26  C   UNL     1     -42.000  58.905 -58.399  1.00  0.00     0.130 C 
HETATM   27  C   UNL     1     -42.438  57.533 -58.976  1.00  0.00     0.032 C 
HETATM   28  C   UNL     1     -41.902  58.003 -60.340  1.00  0.00     0.005 C 
HETATM   29  C   UNL     1     -42.114  59.446 -59.849  1.00  0.00     0.032 C 
ENDBRANCH  25  26
ENDBRANCH  21  25
ENDBRANCH  18  19
ENDBRANCH   3  18
TORSDOF 7
ENDMDL
MODEL 6
REMARK VINA RESULT:      -7.7      3.035      4.107
REMARK  7 active torsions:
REMARK  status: ('A' for Active; 'I' for Inactive)
REMARK    1  A    between atoms: C_4  and  C_5 
REMARK    2  A    between atoms: C_5  and  N_6 
REMARK       I    between atoms: N_6  and  C_7 
REMARK       I    between atoms: C_7  and  N_8 
REMARK    3  A    between atoms: N_8  and  C_9 
REMARK    4  A    between atoms: C_9  and  C_10 
REMARK    5  A    between atoms: C_12  and  O_13 
REMARK    6  A    between atoms: O_13  and  C_14 
REMARK    7  A    between atoms: C_23  and  O_24 
ROOT
HETATM    1  N   UNL     1     -42.291  55.247 -53.383  1.00  0.00    -0.335 N 
HETATM    2  C   UNL     1     -43.450  55.775 -53.859  1.00  0.00     0.316 C 
HETATM    3  N   UNL     1     -44.258  56.364 -52.940  1.00  0.00    -0.339 N 
HETATM    4  O   UNL     1     -43.784  55.778 -55.037  1.00  0.00    -0.247 OA
HETATM    5  H   UNL     1     -42.274  55.003 -52.409  1.00  0.00     0.165 HD
HETATM    6  H   UNL     1     -45.087  56.766 -53.359  1.00  0.00     0.164 HD
ENDROOT
BRANCH   1   7
HETATM    7  C   UNL     1     -41.363  54.523 -54.247  1.00  0.00     0.118 C 
HETATM    8  C   UNL     1     -40.298  55.495 -54.759  1.00  0.00     0.037 C 
BRANCH   7   9
HETATM    9  C   UNL     1     -40.697  53.334 -53.555  1.00  0.00    -0.002 A 
HETATM   10  C   UNL     1     -40.424  52.137 -54.250  1.00  0.00     0.018 A 
HETATM   11  C   UNL     1     -39.842  51.037 -53.609  1.00  0.00    -0.061 A 
HETATM   12  C   UNL     1     -39.555  49.769 -54.358  1.00  0.00     0.048 C 
HETATM   13  C   UNL     1     -39.537  51.129 -52.249  1.00  0.00     0.009 A 
HETATM   14  C   UNL     1     -39.812  52.300 -51.539  1.00  0.00     0.038 A 
HETATM   15  C   UNL     1     -40.390  53.401 -52.179  1.00  0.00     0.076 A 
BRANCH  15  16
HETATM   16  O   UNL     1     -40.722  54.572 -51.545  1.00  0.00    -0.355 OA
HETATM   17  C   UNL     1     -40.471  54.656 -50.148  1.00  0.00     0.210 C 
ENDBRANCH  15  16
ENDBRANCH   7   9
ENDBRANCH   1   7
BRANCH   3  18
HETATM   18  C   UNL     1     -44.010  56.619 -51.538  1.00  0.00     0.163 C 
BRANCH  18  19
HETATM   19  C   UNL     1     -43.468  58.002 -51.287  1.00  0.00    -0.035 A 
HETATM   20  C   UNL     1     -44.336  59.070 -51.048  1.00  0.00     0.066 A 
HETATM   21  C   UNL     1     -43.797  60.326 -50.815  1.00  0.00     0.164 A 
HETATM   22  N   UNL     1     -42.476  60.588 -50.791  1.00  0.00    -0.237 NA
HETATM   23  C   UNL     1     -41.652  59.542 -51.003  1.00  0.00     0.120 A 
HETATM   24  C   UNL     1     -42.091  58.251 -51.248  1.00  0.00     0.028 A 
BRANCH  21  25
HETATM   25  O   UNL     1     -44.696  61.355 -50.604  1.00  0.00    -0.329 OA
BRANCH  25  26
HETATM   26  C   UNL     1     -45.545  61.224 -49.443  1.00  0.00     0.130 C 
HETATM   27  C   UNL     1     -44.863  61.373 -48.056  1.00  0.00     0.032 C 
HETATM   28  C   UNL     1     -46.103  62.162 -47.599  1.00  0.00     0.005 C 
HETATM   29  C   UNL     1     -46.349  62.501 -49.080  1.00  0.00     0.032 C 
ENDBRANCH  25  26
ENDBRANCH  21  25
ENDBRANCH  18  19
ENDBRANCH   3  18
TORSDOF 7
ENDMDL
MODEL 7
REMARK VINA RESULT:      -7.6      3.396      5.923
REMARK  7 active torsions:
REMARK  status: ('A' for Active; 'I' for Inactive)
REMARK    1  A    between atoms: C_4  and  C_5 
REMARK    2  A    between atoms: C_5  and  N_6 
REMARK       I    between atoms: N_6  and  C_7 
REMARK       I    between atoms: C_7  and  N_8 
REMARK    3  A    between atoms: N_8  and  C_9 
REMARK    4  A    between atoms: C_9  and  C_10 
REMARK    5  A    between atoms: C_12  and  O_13 
REMARK    6  A    between atoms: O_13  and  C_14 
REMARK    7  A    between atoms: C_23  and  O_24 
ROOT
HETATM    1  N   UNL     1     -42.893  56.004 -54.949  1.00  0.00    -0.335 N 
HETATM    2  C   UNL     1     -43.816  57.003 -54.938  1.00  0.00     0.316 C 
HETATM    3  N   UNL     1     -43.389  58.212 -55.384  1.00  0.00    -0.339 N 
HETATM    4  O   UNL     1     -44.983  56.872 -54.590  1.00  0.00    -0.247 OA
HETATM    5  H   UNL     1     -41.928  56.282 -54.926  1.00  0.00     0.165 HD
HETATM    6  H   UNL     1     -44.128  58.904 -55.383  1.00  0.00     0.164 HD
ENDROOT
BRANCH   1   7
HETATM    7  C   UNL     1     -43.193  54.672 -54.431  1.00  0.00     0.118 C 
HETATM    8  C   UNL     1     -43.492  53.737 -55.605  1.00  0.00     0.037 C 
BRANCH   7   9
HETATM    9  C   UNL     1     -42.071  54.091 -53.572  1.00  0.00    -0.002 A 
HETATM   10  C   UNL     1     -41.314  52.981 -54.002  1.00  0.00     0.018 A 
HETATM   11  C   UNL     1     -40.307  52.429 -53.202  1.00  0.00    -0.061 A 
HETATM   12  C   UNL     1     -39.507  51.249 -53.670  1.00  0.00     0.048 C 
HETATM   13  C   UNL     1     -40.058  52.988 -51.946  1.00  0.00     0.009 A 
HETATM   14  C   UNL     1     -40.806  54.077 -51.495  1.00  0.00     0.038 A 
HETATM   15  C   UNL     1     -41.810  54.632 -52.295  1.00  0.00     0.076 A 
BRANCH  15  16
HETATM   16  O   UNL     1     -42.609  55.679 -51.910  1.00  0.00    -0.355 OA
HETATM   17  C   UNL     1     -42.140  56.511 -50.857  1.00  0.00     0.210 C 
ENDBRANCH  15  16
ENDBRANCH   7   9
ENDBRANCH   1   7
BRANCH   3  18
HETATM   18  C   UNL     1     -42.122  58.569 -55.985  1.00  0.00     0.163 C 
BRANCH  18  19
HETATM   19  C   UNL     1     -42.200  58.669 -57.485  1.00  0.00    -0.035 A 
HETATM   20  C   UNL     1     -42.587  57.565 -58.250  1.00  0.00     0.066 A 
HETATM   21  C   UNL     1     -42.653  57.700 -59.628  1.00  0.00     0.164 A 
HETATM   22  N   UNL     1     -42.377  58.841 -60.289  1.00  0.00    -0.237 NA
HETATM   23  C   UNL     1     -42.025  59.903 -59.534  1.00  0.00     0.120 A 
HETATM   24  C   UNL     1     -41.928  59.869 -58.153  1.00  0.00     0.028 A 
BRANCH  21  25
HETATM   25  O   UNL     1     -43.021  56.576 -60.342  1.00  0.00    -0.329 OA
BRANCH  25  26
HETATM   26  C   UNL     1     -44.317  56.023 -60.027  1.00  0.00     0.130 C 
HETATM   27  C   UNL     1     -45.539  56.966 -60.187  1.00  0.00     0.032 C 
HETATM   28  C   UNL     1     -46.311  55.769 -60.769  1.00  0.00     0.005 C 
HETATM   29  C   UNL     1     -44.948  55.166 -61.156  1.00  0.00     0.032 C 
ENDBRANCH  25  26
ENDBRANCH  21  25
ENDBRANCH  18  19
ENDBRANCH   3  18
TORSDOF 7
ENDMDL
MODEL 8
REMARK VINA RESULT:      -7.4      3.245      5.844
REMARK  7 active torsions:
REMARK  status: ('A' for Active; 'I' for Inactive)
REMARK    1  A    between atoms: C_4  and  C_5 
REMARK    2  A    between atoms: C_5  and  N_6 
REMARK       I    between atoms: N_6  and  C_7 
REMARK       I    between atoms: C_7  and  N_8 
REMARK    3  A    between atoms: N_8  and  C_9 
REMARK    4  A    between atoms: C_9  and  C_10 
REMARK    5  A    between atoms: C_12  and  O_13 
REMARK    6  A    between atoms: O_13  and  C_14 
REMARK    7  A    between atoms: C_23  and  O_24 
ROOT
HETATM    1  N   UNL     1     -43.713  55.904 -51.894  1.00  0.00    -0.335 N 
HETATM    2  C   UNL     1     -43.181  57.147 -52.042  1.00  0.00     0.316 C 
HETATM    3  N   UNL     1     -43.619  57.859 -53.112  1.00  0.00    -0.339 N 
HETATM    4  O   UNL     1     -42.377  57.659 -51.272  1.00  0.00    -0.247 OA
HETATM    5  H   UNL     1     -44.080  55.470 -52.722  1.00  0.00     0.165 HD
HETATM    6  H   UNL     1     -43.212  58.785 -53.150  1.00  0.00     0.164 HD
ENDROOT
BRANCH   1   7
HETATM    7  C   UNL     1     -43.282  55.003 -50.830  1.00  0.00     0.118 C 
HETATM    8  C   UNL     1     -44.450  54.095 -50.441  1.00  0.00     0.037 C 
BRANCH   7   9
HETATM    9  C   UNL     1     -42.066  54.158 -51.210  1.00  0.00    -0.002 A 
HETATM   10  C   UNL     1     -41.842  53.749 -52.541  1.00  0.00     0.018 A 
HETATM   11  C   UNL     1     -40.745  52.949 -52.884  1.00  0.00    -0.061 A 
HETATM   12  C   UNL     1     -40.516  52.520 -54.303  1.00  0.00     0.048 C 
HETATM   13  C   UNL     1     -39.864  52.542 -51.880  1.00  0.00     0.009 A 
HETATM   14  C   UNL     1     -40.076  52.924 -50.554  1.00  0.00     0.038 A 
HETATM   15  C   UNL     1     -41.169  53.726 -50.210  1.00  0.00     0.076 A 
BRANCH  15  16
HETATM   16  O   UNL     1     -41.465  54.114 -48.927  1.00  0.00    -0.355 OA
HETATM   17  C   UNL     1     -40.403  54.123 -47.983  1.00  0.00     0.210 C 
ENDBRANCH  15  16
ENDBRANCH   7   9
ENDBRANCH   1   7
BRANCH   3  18
HETATM   18  C   UNL     1     -44.663  57.535 -54.059  1.00  0.00     0.163 C 
BRANCH  18  19
HETATM   19  C   UNL     1     -44.122  57.142 -55.408  1.00  0.00    -0.035 A 
HETATM   20  C   UNL     1     -44.369  57.939 -56.529  1.00  0.00     0.066 A 
HETATM   21  C   UNL     1     -43.847  57.547 -57.752  1.00  0.00     0.164 A 
HETATM   22  N   UNL     1     -43.100  56.441 -57.935  1.00  0.00    -0.237 NA
HETATM   23  C   UNL     1     -42.854  55.694 -56.839  1.00  0.00     0.120 A 
HETATM   24  C   UNL     1     -43.332  55.999 -55.575  1.00  0.00     0.028 A 
BRANCH  21  25
HETATM   25  O   UNL     1     -44.135  58.357 -58.835  1.00  0.00    -0.329 OA
BRANCH  25  26
HETATM   26  C   UNL     1     -45.039  57.803 -59.815  1.00  0.00     0.130 C 
HETATM   27  C   UNL     1     -46.316  57.106 -59.276  1.00  0.00     0.032 C 
HETATM   28  C   UNL     1     -47.088  57.754 -60.439  1.00  0.00     0.005 C 
HETATM   29  C   UNL     1     -45.993  58.835 -60.474  1.00  0.00     0.032 C 
ENDBRANCH  25  26
ENDBRANCH  21  25
ENDBRANCH  18  19
ENDBRANCH   3  18
TORSDOF 7
ENDMDL
MODEL 9
REMARK VINA RESULT:      -7.3      2.287      5.783
REMARK  7 active torsions:
REMARK  status: ('A' for Active; 'I' for Inactive)
REMARK    1  A    between atoms: C_4  and  C_5 
REMARK    2  A    between atoms: C_5  and  N_6 
REMARK       I    between atoms: N_6  and  C_7 
REMARK       I    between atoms: C_7  and  N_8 
REMARK    3  A    between atoms: N_8  and  C_9 
REMARK    4  A    between atoms: C_9  and  C_10 
REMARK    5  A    between atoms: C_12  and  O_13 
REMARK    6  A    between atoms: O_13  and  C_14 
REMARK    7  A    between atoms: C_23  and  O_24 
ROOT
HETATM    1  N   UNL     1     -43.149  59.325 -53.426  1.00  0.00    -0.335 N 
HETATM    2  C   UNL     1     -42.044  59.619 -54.163  1.00  0.00     0.316 C 
HETATM    3  N   UNL     1     -42.185  59.523 -55.510  1.00  0.00    -0.339 N 
HETATM    4  O   UNL     1     -40.971  59.983 -53.699  1.00  0.00    -0.247 OA
HETATM    5  H   UNL     1     -43.836  58.735 -53.860  1.00  0.00     0.165 HD
HETATM    6  H   UNL     1     -41.341  59.786 -56.004  1.00  0.00     0.164 HD
ENDROOT
BRANCH   1   7
HETATM    7  C   UNL     1     -43.121  59.317 -51.966  1.00  0.00     0.118 C 
HETATM    8  C   UNL     1     -44.529  59.601 -51.439  1.00  0.00     0.037 C 
BRANCH   7   9
HETATM    9  C   UNL     1     -42.597  58.007 -51.379  1.00  0.00    -0.002 A 
HETATM   10  C   UNL     1     -43.347  56.815 -51.455  1.00  0.00     0.018 A 
HETATM   11  C   UNL     1     -42.880  55.622 -50.890  1.00  0.00    -0.061 A 
HETATM   12  C   UNL     1     -43.686  54.359 -50.977  1.00  0.00     0.048 C 
HETATM   13  C   UNL     1     -41.650  55.621 -50.229  1.00  0.00     0.009 A 
HETATM   14  C   UNL     1     -40.899  56.794 -50.130  1.00  0.00     0.038 A 
HETATM   15  C   UNL     1     -41.361  57.986 -50.697  1.00  0.00     0.076 A 
BRANCH  15  16
HETATM   16  O   UNL     1     -40.699  59.185 -50.613  1.00  0.00    -0.355 OA
HETATM   17  C   UNL     1     -39.298  59.180 -50.855  1.00  0.00     0.210 C 
ENDBRANCH  15  16
ENDBRANCH   7   9
ENDBRANCH   1   7
BRANCH   3  18
HETATM   18  C   UNL     1     -43.378  59.269 -56.288  1.00  0.00     0.163 C 
BRANCH  18  19
HETATM   19  C   UNL     1     -43.345  57.931 -56.979  1.00  0.00    -0.035 A 
HETATM   20  C   UNL     1     -43.020  56.774 -56.267  1.00  0.00     0.066 A 
HETATM   21  C   UNL     1     -43.007  55.561 -56.938  1.00  0.00     0.164 A 
HETATM   22  N   UNL     1     -43.302  55.418 -58.245  1.00  0.00    -0.237 NA
HETATM   23  C   UNL     1     -43.634  56.542 -58.912  1.00  0.00     0.120 A 
HETATM   24  C   UNL     1     -43.673  57.800 -58.334  1.00  0.00     0.028 A 
BRANCH  21  25
HETATM   25  O   UNL     1     -42.660  54.448 -56.196  1.00  0.00    -0.329 OA
BRANCH  25  26
HETATM   26  C   UNL     1     -41.966  54.706 -54.957  1.00  0.00     0.130 C 
HETATM   27  C   UNL     1     -41.961  53.563 -53.906  1.00  0.00     0.032 C 
HETATM   28  C   UNL     1     -40.495  53.925 -53.608  1.00  0.00     0.005 C 
HETATM   29  C   UNL     1     -40.427  54.524 -55.025  1.00  0.00     0.032 C 
ENDBRANCH  25  26
ENDBRANCH  21  25
ENDBRANCH  18  19
ENDBRANCH   3  18
TORSDOF 7
ENDMDL
MODEL 10
REMARK VINA RESULT:      -7.3      3.562      8.141
REMARK  7 active torsions:
REMARK  status: ('A' for Active; 'I' for Inactive)
REMARK    1  A    between atoms: C_4  and  C_5 
REMARK    2  A    between atoms: C_5  and  N_6 
REMARK       I    between atoms: N_6  and  C_7 
REMARK       I    between atoms: C_7  and  N_8 
REMARK    3  A    between atoms: N_8  and  C_9 
REMARK    4  A    between atoms: C_9  and  C_10 
REMARK    5  A    between atoms: C_12  and  O_13 
REMARK    6  A    between atoms: O_13  and  C_14 
REMARK    7  A    between atoms: C_23  and  O_24 
ROOT
HETATM    1  N   UNL     1     -43.966  56.822 -56.197  1.00  0.00    -0.335 N 
HETATM    2  C   UNL     1     -44.648  56.985 -55.032  1.00  0.00     0.316 C 
HETATM    3  N   UNL     1     -44.544  55.972 -54.135  1.00  0.00    -0.339 N 
HETATM    4  O   UNL     1     -45.307  57.976 -54.741  1.00  0.00    -0.247 OA
HETATM    5  H   UNL     1     -43.752  55.878 -56.465  1.00  0.00     0.165 HD
HETATM    6  H   UNL     1     -45.046  56.166 -53.277  1.00  0.00     0.164 HD
ENDROOT
BRANCH   1   7
HETATM    7  C   UNL     1     -44.045  57.799 -57.280  1.00  0.00     0.118 C 
HETATM    8  C   UNL     1     -42.636  58.064 -57.815  1.00  0.00     0.037 C 
BRANCH   7   9
HETATM    9  C   UNL     1     -44.965  57.364 -58.419  1.00  0.00    -0.002 A 
HETATM   10  C   UNL     1     -44.577  56.366 -59.338  1.00  0.00     0.018 A 
HETATM   11  C   UNL     1     -45.408  55.988 -60.400  1.00  0.00    -0.061 A 
HETATM   12  C   UNL     1     -44.985  54.924 -61.370  1.00  0.00     0.048 C 
HETATM   13  C   UNL     1     -46.640  56.626 -60.555  1.00  0.00     0.009 A 
HETATM   14  C   UNL     1     -47.037  57.627 -59.666  1.00  0.00     0.038 A 
HETATM   15  C   UNL     1     -46.210  58.002 -58.602  1.00  0.00     0.076 A 
BRANCH  15  16
HETATM   16  O   UNL     1     -46.512  58.998 -57.708  1.00  0.00    -0.355 OA
HETATM   17  C   UNL     1     -47.567  59.889 -58.049  1.00  0.00     0.210 C 
ENDBRANCH  15  16
ENDBRANCH   7   9
ENDBRANCH   1   7
BRANCH   3  18
HETATM   18  C   UNL     1     -43.713  54.789 -54.185  1.00  0.00     0.163 C 
BRANCH  18  19
HETATM   19  C   UNL     1     -42.694  54.749 -53.076  1.00  0.00    -0.035 A 
HETATM   20  C   UNL     1     -41.662  53.807 -53.097  1.00  0.00     0.066 A 
HETATM   21  C   UNL     1     -40.740  53.807 -52.062  1.00  0.00     0.164 A 
HETATM   22  N   UNL     1     -40.765  54.672 -51.029  1.00  0.00    -0.237 NA
HETATM   23  C   UNL     1     -41.755  55.587 -51.035  1.00  0.00     0.120 A 
HETATM   24  C   UNL     1     -42.725  55.668 -52.021  1.00  0.00     0.028 A 
BRANCH  21  25
HETATM   25  O   UNL     1     -39.750  52.845 -52.116  1.00  0.00    -0.329 OA
BRANCH  25  26
HETATM   26  C   UNL     1     -40.192  51.498 -52.394  1.00  0.00     0.130 C 
HETATM   27  C   UNL     1     -39.528  50.777 -53.598  1.00  0.00     0.032 C 
HETATM   28  C   UNL     1     -39.512  49.497 -52.744  1.00  0.00     0.005 C 
HETATM   29  C   UNL     1     -39.544  50.406 -51.502  1.00  0.00     0.032 C 
ENDBRANCH  25  26
ENDBRANCH  21  25
ENDBRANCH  18  19
ENDBRANCH   3  18
TORSDOF 7
ENDMDL
