MODEL 1
REMARK VINA RESULT:      -6.8      0.000      0.000
REMARK  5 active torsions:
REMARK  status: ('A' for Active; 'I' for Inactive)
REMARK    1  A    between atoms: C_2  and  O_3 
REMARK    2  A    between atoms: O_3  and  C_4 
REMARK    3  A    between atoms: C_10  and  N_11 
REMARK       I    between atoms: N_11  and  C_12 
REMARK       I    between atoms: C_12  and  N_13 
REMARK    4  A    between atoms: N_13  and  C_14 
REMARK    5  A    between atoms: C_14  and  C_15 
ROOT
HETATM    1  N   UNL     1     -41.319  56.453 -54.349  1.00  0.00    -0.306 N 
HETATM    2  C   UNL     1     -42.535  56.971 -54.695  1.00  0.00     0.321 C 
HETATM    3  N   UNL     1     -42.595  58.323 -54.855  1.00  0.00    -0.337 N 
HETATM    4  O   UNL     1     -43.577  56.343 -54.862  1.00  0.00    -0.247 OA
HETATM    5  H   UNL     1     -40.504  57.046 -54.506  1.00  0.00     0.171 HD
HETATM    6  H   UNL     1     -43.526  58.637 -55.094  1.00  0.00     0.164 HD
ENDROOT
BRANCH   1   7
HETATM    7  C   UNL     1     -41.002  55.102 -54.062  1.00  0.00     0.071 A 
HETATM    8  C   UNL     1     -40.774  54.748 -52.717  1.00  0.00     0.117 A 
HETATM    9  C   UNL     1     -40.341  53.452 -52.393  1.00  0.00     0.069 A 
HETATM   10 CL   UNL     1     -39.879  53.008 -50.788  1.00  0.00    -0.081 Cl
HETATM   11  C   UNL     1     -40.233  52.482 -53.390  1.00  0.00     0.027 A 
HETATM   12  C   UNL     1     -40.533  52.807 -54.711  1.00  0.00     0.004 A 
HETATM   13  C   UNL     1     -40.907  54.112 -55.045  1.00  0.00     0.032 A 
BRANCH   8  14
HETATM   14  O   UNL     1     -40.909  55.731 -51.762  1.00  0.00    -0.343 OA
BRANCH  14  15
HETATM   15  C   UNL     1     -42.035  55.510 -50.891  1.00  0.00     0.121 C 
HETATM   16  C   UNL     1     -43.113  56.562 -51.140  1.00  0.00     0.040 C 
HETATM   17  C   UNL     1     -41.520  55.619 -49.458  1.00  0.00     0.040 C 
ENDBRANCH  14  15
ENDBRANCH   8  14
ENDBRANCH   1   7
BRANCH   3  18
HETATM   18  C   UNL     1     -41.597  59.319 -54.525  1.00  0.00     0.183 C 
BRANCH  18  19
HETATM   19  C   UNL     1     -41.396  59.455 -53.035  1.00  0.00     0.053 A 
HETATM   20  N   UNL     1     -40.218  58.997 -52.541  1.00  0.00    -0.264 NA
HETATM   21  C   UNL     1     -39.983  59.157 -51.219  1.00  0.00     0.118 A 
HETATM   22  C   UNL     1     -40.875  59.752 -50.352  1.00  0.00     0.043 A 
HETATM   23  C   UNL     1     -42.071  60.216 -50.882  1.00  0.00     0.037 A 
HETATM   24 CL   UNL     1     -43.222  60.973 -49.852  1.00  0.00    -0.084 Cl
HETATM   25  C   UNL     1     -42.345  60.080 -52.238  1.00  0.00     0.052 A 
ENDBRANCH  18  19
ENDBRANCH   3  18
TORSDOF 5
ENDMDL
MODEL 2
REMARK VINA RESULT:      -6.7      3.832      5.674
REMARK  5 active torsions:
REMARK  status: ('A' for Active; 'I' for Inactive)
REMARK    1  A    between atoms: C_2  and  O_3 
REMARK    2  A    between atoms: O_3  and  C_4 
REMARK    3  A    between atoms: C_10  and  N_11 
REMARK       I    between atoms: N_11  and  C_12 
REMARK       I    between atoms: C_12  and  N_13 
REMARK    4  A    between atoms: N_13  and  C_14 
REMARK    5  A    between atoms: C_14  and  C_15 
ROOT
HETATM    1  N   UNL     1     -41.452  53.876 -54.554  1.00  0.00    -0.306 N 
HETATM    2  C   UNL     1     -40.915  54.962 -55.186  1.00  0.00     0.321 C 
HETATM    3  N   UNL     1     -41.689  55.552 -56.140  1.00  0.00    -0.337 N 
HETATM    4  O   UNL     1     -39.805  55.447 -54.991  1.00  0.00    -0.247 OA
HETATM    5  H   UNL     1     -42.462  53.753 -54.626  1.00  0.00     0.171 HD
HETATM    6  H   UNL     1     -41.223  56.337 -56.576  1.00  0.00     0.164 HD
ENDROOT
BRANCH   1   7
HETATM    7  C   UNL     1     -40.840  53.050 -53.579  1.00  0.00     0.071 A 
HETATM    8  C   UNL     1     -40.784  53.524 -52.253  1.00  0.00     0.117 A 
HETATM    9  C   UNL     1     -40.082  52.800 -51.275  1.00  0.00     0.069 A 
HETATM   10 CL   UNL     1     -39.832  53.411 -49.678  1.00  0.00    -0.081 Cl
HETATM   11  C   UNL     1     -39.526  51.559 -51.589  1.00  0.00     0.027 A 
HETATM   12  C   UNL     1     -39.646  51.052 -52.880  1.00  0.00     0.004 A 
HETATM   13  C   UNL     1     -40.292  51.797 -53.871  1.00  0.00     0.032 A 
BRANCH   8  14
HETATM   14  O   UNL     1     -41.362  54.744 -51.981  1.00  0.00    -0.343 OA
BRANCH  14  15
HETATM   15  C   UNL     1     -42.393  54.661 -50.979  1.00  0.00     0.121 C 
HETATM   16  C   UNL     1     -43.622  53.950 -51.541  1.00  0.00     0.040 C 
HETATM   17  C   UNL     1     -42.751  56.091 -50.586  1.00  0.00     0.040 C 
ENDBRANCH  14  15
ENDBRANCH   8  14
ENDBRANCH   1   7
BRANCH   3  18
HETATM   18  C   UNL     1     -42.930  55.080 -56.720  1.00  0.00     0.183 C 
BRANCH  18  19
HETATM   19  C   UNL     1     -43.247  55.767 -58.026  1.00  0.00     0.053 A 
HETATM   20  N   UNL     1     -42.746  57.018 -58.189  1.00  0.00    -0.264 NA
HETATM   21  C   UNL     1     -42.963  57.637 -59.370  1.00  0.00     0.118 A 
HETATM   22  C   UNL     1     -43.668  57.070 -60.411  1.00  0.00     0.043 A 
HETATM   23  C   UNL     1     -44.167  55.788 -60.222  1.00  0.00     0.037 A 
HETATM   24 CL   UNL     1     -45.051  55.024 -61.485  1.00  0.00    -0.084 Cl
HETATM   25  C   UNL     1     -43.955  55.114 -59.025  1.00  0.00     0.052 A 
ENDBRANCH  18  19
ENDBRANCH   3  18
TORSDOF 5
ENDMDL
MODEL 3
REMARK VINA RESULT:      -6.5      3.174      5.493
REMARK  5 active torsions:
REMARK  status: ('A' for Active; 'I' for Inactive)
REMARK    1  A    between atoms: C_2  and  O_3 
REMARK    2  A    between atoms: O_3  and  C_4 
REMARK    3  A    between atoms: C_10  and  N_11 
REMARK       I    between atoms: N_11  and  C_12 
REMARK       I    between atoms: C_12  and  N_13 
REMARK    4  A    between atoms: N_13  and  C_14 
REMARK    5  A    between atoms: C_14  and  C_15 
ROOT
HETATM    1  N   UNL     1     -41.909  55.615 -52.703  1.00  0.00    -0.306 N 
HETATM    2  C   UNL     1     -41.599  56.831 -53.245  1.00  0.00     0.321 C 
HETATM    3  N   UNL     1     -42.299  57.196 -54.356  1.00  0.00    -0.337 N 
HETATM    4  O   UNL     1     -40.748  57.616 -52.839  1.00  0.00    -0.247 OA
HETATM    5  H   UNL     1     -42.800  55.201 -52.978  1.00  0.00     0.171 HD
HETATM    6  H   UNL     1     -42.006  58.096 -54.710  1.00  0.00     0.164 HD
ENDROOT
BRANCH   1   7
HETATM    7  C   UNL     1     -41.294  54.977 -51.598  1.00  0.00     0.071 A 
HETATM    8  C   UNL     1     -40.975  53.609 -51.719  1.00  0.00     0.117 A 
HETATM    9  C   UNL     1     -40.476  52.902 -50.613  1.00  0.00     0.069 A 
HETATM   10 CL   UNL     1     -40.229  51.191 -50.647  1.00  0.00    -0.081 Cl
HETATM   11  C   UNL     1     -40.197  53.573 -49.422  1.00  0.00     0.027 A 
HETATM   12  C   UNL     1     -40.438  54.941 -49.323  1.00  0.00     0.004 A 
HETATM   13  C   UNL     1     -40.991  55.636 -50.403  1.00  0.00     0.032 A 
BRANCH   8  14
HETATM   14  O   UNL     1     -41.248  52.988 -52.917  1.00  0.00    -0.343 OA
BRANCH  14  15
HETATM   15  C   UNL     1     -40.075  52.817 -53.736  1.00  0.00     0.121 C 
HETATM   16  C   UNL     1     -40.159  53.707 -54.974  1.00  0.00     0.040 C 
HETATM   17  C   UNL     1     -40.030  51.349 -54.150  1.00  0.00     0.040 C 
ENDBRANCH  14  15
ENDBRANCH   8  14
ENDBRANCH   1   7
BRANCH   3  18
HETATM   18  C   UNL     1     -43.196  56.397 -55.164  1.00  0.00     0.183 C 
BRANCH  18  19
HETATM   19  C   UNL     1     -43.037  56.675 -56.639  1.00  0.00     0.053 A 
HETATM   20  N   UNL     1     -42.368  57.808 -56.972  1.00  0.00    -0.264 NA
HETATM   21  C   UNL     1     -42.157  58.056 -58.283  1.00  0.00     0.118 A 
HETATM   22  C   UNL     1     -42.590  57.225 -59.296  1.00  0.00     0.043 A 
HETATM   23  C   UNL     1     -43.268  56.070 -58.930  1.00  0.00     0.037 A 
HETATM   24 CL   UNL     1     -43.828  54.991 -60.147  1.00  0.00    -0.084 Cl
HETATM   25  C   UNL     1     -43.494  55.775 -57.591  1.00  0.00     0.052 A 
ENDBRANCH  18  19
ENDBRANCH   3  18
TORSDOF 5
ENDMDL
MODEL 4
REMARK VINA RESULT:      -6.5     16.396     18.228
REMARK  5 active torsions:
REMARK  status: ('A' for Active; 'I' for Inactive)
REMARK    1  A    between atoms: C_2  and  O_3 
REMARK    2  A    between atoms: O_3  and  C_4 
REMARK    3  A    between atoms: C_10  and  N_11 
REMARK       I    between atoms: N_11  and  C_12 
REMARK       I    between atoms: C_12  and  N_13 
REMARK    4  A    between atoms: N_13  and  C_14 
REMARK    5  A    between atoms: C_14  and  C_15 
ROOT
HETATM    1  N   UNL     1     -35.739  40.738 -53.442  1.00  0.00    -0.306 N 
HETATM    2  C   UNL     1     -36.114  41.993 -53.832  1.00  0.00     0.321 C 
HETATM    3  N   UNL     1     -37.210  42.075 -54.638  1.00  0.00    -0.337 N 
HETATM    4  O   UNL     1     -35.556  43.047 -53.542  1.00  0.00    -0.247 OA
HETATM    5  H   UNL     1     -36.435  39.999 -53.535  1.00  0.00     0.171 HD
HETATM    6  H   UNL     1     -37.419  43.029 -54.900  1.00  0.00     0.164 HD
ENDROOT
BRANCH   1   7
HETATM    7  C   UNL     1     -34.612  40.374 -52.665  1.00  0.00     0.071 A 
HETATM    8  C   UNL     1     -33.562  39.686 -53.307  1.00  0.00     0.117 A 
HETATM    9  C   UNL     1     -32.479  39.198 -52.558  1.00  0.00     0.069 A 
HETATM   10 CL   UNL     1     -31.250  38.202 -53.256  1.00  0.00    -0.081 Cl
HETATM   11  C   UNL     1     -32.387  39.480 -51.195  1.00  0.00     0.027 A 
HETATM   12  C   UNL     1     -33.385  40.225 -50.572  1.00  0.00     0.004 A 
HETATM   13  C   UNL     1     -34.494  40.662 -51.302  1.00  0.00     0.032 A 
BRANCH   8  14
HETATM   14  O   UNL     1     -33.682  39.445 -54.657  1.00  0.00    -0.343 OA
BRANCH  14  15
HETATM   15  C   UNL     1     -33.047  40.456 -55.463  1.00  0.00     0.121 C 
HETATM   16  C   UNL     1     -34.009  40.961 -56.535  1.00  0.00     0.040 C 
HETATM   17  C   UNL     1     -31.829  39.808 -56.117  1.00  0.00     0.040 C 
ENDBRANCH  14  15
ENDBRANCH   8  14
ENDBRANCH   1   7
BRANCH   3  18
HETATM   18  C   UNL     1     -37.928  41.007 -55.302  1.00  0.00     0.183 C 
BRANCH  18  19
HETATM   19  C   UNL     1     -37.803  41.081 -56.804  1.00  0.00     0.053 A 
HETATM   20  N   UNL     1     -37.202  42.190 -57.307  1.00  0.00    -0.264 NA
HETATM   21  C   UNL     1     -37.022  42.260 -58.644  1.00  0.00     0.118 A 
HETATM   22  C   UNL     1     -37.421  41.271 -59.520  1.00  0.00     0.043 A 
HETATM   23  C   UNL     1     -38.029  40.146 -58.982  1.00  0.00     0.037 A 
HETATM   24 CL   UNL     1     -38.543  38.876 -60.023  1.00  0.00    -0.084 Cl
HETATM   25  C   UNL     1     -38.222  40.031 -57.610  1.00  0.00     0.052 A 
ENDBRANCH  18  19
ENDBRANCH   3  18
TORSDOF 5
ENDMDL
MODEL 5
REMARK VINA RESULT:      -6.5      2.832      6.882
REMARK  5 active torsions:
REMARK  status: ('A' for Active; 'I' for Inactive)
REMARK    1  A    between atoms: C_2  and  O_3 
REMARK    2  A    between atoms: O_3  and  C_4 
REMARK    3  A    between atoms: C_10  and  N_11 
REMARK       I    between atoms: N_11  and  C_12 
REMARK       I    between atoms: C_12  and  N_13 
REMARK    4  A    between atoms: N_13  and  C_14 
REMARK    5  A    between atoms: C_14  and  C_15 
ROOT
HETATM    1  N   UNL     1     -42.229  55.520 -52.231  1.00  0.00    -0.306 N 
HETATM    2  C   UNL     1     -42.573  54.601 -51.279  1.00  0.00     0.321 C 
HETATM    3  N   UNL     1     -41.582  53.765 -50.858  1.00  0.00    -0.337 N 
HETATM    4  O   UNL     1     -43.682  54.447 -50.778  1.00  0.00    -0.247 OA
HETATM    5  H   UNL     1     -41.234  55.706 -52.354  1.00  0.00     0.171 HD
HETATM    6  H   UNL     1     -41.911  53.104 -50.168  1.00  0.00     0.164 HD
ENDROOT
BRANCH   1   7
HETATM    7  C   UNL     1     -43.075  56.454 -52.878  1.00  0.00     0.071 A 
HETATM    8  C   UNL     1     -43.059  57.787 -52.420  1.00  0.00     0.117 A 
HETATM    9  C   UNL     1     -43.964  58.724 -52.946  1.00  0.00     0.069 A 
HETATM   10 CL   UNL     1     -44.111  60.323 -52.308  1.00  0.00    -0.081 Cl
HETATM   11  C   UNL     1     -44.811  58.364 -53.995  1.00  0.00     0.027 A 
HETATM   12  C   UNL     1     -44.775  57.068 -54.503  1.00  0.00     0.004 A 
HETATM   13  C   UNL     1     -43.918  56.117 -53.942  1.00  0.00     0.032 A 
BRANCH   8  14
HETATM   14  O   UNL     1     -42.195  58.105 -51.396  1.00  0.00    -0.343 OA
BRANCH  14  15
HETATM   15  C   UNL     1     -41.287  59.169 -51.743  1.00  0.00     0.121 C 
HETATM   16  C   UNL     1     -40.278  58.686 -52.783  1.00  0.00     0.040 C 
HETATM   17  C   UNL     1     -40.564  59.576 -50.463  1.00  0.00     0.040 C 
ENDBRANCH  14  15
ENDBRANCH   8  14
ENDBRANCH   1   7
BRANCH   3  18
HETATM   18  C   UNL     1     -40.257  53.579 -51.412  1.00  0.00     0.183 C 
BRANCH  18  19
HETATM   19  C   UNL     1     -39.979  52.136 -51.758  1.00  0.00     0.053 A 
HETATM   20  N   UNL     1     -39.866  51.276 -50.713  1.00  0.00    -0.264 NA
HETATM   21  C   UNL     1     -39.675  49.967 -50.991  1.00  0.00     0.118 A 
HETATM   22  C   UNL     1     -39.585  49.464 -52.272  1.00  0.00     0.043 A 
HETATM   23  C   UNL     1     -39.708  50.363 -53.323  1.00  0.00     0.037 A 
HETATM   24 CL   UNL     1     -39.610  49.796 -54.944  1.00  0.00    -0.084 Cl
HETATM   25  C   UNL     1     -39.916  51.715 -53.079  1.00  0.00     0.052 A 
ENDBRANCH  18  19
ENDBRANCH   3  18
TORSDOF 5
ENDMDL
MODEL 6
REMARK VINA RESULT:      -6.5      3.377      4.806
REMARK  5 active torsions:
REMARK  status: ('A' for Active; 'I' for Inactive)
REMARK    1  A    between atoms: C_2  and  O_3 
REMARK    2  A    between atoms: O_3  and  C_4 
REMARK    3  A    between atoms: C_10  and  N_11 
REMARK       I    between atoms: N_11  and  C_12 
REMARK       I    between atoms: C_12  and  N_13 
REMARK    4  A    between atoms: N_13  and  C_14 
REMARK    5  A    between atoms: C_14  and  C_15 
ROOT
HETATM    1  N   UNL     1     -41.591  54.709 -54.954  1.00  0.00    -0.306 N 
HETATM    2  C   UNL     1     -42.774  54.579 -55.628  1.00  0.00     0.321 C 
HETATM    3  N   UNL     1     -43.183  55.661 -56.348  1.00  0.00    -0.337 N 
HETATM    4  O   UNL     1     -43.506  53.594 -55.637  1.00  0.00    -0.247 OA
HETATM    5  H   UNL     1     -40.974  55.466 -55.248  1.00  0.00     0.171 HD
HETATM    6  H   UNL     1     -44.070  55.499 -56.806  1.00  0.00     0.164 HD
ENDROOT
BRANCH   1   7
HETATM    7  C   UNL     1     -40.979  53.768 -54.090  1.00  0.00     0.071 A 
HETATM    8  C   UNL     1     -40.917  54.077 -52.716  1.00  0.00     0.117 A 
HETATM    9  C   UNL     1     -40.215  53.236 -51.837  1.00  0.00     0.069 A 
HETATM   10 CL   UNL     1     -39.956  53.646 -50.178  1.00  0.00    -0.081 Cl
HETATM   11  C   UNL     1     -39.665  52.041 -52.302  1.00  0.00     0.027 A 
HETATM   12  C   UNL     1     -39.792  51.695 -53.645  1.00  0.00     0.004 A 
HETATM   13  C   UNL     1     -40.437  52.558 -54.535  1.00  0.00     0.032 A 
BRANCH   8  14
HETATM   14  O   UNL     1     -41.488  55.257 -52.295  1.00  0.00    -0.343 OA
BRANCH  14  15
HETATM   15  C   UNL     1     -42.912  55.148 -52.104  1.00  0.00     0.121 C 
HETATM   16  C   UNL     1     -43.600  56.454 -52.495  1.00  0.00     0.040 C 
HETATM   17  C   UNL     1     -43.143  54.860 -50.623  1.00  0.00     0.040 C 
ENDBRANCH  14  15
ENDBRANCH   8  14
ENDBRANCH   1   7
BRANCH   3  18
HETATM   18  C   UNL     1     -42.642  57.004 -56.353  1.00  0.00     0.183 C 
BRANCH  18  19
HETATM   19  C   UNL     1     -42.453  57.539 -57.752  1.00  0.00     0.053 A 
HETATM   20  N   UNL     1     -42.673  56.666 -58.768  1.00  0.00    -0.264 NA
HETATM   21  C   UNL     1     -42.569  57.129 -60.033  1.00  0.00     0.118 A 
HETATM   22  C   UNL     1     -42.247  58.434 -60.343  1.00  0.00     0.043 A 
HETATM   23  C   UNL     1     -42.031  59.309 -59.288  1.00  0.00     0.037 A 
HETATM   24 CL   UNL     1     -41.631  60.951 -59.610  1.00  0.00    -0.084 Cl
HETATM   25  C   UNL     1     -42.139  58.873 -57.972  1.00  0.00     0.052 A 
ENDBRANCH  18  19
ENDBRANCH   3  18
TORSDOF 5
ENDMDL
MODEL 7
REMARK VINA RESULT:      -6.5      2.025      2.649
REMARK  5 active torsions:
REMARK  status: ('A' for Active; 'I' for Inactive)
REMARK    1  A    between atoms: C_2  and  O_3 
REMARK    2  A    between atoms: O_3  and  C_4 
REMARK    3  A    between atoms: C_10  and  N_11 
REMARK       I    between atoms: N_11  and  C_12 
REMARK       I    between atoms: C_12  and  N_13 
REMARK    4  A    between atoms: N_13  and  C_14 
REMARK    5  A    between atoms: C_14  and  C_15 
ROOT
HETATM    1  N   UNL     1     -41.500  54.618 -54.988  1.00  0.00    -0.306 N 
HETATM    2  C   UNL     1     -42.701  54.537 -55.636  1.00  0.00     0.321 C 
HETATM    3  N   UNL     1     -43.051  55.610 -56.399  1.00  0.00    -0.337 N 
HETATM    4  O   UNL     1     -43.497  53.604 -55.588  1.00  0.00    -0.247 OA
HETATM    5  H   UNL     1     -40.840  55.317 -55.326  1.00  0.00     0.171 HD
HETATM    6  H   UNL     1     -43.956  55.489 -56.834  1.00  0.00     0.164 HD
ENDROOT
BRANCH   1   7
HETATM    7  C   UNL     1     -40.935  53.677 -54.092  1.00  0.00     0.071 A 
HETATM    8  C   UNL     1     -40.722  54.082 -52.758  1.00  0.00     0.117 A 
HETATM    9  C   UNL     1     -40.055  53.231 -51.862  1.00  0.00     0.069 A 
HETATM   10 CL   UNL     1     -39.612  53.734 -50.269  1.00  0.00    -0.081 Cl
HETATM   11  C   UNL     1     -39.694  51.943 -52.259  1.00  0.00     0.027 A 
HETATM   12  C   UNL     1     -39.973  51.512 -53.553  1.00  0.00     0.004 A 
HETATM   13  C   UNL     1     -40.582  52.377 -54.466  1.00  0.00     0.032 A 
BRANCH   8  14
HETATM   14  O   UNL     1     -41.110  55.354 -52.402  1.00  0.00    -0.343 OA
BRANCH  14  15
HETATM   15  C   UNL     1     -42.219  55.361 -51.483  1.00  0.00     0.121 C 
HETATM   16  C   UNL     1     -43.521  55.651 -52.226  1.00  0.00     0.040 C 
HETATM   17  C   UNL     1     -41.945  56.461 -50.460  1.00  0.00     0.040 C 
ENDBRANCH  14  15
ENDBRANCH   8  14
ENDBRANCH   1   7
BRANCH   3  18
HETATM   18  C   UNL     1     -42.422  56.913 -56.474  1.00  0.00     0.183 C 
BRANCH  18  19
HETATM   19  C   UNL     1     -42.800  57.798 -55.311  1.00  0.00     0.053 A 
HETATM   20  N   UNL     1     -44.118  58.102 -55.187  1.00  0.00    -0.264 NA
HETATM   21  C   UNL     1     -44.497  58.844 -54.123  1.00  0.00     0.118 A 
HETATM   22  C   UNL     1     -43.620  59.311 -53.167  1.00  0.00     0.043 A 
HETATM   23  C   UNL     1     -42.279  58.983 -53.313  1.00  0.00     0.037 A 
HETATM   24 CL   UNL     1     -41.136  59.531 -52.149  1.00  0.00    -0.084 Cl
HETATM   25  C   UNL     1     -41.851  58.212 -54.388  1.00  0.00     0.052 A 
ENDBRANCH  18  19
ENDBRANCH   3  18
TORSDOF 5
ENDMDL
MODEL 8
REMARK VINA RESULT:      -6.4      3.085      7.132
REMARK  5 active torsions:
REMARK  status: ('A' for Active; 'I' for Inactive)
REMARK    1  A    between atoms: C_2  and  O_3 
REMARK    2  A    between atoms: O_3  and  C_4 
REMARK    3  A    between atoms: C_10  and  N_11 
REMARK       I    between atoms: N_11  and  C_12 
REMARK       I    between atoms: C_12  and  N_13 
REMARK    4  A    between atoms: N_13  and  C_14 
REMARK    5  A    between atoms: C_14  and  C_15 
ROOT
HETATM    1  N   UNL     1     -42.375  55.794 -51.945  1.00  0.00    -0.306 N 
HETATM    2  C   UNL     1     -42.702  54.775 -51.094  1.00  0.00     0.321 C 
HETATM    3  N   UNL     1     -41.717  53.873 -50.822  1.00  0.00    -0.337 N 
HETATM    4  O   UNL     1     -43.793  54.586 -50.565  1.00  0.00    -0.247 OA
HETATM    5  H   UNL     1     -41.382  55.972 -52.090  1.00  0.00     0.171 HD
HETATM    6  H   UNL     1     -42.033  53.141 -50.201  1.00  0.00     0.164 HD
ENDROOT
BRANCH   1   7
HETATM    7  C   UNL     1     -43.222  56.817 -52.437  1.00  0.00     0.071 A 
HETATM    8  C   UNL     1     -43.188  57.095 -53.819  1.00  0.00     0.117 A 
HETATM    9  C   UNL     1     -43.918  58.177 -54.337  1.00  0.00     0.069 A 
HETATM   10 CL   UNL     1     -43.782  58.674 -55.988  1.00  0.00    -0.081 Cl
HETATM   11  C   UNL     1     -44.759  58.916 -53.505  1.00  0.00     0.027 A 
HETATM   12  C   UNL     1     -44.854  58.595 -52.153  1.00  0.00     0.004 A 
HETATM   13  C   UNL     1     -44.084  57.557 -51.622  1.00  0.00     0.032 A 
BRANCH   8  14
HETATM   14  O   UNL     1     -42.360  56.330 -54.609  1.00  0.00    -0.343 OA
BRANCH  14  15
HETATM   15  C   UNL     1     -43.057  55.260 -55.275  1.00  0.00     0.121 C 
HETATM   16  C   UNL     1     -42.518  53.908 -54.814  1.00  0.00     0.040 C 
HETATM   17  C   UNL     1     -42.818  55.434 -56.772  1.00  0.00     0.040 C 
ENDBRANCH  14  15
ENDBRANCH   8  14
ENDBRANCH   1   7
BRANCH   3  18
HETATM   18  C   UNL     1     -40.422  53.727 -51.454  1.00  0.00     0.183 C 
BRANCH  18  19
HETATM   19  C   UNL     1     -40.083  52.283 -51.735  1.00  0.00     0.053 A 
HETATM   20  N   UNL     1     -39.946  51.473 -50.655  1.00  0.00    -0.264 NA
HETATM   21  C   UNL     1     -39.700  50.163 -50.875  1.00  0.00     0.118 A 
HETATM   22  C   UNL     1     -39.578  49.610 -52.133  1.00  0.00     0.043 A 
HETATM   23  C   UNL     1     -39.727  50.458 -53.221  1.00  0.00     0.037 A 
HETATM   24 CL   UNL     1     -39.590  49.827 -54.816  1.00  0.00    -0.084 Cl
HETATM   25  C   UNL     1     -39.991  51.810 -53.037  1.00  0.00     0.052 A 
ENDBRANCH  18  19
ENDBRANCH   3  18
TORSDOF 5
ENDMDL
MODEL 9
REMARK VINA RESULT:      -6.4      2.214      3.571
REMARK  5 active torsions:
REMARK  status: ('A' for Active; 'I' for Inactive)
REMARK    1  A    between atoms: C_2  and  O_3 
REMARK    2  A    between atoms: O_3  and  C_4 
REMARK    3  A    between atoms: C_10  and  N_11 
REMARK       I    between atoms: N_11  and  C_12 
REMARK       I    between atoms: C_12  and  N_13 
REMARK    4  A    between atoms: N_13  and  C_14 
REMARK    5  A    between atoms: C_14  and  C_15 
ROOT
HETATM    1  N   UNL     1     -42.548  55.060 -52.069  1.00  0.00    -0.306 N 
HETATM    2  C   UNL     1     -43.561  55.242 -51.169  1.00  0.00     0.321 C 
HETATM    3  N   UNL     1     -44.384  56.305 -51.389  1.00  0.00    -0.337 N 
HETATM    4  O   UNL     1     -43.792  54.553 -50.180  1.00  0.00    -0.247 OA
HETATM    5  H   UNL     1     -42.638  55.536 -52.966  1.00  0.00     0.171 HD
HETATM    6  H   UNL     1     -45.098  56.387 -50.678  1.00  0.00     0.164 HD
ENDROOT
BRANCH   1   7
HETATM    7  C   UNL     1     -41.525  54.080 -52.036  1.00  0.00     0.071 A 
HETATM    8  C   UNL     1     -41.335  53.285 -53.184  1.00  0.00     0.117 A 
HETATM    9  C   UNL     1     -40.418  52.222 -53.161  1.00  0.00     0.069 A 
HETATM   10 CL   UNL     1     -40.265  51.107 -54.473  1.00  0.00    -0.081 Cl
HETATM   11  C   UNL     1     -39.618  52.013 -52.036  1.00  0.00     0.027 A 
HETATM   12  C   UNL     1     -39.749  52.846 -50.928  1.00  0.00     0.004 A 
HETATM   13  C   UNL     1     -40.702  53.868 -50.925  1.00  0.00     0.032 A 
BRANCH   8  14
HETATM   14  O   UNL     1     -42.132  53.536 -54.279  1.00  0.00    -0.343 OA
BRANCH  14  15
HETATM   15  C   UNL     1     -41.410  54.150 -55.364  1.00  0.00     0.121 C 
HETATM   16  C   UNL     1     -40.209  54.927 -54.829  1.00  0.00     0.040 C 
HETATM   17  C   UNL     1     -42.378  55.100 -56.064  1.00  0.00     0.040 C 
ENDBRANCH  14  15
ENDBRANCH   8  14
ENDBRANCH   1   7
BRANCH   3  18
HETATM   18  C   UNL     1     -44.228  57.390 -52.336  1.00  0.00     0.183 C 
BRANCH  18  19
HETATM   19  C   UNL     1     -42.811  57.907 -52.386  1.00  0.00     0.053 A 
HETATM   20  N   UNL     1     -42.168  57.795 -53.576  1.00  0.00    -0.264 NA
HETATM   21  C   UNL     1     -40.919  58.301 -53.670  1.00  0.00     0.118 A 
HETATM   22  C   UNL     1     -40.265  58.917 -52.623  1.00  0.00     0.043 A 
HETATM   23  C   UNL     1     -40.944  59.023 -51.418  1.00  0.00     0.037 A 
HETATM   24 CL   UNL     1     -40.184  59.786 -50.076  1.00  0.00    -0.084 Cl
HETATM   25  C   UNL     1     -42.235  58.525 -51.285  1.00  0.00     0.052 A 
ENDBRANCH  18  19
ENDBRANCH   3  18
TORSDOF 5
ENDMDL
MODEL 10
REMARK VINA RESULT:      -6.3      3.814      5.995
REMARK  5 active torsions:
REMARK  status: ('A' for Active; 'I' for Inactive)
REMARK    1  A    between atoms: C_2  and  O_3 
REMARK    2  A    between atoms: O_3  and  C_4 
REMARK    3  A    between atoms: C_10  and  N_11 
REMARK       I    between atoms: N_11  and  C_12 
REMARK       I    between atoms: C_12  and  N_13 
REMARK    4  A    between atoms: N_13  and  C_14 
REMARK    5  A    between atoms: C_14  and  C_15 
ROOT
HETATM    1  N   UNL     1     -42.390  56.294 -54.046  1.00  0.00    -0.306 N 
HETATM    2  C   UNL     1     -43.674  56.660 -54.336  1.00  0.00     0.321 C 
HETATM    3  N   UNL     1     -43.971  56.836 -55.654  1.00  0.00    -0.337 N 
HETATM    4  O   UNL     1     -44.578  56.859 -53.530  1.00  0.00    -0.247 OA
HETATM    5  H   UNL     1     -41.835  55.912 -54.811  1.00  0.00     0.171 HD
HETATM    6  H   UNL     1     -44.931  57.121 -55.793  1.00  0.00     0.164 HD
ENDROOT
BRANCH   1   7
HETATM    7  C   UNL     1     -41.810  56.110 -52.767  1.00  0.00     0.071 A 
HETATM    8  C   UNL     1     -41.450  54.801 -52.386  1.00  0.00     0.117 A 
HETATM    9  C   UNL     1     -40.984  54.549 -51.086  1.00  0.00     0.069 A 
HETATM   10 CL   UNL     1     -40.691  52.948 -50.505  1.00  0.00    -0.081 Cl
HETATM   11  C   UNL     1     -40.777  55.607 -50.199  1.00  0.00     0.027 A 
HETATM   12  C   UNL     1     -41.059  56.911 -50.598  1.00  0.00     0.004 A 
HETATM   13  C   UNL     1     -41.579  57.160 -51.872  1.00  0.00     0.032 A 
BRANCH   8  14
HETATM   14  O   UNL     1     -41.652  53.789 -53.297  1.00  0.00    -0.343 OA
BRANCH  14  15
HETATM   15  C   UNL     1     -40.424  53.312 -53.881  1.00  0.00     0.121 C 
HETATM   16  C   UNL     1     -40.234  53.908 -55.273  1.00  0.00     0.040 C 
HETATM   17  C   UNL     1     -40.533  51.792 -53.973  1.00  0.00     0.040 C 
ENDBRANCH  14  15
ENDBRANCH   8  14
ENDBRANCH   1   7
BRANCH   3  18
HETATM   18  C   UNL     1     -43.071  56.877 -56.788  1.00  0.00     0.183 C 
BRANCH  18  19
HETATM   19  C   UNL     1     -43.766  56.531 -58.083  1.00  0.00     0.053 A 
HETATM   20  N   UNL     1     -43.343  55.407 -58.714  1.00  0.00    -0.264 NA
HETATM   21  C   UNL     1     -43.985  55.038 -59.845  1.00  0.00     0.118 A 
HETATM   22  C   UNL     1     -45.037  55.744 -60.390  1.00  0.00     0.043 A 
HETATM   23  C   UNL     1     -45.454  56.888 -59.724  1.00  0.00     0.037 A 
HETATM   24 CL   UNL     1     -46.766  57.808 -60.350  1.00  0.00    -0.084 Cl
HETATM   25  C   UNL     1     -44.827  57.294 -58.551  1.00  0.00     0.052 A 
ENDBRANCH  18  19
ENDBRANCH   3  18
TORSDOF 5
ENDMDL
