MODEL 1
REMARK VINA RESULT:      -8.3      0.000      0.000
REMARK  4 active torsions:
REMARK  status: ('A' for Active; 'I' for Inactive)
REMARK    1  A    between atoms: C_5  and  N_6 
REMARK       I    between atoms: N_6  and  C_7 
REMARK    2  A    between atoms: C_7  and  C_8 
REMARK    3  A    between atoms: C_8  and  N_9 
REMARK    4  A    between atoms: C_11  and  C_12 
REMARK       I    between atoms: C_12  and  N_13 
ROOT
HETATM    1  N   UNL     1     -40.903  54.407 -51.494  1.00  0.00    -0.325 N 
HETATM    2  C   UNL     1     -42.168  54.795 -51.081  1.00  0.00     0.240 C 
HETATM    3  O   UNL     1     -43.236  54.301 -51.432  1.00  0.00    -0.271 OA
HETATM    4  H   UNL     1     -40.103  54.811 -51.026  1.00  0.00     0.169 HD
ENDROOT
BRANCH   2   5
HETATM    5  C   UNL     1     -42.160  55.942 -50.083  1.00  0.00     0.230 C 
BRANCH   5   6
HETATM    6  N   UNL     1     -41.917  57.219 -50.802  1.00  0.00    -0.357 N 
HETATM    7  C   UNL     1     -40.654  57.705 -50.882  1.00  0.00     0.108 A 
HETATM    8  C   UNL     1     -40.377  58.856 -51.619  1.00  0.00     0.047 A 
HETATM    9  C   UNL     1     -41.419  59.522 -52.258  1.00  0.00     0.020 A 
HETATM   10  C   UNL     1     -42.709  59.007 -52.165  1.00  0.00     0.018 A 
HETATM   11  C   UNL     1     -42.936  57.842 -51.438  1.00  0.00     0.091 A 
BRANCH   8  12
HETATM   12  C   UNL     1     -38.971  59.303 -51.646  1.00  0.00     0.250 C 
HETATM   13  N   UNL     1     -38.413  59.771 -50.495  1.00  0.00    -0.366 N 
HETATM   14  H   UNL     1     -38.917  59.983 -49.646  1.00  0.00     0.159 HD
HETATM   15  H   UNL     1     -37.466  60.132 -50.560  1.00  0.00     0.159 HD
HETATM   16  O   UNL     1     -38.353  59.267 -52.701  1.00  0.00    -0.268 OA
ENDBRANCH   8  12
ENDBRANCH   5   6
ENDBRANCH   2   5
BRANCH   1  17
HETATM   17  C   UNL     1     -40.585  53.442 -52.494  1.00  0.00     0.045 A 
HETATM   18  C   UNL     1     -40.244  52.106 -52.101  1.00  0.00     0.001 A 
HETATM   19  C   UNL     1     -39.888  51.175 -53.114  1.00  0.00    -0.024 A 
HETATM   20  C   UNL     1     -40.247  51.617 -50.764  1.00  0.00     0.014 A 
HETATM   21  C   UNL     1     -39.549  49.853 -52.786  1.00  0.00     0.012 A 
HETATM   22  C   UNL     1     -39.877  51.564 -54.458  1.00  0.00     0.012 A 
HETATM   23  C   UNL     1     -39.557  49.415 -51.465  1.00  0.00     0.001 A 
HETATM   24  C   UNL     1     -39.907  50.296 -50.454  1.00  0.00     0.001 A 
HETATM   25  C   UNL     1     -40.213  52.860 -54.825  1.00  0.00     0.003 A 
HETATM   26  C   UNL     1     -40.563  53.791 -53.852  1.00  0.00     0.030 A 
ENDBRANCH   1  17
TORSDOF 4
ENDMDL
MODEL 2
REMARK VINA RESULT:      -8.3      4.857      6.434
REMARK  4 active torsions:
REMARK  status: ('A' for Active; 'I' for Inactive)
REMARK    1  A    between atoms: C_5  and  N_6 
REMARK       I    between atoms: N_6  and  C_7 
REMARK    2  A    between atoms: C_7  and  C_8 
REMARK    3  A    between atoms: C_8  and  N_9 
REMARK    4  A    between atoms: C_11  and  C_12 
REMARK       I    between atoms: C_12  and  N_13 
ROOT
HETATM    1  N   UNL     1     -41.734  55.868 -54.838  1.00  0.00    -0.325 N 
HETATM    2  C   UNL     1     -43.068  56.115 -55.124  1.00  0.00     0.240 C 
HETATM    3  O   UNL     1     -44.027  55.422 -54.796  1.00  0.00    -0.271 OA
HETATM    4  H   UNL     1     -41.058  56.588 -55.054  1.00  0.00     0.169 HD
ENDROOT
BRANCH   2   5
HETATM    5  C   UNL     1     -43.296  57.395 -55.911  1.00  0.00     0.230 C 
BRANCH   5   6
HETATM    6  N   UNL     1     -42.983  57.156 -57.343  1.00  0.00    -0.357 N 
HETATM    7  C   UNL     1     -43.666  56.200 -58.020  1.00  0.00     0.108 A 
HETATM    8  C   UNL     1     -43.457  56.004 -59.385  1.00  0.00     0.047 A 
HETATM    9  C   UNL     1     -42.517  56.788 -60.048  1.00  0.00     0.020 A 
HETATM   10  C   UNL     1     -41.827  57.765 -59.336  1.00  0.00     0.018 A 
HETATM   11  C   UNL     1     -42.084  57.942 -57.980  1.00  0.00     0.091 A 
BRANCH   8  12
HETATM   12  C   UNL     1     -44.250  54.941 -60.030  1.00  0.00     0.250 C 
HETATM   13  N   UNL     1     -44.580  53.839 -59.302  1.00  0.00    -0.366 N 
HETATM   14  H   UNL     1     -44.206  53.607 -58.392  1.00  0.00     0.159 HD
HETATM   15  H   UNL     1     -45.069  53.095 -59.791  1.00  0.00     0.159 HD
HETATM   16  O   UNL     1     -44.567  55.062 -61.206  1.00  0.00    -0.268 OA
ENDBRANCH   8  12
ENDBRANCH   5   6
ENDBRANCH   2   5
BRANCH   1  17
HETATM   17  C   UNL     1     -41.190  54.708 -54.214  1.00  0.00     0.045 A 
HETATM   18  C   UNL     1     -40.978  54.704 -52.796  1.00  0.00     0.001 A 
HETATM   19  C   UNL     1     -40.394  53.551 -52.204  1.00  0.00    -0.024 A 
HETATM   20  C   UNL     1     -41.320  55.765 -51.912  1.00  0.00     0.014 A 
HETATM   21  C   UNL     1     -40.166  53.493 -50.820  1.00  0.00     0.012 A 
HETATM   22  C   UNL     1     -40.043  52.453 -52.996  1.00  0.00     0.012 A 
HETATM   23  C   UNL     1     -40.509  54.556 -49.989  1.00  0.00     0.001 A 
HETATM   24  C   UNL     1     -41.088  55.691 -50.534  1.00  0.00     0.001 A 
HETATM   25  C   UNL     1     -40.258  52.467 -54.367  1.00  0.00     0.003 A 
HETATM   26  C   UNL     1     -40.827  53.584 -54.971  1.00  0.00     0.030 A 
ENDBRANCH   1  17
TORSDOF 4
ENDMDL
MODEL 3
REMARK VINA RESULT:      -8.2      4.034      5.322
REMARK  4 active torsions:
REMARK  status: ('A' for Active; 'I' for Inactive)
REMARK    1  A    between atoms: C_5  and  N_6 
REMARK       I    between atoms: N_6  and  C_7 
REMARK    2  A    between atoms: C_7  and  C_8 
REMARK    3  A    between atoms: C_8  and  N_9 
REMARK    4  A    between atoms: C_11  and  C_12 
REMARK       I    between atoms: C_12  and  N_13 
ROOT
HETATM    1  N   UNL     1     -42.317  55.633 -52.873  1.00  0.00    -0.325 N 
HETATM    2  C   UNL     1     -41.967  56.769 -53.586  1.00  0.00     0.240 C 
HETATM    3  O   UNL     1     -40.838  57.233 -53.715  1.00  0.00    -0.271 OA
HETATM    4  H   UNL     1     -43.263  55.288 -52.957  1.00  0.00     0.169 HD
ENDROOT
BRANCH   2   5
HETATM    5  C   UNL     1     -43.144  57.451 -54.264  1.00  0.00     0.230 C 
BRANCH   5   6
HETATM    6  N   UNL     1     -42.800  57.734 -55.680  1.00  0.00    -0.357 N 
HETATM    7  C   UNL     1     -43.023  56.783 -56.620  1.00  0.00     0.108 A 
HETATM    8  C   UNL     1     -42.789  57.043 -57.970  1.00  0.00     0.047 A 
HETATM    9  C   UNL     1     -42.299  58.291 -58.347  1.00  0.00     0.020 A 
HETATM   10  C   UNL     1     -42.077  59.255 -57.368  1.00  0.00     0.018 A 
HETATM   11  C   UNL     1     -42.346  58.959 -56.035  1.00  0.00     0.091 A 
BRANCH   8  12
HETATM   12  C   UNL     1     -43.065  55.944 -58.914  1.00  0.00     0.250 C 
HETATM   13  N   UNL     1     -43.955  54.979 -58.551  1.00  0.00    -0.366 N 
HETATM   14  H   UNL     1     -44.341  54.860 -57.626  1.00  0.00     0.159 HD
HETATM   15  H   UNL     1     -44.074  54.201 -59.194  1.00  0.00     0.159 HD
HETATM   16  O   UNL     1     -42.469  55.912 -59.983  1.00  0.00    -0.268 OA
ENDBRANCH   8  12
ENDBRANCH   5   6
ENDBRANCH   2   5
BRANCH   1  17
HETATM   17  C   UNL     1     -41.465  54.841 -52.048  1.00  0.00     0.045 A 
HETATM   18  C   UNL     1     -40.885  53.642 -52.579  1.00  0.00     0.001 A 
HETATM   19  C   UNL     1     -40.075  52.848 -51.724  1.00  0.00    -0.024 A 
HETATM   20  C   UNL     1     -41.039  53.179 -53.916  1.00  0.00     0.014 A 
HETATM   21  C   UNL     1     -39.481  51.666 -52.193  1.00  0.00     0.012 A 
HETATM   22  C   UNL     1     -39.855  53.238 -50.398  1.00  0.00     0.012 A 
HETATM   23  C   UNL     1     -39.661  51.242 -53.506  1.00  0.00     0.001 A 
HETATM   24  C   UNL     1     -40.438  51.999 -54.368  1.00  0.00     0.001 A 
HETATM   25  C   UNL     1     -40.418  54.403 -49.897  1.00  0.00     0.003 A 
HETATM   26  C   UNL     1     -41.216  55.198 -50.714  1.00  0.00     0.030 A 
ENDBRANCH   1  17
TORSDOF 4
ENDMDL
MODEL 4
REMARK VINA RESULT:      -8.1      2.890      3.780
REMARK  4 active torsions:
REMARK  status: ('A' for Active; 'I' for Inactive)
REMARK    1  A    between atoms: C_5  and  N_6 
REMARK       I    between atoms: N_6  and  C_7 
REMARK    2  A    between atoms: C_7  and  C_8 
REMARK    3  A    between atoms: C_8  and  N_9 
REMARK    4  A    between atoms: C_11  and  C_12 
REMARK       I    between atoms: C_12  and  N_13 
ROOT
HETATM    1  N   UNL     1     -41.014  54.480 -54.296  1.00  0.00    -0.325 N 
HETATM    2  C   UNL     1     -42.294  54.746 -54.754  1.00  0.00     0.240 C 
HETATM    3  O   UNL     1     -43.344  54.540 -54.152  1.00  0.00    -0.271 OA
HETATM    4  H   UNL     1     -40.232  54.820 -54.838  1.00  0.00     0.169 HD
ENDROOT
BRANCH   2   5
HETATM    5  C   UNL     1     -42.329  55.368 -56.141  1.00  0.00     0.230 C 
BRANCH   5   6
HETATM    6  N   UNL     1     -42.822  56.765 -56.041  1.00  0.00    -0.357 N 
HETATM    7  C   UNL     1     -42.187  57.635 -55.217  1.00  0.00     0.108 A 
HETATM    8  C   UNL     1     -42.569  58.975 -55.160  1.00  0.00     0.047 A 
HETATM    9  C   UNL     1     -43.632  59.413 -55.945  1.00  0.00     0.020 A 
HETATM   10  C   UNL     1     -44.271  58.505 -56.786  1.00  0.00     0.018 A 
HETATM   11  C   UNL     1     -43.841  57.182 -56.828  1.00  0.00     0.091 A 
BRANCH   8  12
HETATM   12  C   UNL     1     -41.815  59.840 -54.233  1.00  0.00     0.250 C 
HETATM   13  N   UNL     1     -42.315  61.072 -53.937  1.00  0.00    -0.366 N 
HETATM   14  H   UNL     1     -43.089  61.516 -54.410  1.00  0.00     0.159 HD
HETATM   15  H   UNL     1     -41.742  61.670 -53.349  1.00  0.00     0.159 HD
HETATM   16  O   UNL     1     -40.751  59.443 -53.778  1.00  0.00    -0.268 OA
ENDBRANCH   8  12
ENDBRANCH   5   6
ENDBRANCH   2   5
BRANCH   1  17
HETATM   17  C   UNL     1     -40.655  53.808 -53.091  1.00  0.00     0.045 A 
HETATM   18  C   UNL     1     -40.299  52.420 -53.137  1.00  0.00     0.001 A 
HETATM   19  C   UNL     1     -39.988  51.762 -51.917  1.00  0.00    -0.024 A 
HETATM   20  C   UNL     1     -40.212  51.634 -54.320  1.00  0.00     0.014 A 
HETATM   21  C   UNL     1     -39.630  50.404 -51.905  1.00  0.00     0.012 A 
HETATM   22  C   UNL     1     -40.030  52.462 -50.706  1.00  0.00     0.012 A 
HETATM   23  C   UNL     1     -39.562  49.667 -53.083  1.00  0.00     0.001 A 
HETATM   24  C   UNL     1     -39.852  50.282 -54.291  1.00  0.00     0.001 A 
HETATM   25  C   UNL     1     -40.372  53.807 -50.675  1.00  0.00     0.003 A 
HETATM   26  C   UNL     1     -40.682  54.474 -51.857  1.00  0.00     0.030 A 
ENDBRANCH   1  17
TORSDOF 4
ENDMDL
MODEL 5
REMARK VINA RESULT:      -8.0      5.420      7.077
REMARK  4 active torsions:
REMARK  status: ('A' for Active; 'I' for Inactive)
REMARK    1  A    between atoms: C_5  and  N_6 
REMARK       I    between atoms: N_6  and  C_7 
REMARK    2  A    between atoms: C_7  and  C_8 
REMARK    3  A    between atoms: C_8  and  N_9 
REMARK    4  A    between atoms: C_11  and  C_12 
REMARK       I    between atoms: C_12  and  N_13 
ROOT
HETATM    1  N   UNL     1     -41.645  56.903 -55.109  1.00  0.00    -0.325 N 
HETATM    2  C   UNL     1     -42.783  56.942 -55.899  1.00  0.00     0.240 C 
HETATM    3  O   UNL     1     -43.905  56.553 -55.587  1.00  0.00    -0.271 OA
HETATM    4  H   UNL     1     -40.816  57.377 -55.440  1.00  0.00     0.169 HD
ENDROOT
BRANCH   2   5
HETATM    5  C   UNL     1     -42.552  57.555 -57.271  1.00  0.00     0.230 C 
BRANCH   5   6
HETATM    6  N   UNL     1     -43.748  57.326 -58.121  1.00  0.00    -0.357 N 
HETATM    7  C   UNL     1     -43.814  56.208 -58.886  1.00  0.00     0.108 A 
HETATM    8  C   UNL     1     -44.956  55.919 -59.632  1.00  0.00     0.047 A 
HETATM    9  C   UNL     1     -46.030  56.804 -59.602  1.00  0.00     0.020 A 
HETATM   10  C   UNL     1     -45.944  57.946 -58.810  1.00  0.00     0.018 A 
HETATM   11  C   UNL     1     -44.794  58.183 -58.064  1.00  0.00     0.091 A 
BRANCH   8  12
HETATM   12  C   UNL     1     -44.929  54.679 -60.430  1.00  0.00     0.250 C 
HETATM   13  N   UNL     1     -44.859  53.484 -59.779  1.00  0.00    -0.366 N 
HETATM   14  H   UNL     1     -44.673  53.367 -58.793  1.00  0.00     0.159 HD
HETATM   15  H   UNL     1     -44.776  52.653 -60.356  1.00  0.00     0.159 HD
HETATM   16  O   UNL     1     -44.943  54.755 -61.651  1.00  0.00    -0.268 OA
ENDBRANCH   8  12
ENDBRANCH   5   6
ENDBRANCH   2   5
BRANCH   1  17
HETATM   17  C   UNL     1     -41.513  56.298 -53.824  1.00  0.00     0.045 A 
HETATM   18  C   UNL     1     -41.048  54.945 -53.727  1.00  0.00     0.001 A 
HETATM   19  C   UNL     1     -40.966  54.351 -52.439  1.00  0.00    -0.024 A 
HETATM   20  C   UNL     1     -40.639  54.137 -54.824  1.00  0.00     0.014 A 
HETATM   21  C   UNL     1     -40.515  53.031 -52.285  1.00  0.00     0.012 A 
HETATM   22  C   UNL     1     -41.331  55.080 -51.301  1.00  0.00     0.012 A 
HETATM   23  C   UNL     1     -40.129  52.270 -53.384  1.00  0.00     0.001 A 
HETATM   24  C   UNL     1     -40.190  52.823 -54.654  1.00  0.00     0.001 A 
HETATM   25  C   UNL     1     -41.775  56.390 -51.408  1.00  0.00     0.003 A 
HETATM   26  C   UNL     1     -41.865  56.994 -52.659  1.00  0.00     0.030 A 
ENDBRANCH   1  17
TORSDOF 4
ENDMDL
MODEL 6
REMARK VINA RESULT:      -7.9      3.912      4.911
REMARK  4 active torsions:
REMARK  status: ('A' for Active; 'I' for Inactive)
REMARK    1  A    between atoms: C_5  and  N_6 
REMARK       I    between atoms: N_6  and  C_7 
REMARK    2  A    between atoms: C_7  and  C_8 
REMARK    3  A    between atoms: C_8  and  N_9 
REMARK    4  A    between atoms: C_11  and  C_12 
REMARK       I    between atoms: C_12  and  N_13 
ROOT
HETATM    1  N   UNL     1     -42.240  55.796 -52.803  1.00  0.00    -0.325 N 
HETATM    2  C   UNL     1     -41.920  56.970 -53.467  1.00  0.00     0.240 C 
HETATM    3  O   UNL     1     -40.806  57.477 -53.561  1.00  0.00    -0.271 OA
HETATM    4  H   UNL     1     -43.173  55.423 -52.916  1.00  0.00     0.169 HD
ENDROOT
BRANCH   2   5
HETATM    5  C   UNL     1     -43.111  57.637 -54.137  1.00  0.00     0.230 C 
BRANCH   5   6
HETATM    6  N   UNL     1     -42.943  57.577 -55.611  1.00  0.00    -0.357 N 
HETATM    7  C   UNL     1     -42.482  58.667 -56.272  1.00  0.00     0.108 A 
HETATM    8  C   UNL     1     -42.234  58.621 -57.643  1.00  0.00     0.047 A 
HETATM    9  C   UNL     1     -42.487  57.443 -58.340  1.00  0.00     0.020 A 
HETATM   10  C   UNL     1     -42.959  56.333 -57.645  1.00  0.00     0.018 A 
HETATM   11  C   UNL     1     -43.170  56.417 -56.272  1.00  0.00     0.091 A 
BRANCH   8  12
HETATM   12  C   UNL     1     -41.733  59.860 -58.268  1.00  0.00     0.250 C 
HETATM   13  N   UNL     1     -42.075  60.124 -59.559  1.00  0.00    -0.366 N 
HETATM   14  H   UNL     1     -42.524  59.474 -60.189  1.00  0.00     0.159 HD
HETATM   15  H   UNL     1     -41.662  60.950 -59.983  1.00  0.00     0.159 HD
HETATM   16  O   UNL     1     -41.004  60.601 -57.623  1.00  0.00    -0.268 OA
ENDBRANCH   8  12
ENDBRANCH   5   6
ENDBRANCH   2   5
BRANCH   1  17
HETATM   17  C   UNL     1     -41.374  55.002 -51.996  1.00  0.00     0.045 A 
HETATM   18  C   UNL     1     -40.851  53.774 -52.521  1.00  0.00     0.001 A 
HETATM   19  C   UNL     1     -40.024  52.980 -51.681  1.00  0.00    -0.024 A 
HETATM   20  C   UNL     1     -41.077  53.281 -53.836  1.00  0.00     0.014 A 
HETATM   21  C   UNL     1     -39.483  51.770 -52.144  1.00  0.00     0.012 A 
HETATM   22  C   UNL     1     -39.734  53.397 -50.378  1.00  0.00     0.012 A 
HETATM   23  C   UNL     1     -39.733  51.318 -53.436  1.00  0.00     0.001 A 
HETATM   24  C   UNL     1     -40.528  52.074 -54.283  1.00  0.00     0.001 A 
HETATM   25  C   UNL     1     -40.242  54.591 -49.883  1.00  0.00     0.003 A 
HETATM   26  C   UNL     1     -41.056  55.386 -50.685  1.00  0.00     0.030 A 
ENDBRANCH   1  17
TORSDOF 4
ENDMDL
MODEL 7
REMARK VINA RESULT:      -7.9      2.876      4.251
REMARK  4 active torsions:
REMARK  status: ('A' for Active; 'I' for Inactive)
REMARK    1  A    between atoms: C_5  and  N_6 
REMARK       I    between atoms: N_6  and  C_7 
REMARK    2  A    between atoms: C_7  and  C_8 
REMARK    3  A    between atoms: C_8  and  N_9 
REMARK    4  A    between atoms: C_11  and  C_12 
REMARK       I    between atoms: C_12  and  N_13 
ROOT
HETATM    1  N   UNL     1     -43.001  54.992 -52.909  1.00  0.00    -0.325 N 
HETATM    2  C   UNL     1     -42.940  56.129 -53.699  1.00  0.00     0.240 C 
HETATM    3  O   UNL     1     -41.948  56.822 -53.910  1.00  0.00    -0.271 OA
HETATM    4  H   UNL     1     -43.849  54.442 -52.926  1.00  0.00     0.169 HD
ENDROOT
BRANCH   2   5
HETATM    5  C   UNL     1     -44.264  56.490 -54.352  1.00  0.00     0.230 C 
BRANCH   5   6
HETATM    6  N   UNL     1     -44.706  57.822 -53.867  1.00  0.00    -0.357 N 
HETATM    7  C   UNL     1     -44.855  58.027 -52.535  1.00  0.00     0.108 A 
HETATM    8  C   UNL     1     -45.187  59.287 -52.038  1.00  0.00     0.047 A 
HETATM    9  C   UNL     1     -45.389  60.338 -52.929  1.00  0.00     0.020 A 
HETATM   10  C   UNL     1     -45.230  60.108 -54.293  1.00  0.00     0.018 A 
HETATM   11  C   UNL     1     -44.875  58.840 -54.743  1.00  0.00     0.091 A 
BRANCH   8  12
HETATM   12  C   UNL     1     -45.325  59.407 -50.574  1.00  0.00     0.250 C 
HETATM   13  N   UNL     1     -44.440  60.190 -49.897  1.00  0.00    -0.366 N 
HETATM   14  H   UNL     1     -43.596  60.587 -50.286  1.00  0.00     0.159 HD
HETATM   15  H   UNL     1     -44.519  60.201 -48.885  1.00  0.00     0.159 HD
HETATM   16  O   UNL     1     -46.208  58.781 -50.004  1.00  0.00    -0.268 OA
ENDBRANCH   8  12
ENDBRANCH   5   6
ENDBRANCH   2   5
BRANCH   1  17
HETATM   17  C   UNL     1     -41.964  54.461 -52.087  1.00  0.00     0.045 A 
HETATM   18  C   UNL     1     -41.159  53.380 -52.577  1.00  0.00     0.001 A 
HETATM   19  C   UNL     1     -40.161  52.841 -51.722  1.00  0.00    -0.024 A 
HETATM   20  C   UNL     1     -41.263  52.802 -53.873  1.00  0.00     0.014 A 
HETATM   21  C   UNL     1     -39.343  51.784 -52.152  1.00  0.00     0.012 A 
HETATM   22  C   UNL     1     -39.976  53.361 -50.437  1.00  0.00     0.012 A 
HETATM   23  C   UNL     1     -39.480  51.240 -53.426  1.00  0.00     0.001 A 
HETATM   24  C   UNL     1     -40.438  51.750 -54.287  1.00  0.00     0.001 A 
HETATM   25  C   UNL     1     -40.758  54.410 -49.975  1.00  0.00     0.003 A 
HETATM   26  C   UNL     1     -41.744  54.956 -50.793  1.00  0.00     0.030 A 
ENDBRANCH   1  17
TORSDOF 4
ENDMDL
MODEL 8
REMARK VINA RESULT:      -7.9      4.644      8.113
REMARK  4 active torsions:
REMARK  status: ('A' for Active; 'I' for Inactive)
REMARK    1  A    between atoms: C_5  and  N_6 
REMARK       I    between atoms: N_6  and  C_7 
REMARK    2  A    between atoms: C_7  and  C_8 
REMARK    3  A    between atoms: C_8  and  N_9 
REMARK    4  A    between atoms: C_11  and  C_12 
REMARK       I    between atoms: C_12  and  N_13 
ROOT
HETATM    1  N   UNL     1     -41.755  55.898 -56.213  1.00  0.00    -0.325 N 
HETATM    2  C   UNL     1     -41.712  54.694 -55.529  1.00  0.00     0.240 C 
HETATM    3  O   UNL     1     -42.673  54.042 -55.132  1.00  0.00    -0.271 OA
HETATM    4  H   UNL     1     -40.894  56.262 -56.597  1.00  0.00     0.169 HD
ENDROOT
BRANCH   2   5
HETATM    5  C   UNL     1     -40.301  54.177 -55.293  1.00  0.00     0.230 C 
BRANCH   5   6
HETATM    6  N   UNL     1     -40.275  53.373 -54.044  1.00  0.00    -0.357 N 
HETATM    7  C   UNL     1     -40.015  52.044 -54.117  1.00  0.00     0.108 A 
HETATM    8  C   UNL     1     -39.900  51.274 -52.960  1.00  0.00     0.047 A 
HETATM    9  C   UNL     1     -40.078  51.880 -51.719  1.00  0.00     0.020 A 
HETATM   10  C   UNL     1     -40.342  53.246 -51.665  1.00  0.00     0.018 A 
HETATM   11  C   UNL     1     -40.426  53.980 -52.844  1.00  0.00     0.091 A 
BRANCH   8  12
HETATM   12  C   UNL     1     -39.615  49.839 -53.146  1.00  0.00     0.250 C 
HETATM   13  N   UNL     1     -39.464  49.055 -52.042  1.00  0.00    -0.366 N 
HETATM   14  H   UNL     1     -39.382  49.393 -51.093  1.00  0.00     0.159 HD
HETATM   15  H   UNL     1     -39.204  48.086 -52.200  1.00  0.00     0.159 HD
HETATM   16  O   UNL     1     -39.494  49.396 -54.280  1.00  0.00    -0.268 OA
ENDBRANCH   8  12
ENDBRANCH   5   6
ENDBRANCH   2   5
BRANCH   1  17
HETATM   17  C   UNL     1     -42.911  56.685 -56.492  1.00  0.00     0.045 A 
HETATM   18  C   UNL     1     -43.505  56.629 -57.796  1.00  0.00     0.001 A 
HETATM   19  C   UNL     1     -44.630  57.455 -58.062  1.00  0.00    -0.024 A 
HETATM   20  C   UNL     1     -43.070  55.790 -58.861  1.00  0.00     0.014 A 
HETATM   21  C   UNL     1     -45.251  57.437 -59.320  1.00  0.00     0.012 A 
HETATM   22  C   UNL     1     -45.137  58.298 -57.067  1.00  0.00     0.012 A 
HETATM   23  C   UNL     1     -44.792  56.608 -60.339  1.00  0.00     0.001 A 
HETATM   24  C   UNL     1     -43.702  55.783 -60.109  1.00  0.00     0.001 A 
HETATM   25  C   UNL     1     -44.556  58.340 -55.807  1.00  0.00     0.003 A 
HETATM   26  C   UNL     1     -43.452  57.542 -55.522  1.00  0.00     0.030 A 
ENDBRANCH   1  17
TORSDOF 4
ENDMDL
MODEL 9
REMARK VINA RESULT:      -7.7      2.901      4.304
REMARK  4 active torsions:
REMARK  status: ('A' for Active; 'I' for Inactive)
REMARK    1  A    between atoms: C_5  and  N_6 
REMARK       I    between atoms: N_6  and  C_7 
REMARK    2  A    between atoms: C_7  and  C_8 
REMARK    3  A    between atoms: C_8  and  N_9 
REMARK    4  A    between atoms: C_11  and  C_12 
REMARK       I    between atoms: C_12  and  N_13 
ROOT
HETATM    1  N   UNL     1     -41.405  56.281 -51.597  1.00  0.00    -0.325 N 
HETATM    2  C   UNL     1     -42.712  56.712 -51.757  1.00  0.00     0.240 C 
HETATM    3  O   UNL     1     -43.729  56.052 -51.559  1.00  0.00    -0.271 OA
HETATM    4  H   UNL     1     -40.664  56.966 -51.667  1.00  0.00     0.169 HD
ENDROOT
BRANCH   2   5
HETATM    5  C   UNL     1     -42.828  58.159 -52.208  1.00  0.00     0.230 C 
BRANCH   5   6
HETATM    6  N   UNL     1     -43.442  58.205 -53.559  1.00  0.00    -0.357 N 
HETATM    7  C   UNL     1     -42.775  57.666 -54.609  1.00  0.00     0.108 A 
HETATM    8  C   UNL     1     -43.356  57.618 -55.876  1.00  0.00     0.047 A 
HETATM    9  C   UNL     1     -44.629  58.152 -56.062  1.00  0.00     0.020 A 
HETATM   10  C   UNL     1     -45.298  58.701 -54.971  1.00  0.00     0.018 A 
HETATM   11  C   UNL     1     -44.689  58.707 -53.719  1.00  0.00     0.091 A 
BRANCH   8  12
HETATM   12  C   UNL     1     -42.551  57.010 -56.952  1.00  0.00     0.250 C 
HETATM   13  N   UNL     1     -42.285  55.675 -56.895  1.00  0.00    -0.366 N 
HETATM   14  H   UNL     1     -42.465  55.078 -56.100  1.00  0.00     0.159 HD
HETATM   15  H   UNL     1     -41.674  55.298 -57.613  1.00  0.00     0.159 HD
HETATM   16  O   UNL     1     -42.120  57.721 -57.850  1.00  0.00    -0.268 OA
ENDBRANCH   8  12
ENDBRANCH   5   6
ENDBRANCH   2   5
BRANCH   1  17
HETATM   17  C   UNL     1     -40.967  54.960 -51.289  1.00  0.00     0.045 A 
HETATM   18  C   UNL     1     -40.660  54.052 -52.357  1.00  0.00     0.001 A 
HETATM   19  C   UNL     1     -40.268  52.728 -52.024  1.00  0.00    -0.024 A 
HETATM   20  C   UNL     1     -40.698  54.373 -53.743  1.00  0.00     0.014 A 
HETATM   21  C   UNL     1     -39.953  51.799 -53.029  1.00  0.00     0.012 A 
HETATM   22  C   UNL     1     -40.185  52.331 -50.685  1.00  0.00     0.012 A 
HETATM   23  C   UNL     1     -40.008  52.149 -54.375  1.00  0.00     0.001 A 
HETATM   24  C   UNL     1     -40.379  53.436 -54.732  1.00  0.00     0.001 A 
HETATM   25  C   UNL     1     -40.481  53.220 -49.661  1.00  0.00     0.003 A 
HETATM   26  C   UNL     1     -40.869  54.523 -49.960  1.00  0.00     0.030 A 
ENDBRANCH   1  17
TORSDOF 4
ENDMDL
MODEL 10
REMARK VINA RESULT:      -7.6     14.783     16.174
REMARK  4 active torsions:
REMARK  status: ('A' for Active; 'I' for Inactive)
REMARK    1  A    between atoms: C_5  and  N_6 
REMARK       I    between atoms: N_6  and  C_7 
REMARK    2  A    between atoms: C_7  and  C_8 
REMARK    3  A    between atoms: C_8  and  N_9 
REMARK    4  A    between atoms: C_11  and  C_12 
REMARK       I    between atoms: C_12  and  N_13 
ROOT
HETATM    1  N   UNL     1     -36.704  40.551 -51.472  1.00  0.00    -0.325 N 
HETATM    2  C   UNL     1     -37.066  40.063 -52.718  1.00  0.00     0.240 C 
HETATM    3  O   UNL     1     -36.848  38.937 -53.154  1.00  0.00    -0.271 OA
HETATM    4  H   UNL     1     -37.060  41.454 -51.190  1.00  0.00     0.169 HD
ENDROOT
BRANCH   2   5
HETATM    5  C   UNL     1     -37.817  41.071 -53.572  1.00  0.00     0.230 C 
BRANCH   5   6
HETATM    6  N   UNL     1     -36.970  41.469 -54.725  1.00  0.00    -0.357 N 
HETATM    7  C   UNL     1     -37.466  41.359 -55.982  1.00  0.00     0.108 A 
HETATM    8  C   UNL     1     -36.730  41.800 -57.082  1.00  0.00     0.047 A 
HETATM    9  C   UNL     1     -35.462  42.337 -56.880  1.00  0.00     0.020 A 
HETATM   10  C   UNL     1     -34.969  42.443 -55.582  1.00  0.00     0.018 A 
HETATM   11  C   UNL     1     -35.748  42.011 -54.512  1.00  0.00     0.091 A 
BRANCH   8  12
HETATM   12  C   UNL     1     -37.358  41.638 -58.407  1.00  0.00     0.250 C 
HETATM   13  N   UNL     1     -37.003  42.493 -59.406  1.00  0.00    -0.366 N 
HETATM   14  H   UNL     1     -36.453  43.332 -59.288  1.00  0.00     0.159 HD
HETATM   15  H   UNL     1     -37.500  42.399 -60.287  1.00  0.00     0.159 HD
HETATM   16  O   UNL     1     -38.197  40.763 -58.567  1.00  0.00    -0.268 OA
ENDBRANCH   8  12
ENDBRANCH   5   6
ENDBRANCH   2   5
BRANCH   1  17
HETATM   17  C   UNL     1     -35.905  39.892 -50.491  1.00  0.00     0.045 A 
HETATM   18  C   UNL     1     -34.476  39.947 -50.593  1.00  0.00     0.001 A 
HETATM   19  C   UNL     1     -33.703  39.247 -49.628  1.00  0.00    -0.024 A 
HETATM   20  C   UNL     1     -33.751  40.668 -51.583  1.00  0.00     0.014 A 
HETATM   21  C   UNL     1     -32.301  39.269 -49.679  1.00  0.00     0.012 A 
HETATM   22  C   UNL     1     -34.333  38.526 -48.607  1.00  0.00     0.012 A 
HETATM   23  C   UNL     1     -31.627  39.981 -50.667  1.00  0.00     0.001 A 
HETATM   24  C   UNL     1     -32.352  40.682 -51.618  1.00  0.00     0.001 A 
HETATM   25  C   UNL     1     -35.718  38.485 -48.517  1.00  0.00     0.003 A 
HETATM   26  C   UNL     1     -36.497  39.161 -49.451  1.00  0.00     0.030 A 
ENDBRANCH   1  17
TORSDOF 4
ENDMDL
