MODEL 1
REMARK VINA RESULT:      -8.7      0.000      0.000
REMARK  3 active torsions:
REMARK  status: ('A' for Active; 'I' for Inactive)
REMARK    1  A    between atoms: C_3  and  N_4 
REMARK       I    between atoms: N_4  and  C_5 
REMARK    2  A    between atoms: C_5  and  C_6 
REMARK    3  A    between atoms: C_6  and  N_7 
ROOT
HETATM    1  N   UNL     1     -41.400  56.011 -54.372  1.00  0.00    -0.224 N 
HETATM    2  N   UNL     1     -41.260  55.135 -55.470  1.00  0.00    -0.180 NA
HETATM    3  C   UNL     1     -40.874  53.907 -55.274  1.00  0.00     0.153 A 
HETATM    4  C   UNL     1     -40.610  53.423 -53.951  1.00  0.00     0.028 A 
HETATM    5  C   UNL     1     -40.774  54.275 -52.888  1.00  0.00     0.116 A 
HETATM    6  N   UNL     1     -40.483  53.592 -51.742  1.00  0.00    -0.350 N 
HETATM    7  H   UNL     1     -40.532  53.981 -50.809  1.00  0.00     0.166 HD
HETATM    8  C   UNL     1     -40.138  52.292 -52.054  1.00  0.00     0.044 A 
HETATM    9  C   UNL     1     -40.209  52.160 -53.445  1.00  0.00     0.005 A 
HETATM   10  C   UNL     1     -39.778  51.230 -51.215  1.00  0.00     0.030 A 
HETATM   11  C   UNL     1     -39.487  50.001 -51.814  1.00  0.00     0.002 A 
HETATM   12  C   UNL     1     -39.551  49.841 -53.197  1.00  0.00     0.001 A 
HETATM   13  C   UNL     1     -39.909  50.912 -54.025  1.00  0.00     0.014 A 
HETATM   14  C   UNL     1     -41.207  55.635 -53.028  1.00  0.00     0.291 A 
HETATM   15  O   UNL     1     -41.379  56.380 -52.071  1.00  0.00    -0.264 OA
ENDROOT
BRANCH   1  16
HETATM   16  C   UNL     1     -42.038  57.286 -54.649  1.00  0.00     0.258 C 
BRANCH  16  17
HETATM   17  C   UNL     1     -43.334  57.377 -55.474  1.00  0.00     0.244 C 
HETATM   18  N   UNL     1     -43.331  57.982 -56.735  1.00  0.00    -0.320 N 
HETATM   19  C   UNL     1     -42.339  58.959 -57.161  1.00  0.00     0.159 C 
HETATM   20  O   UNL     1     -44.313  56.740 -55.054  1.00  0.00    -0.271 OA
BRANCH  18  21
HETATM   21  C   UNL     1     -44.452  57.792 -57.605  1.00  0.00     0.042 A 
HETATM   22  C   UNL     1     -44.436  56.832 -58.639  1.00  0.00    -0.035 A 
HETATM   23  C   UNL     1     -43.244  55.964 -58.942  1.00  0.00     0.050 C 
HETATM   24  C   UNL     1     -45.578  56.678 -59.447  1.00  0.00     0.009 A 
HETATM   25  C   UNL     1     -46.701  57.483 -59.265  1.00  0.00     0.001 A 
HETATM   26  C   UNL     1     -46.702  58.454 -58.269  1.00  0.00     0.002 A 
HETATM   27  C   UNL     1     -45.584  58.609 -57.447  1.00  0.00     0.030 A 
ENDBRANCH  18  21
ENDBRANCH  16  17
ENDBRANCH   1  16
TORSDOF 3
ENDMDL
MODEL 2
REMARK VINA RESULT:      -8.5      4.003      5.028
REMARK  3 active torsions:
REMARK  status: ('A' for Active; 'I' for Inactive)
REMARK    1  A    between atoms: C_3  and  N_4 
REMARK       I    between atoms: N_4  and  C_5 
REMARK    2  A    between atoms: C_5  and  C_6 
REMARK    3  A    between atoms: C_6  and  N_7 
ROOT
HETATM    1  N   UNL     1     -41.084  55.928 -51.314  1.00  0.00    -0.224 N 
HETATM    2  N   UNL     1     -41.250  55.865 -52.714  1.00  0.00    -0.180 NA
HETATM    3  C   UNL     1     -40.986  54.759 -53.349  1.00  0.00     0.153 A 
HETATM    4  C   UNL     1     -40.550  53.592 -52.641  1.00  0.00     0.028 A 
HETATM    5  C   UNL     1     -40.416  53.656 -51.276  1.00  0.00     0.116 A 
HETATM    6  N   UNL     1     -40.008  52.433 -50.827  1.00  0.00    -0.350 N 
HETATM    7  H   UNL     1     -39.841  52.199 -49.857  1.00  0.00     0.166 HD
HETATM    8  C   UNL     1     -39.884  51.566 -51.896  1.00  0.00     0.044 A 
HETATM    9  C   UNL     1     -40.220  52.276 -53.054  1.00  0.00     0.005 A 
HETATM   10  C   UNL     1     -39.510  50.217 -51.922  1.00  0.00     0.030 A 
HETATM   11  C   UNL     1     -39.482  49.577 -53.164  1.00  0.00     0.002 A 
HETATM   12  C   UNL     1     -39.812  50.259 -54.334  1.00  0.00     0.001 A 
HETATM   13  C   UNL     1     -40.182  51.609 -54.294  1.00  0.00     0.014 A 
HETATM   14  C   UNL     1     -40.699  54.835 -50.512  1.00  0.00     0.291 A 
HETATM   15  O   UNL     1     -40.604  54.874 -49.290  1.00  0.00    -0.264 OA
ENDROOT
BRANCH   1  16
HETATM   16  C   UNL     1     -41.602  57.117 -50.661  1.00  0.00     0.258 C 
BRANCH  16  17
HETATM   17  C   UNL     1     -41.723  58.458 -51.407  1.00  0.00     0.244 C 
HETATM   18  N   UNL     1     -42.980  58.973 -51.742  1.00  0.00    -0.320 N 
HETATM   19  C   UNL     1     -44.177  58.157 -51.881  1.00  0.00     0.159 C 
HETATM   20  O   UNL     1     -40.686  59.127 -51.530  1.00  0.00    -0.271 OA
BRANCH  18  21
HETATM   21  C   UNL     1     -43.088  60.339 -52.156  1.00  0.00     0.042 A 
HETATM   22  C   UNL     1     -43.326  61.379 -51.232  1.00  0.00    -0.035 A 
HETATM   23  C   UNL     1     -43.524  61.146 -49.758  1.00  0.00     0.050 C 
HETATM   24  C   UNL     1     -43.401  62.704 -51.698  1.00  0.00     0.009 A 
HETATM   25  C   UNL     1     -43.284  62.996 -53.057  1.00  0.00     0.001 A 
HETATM   26  C   UNL     1     -43.087  61.965 -53.970  1.00  0.00     0.002 A 
HETATM   27  C   UNL     1     -42.993  60.647 -53.523  1.00  0.00     0.030 A 
ENDBRANCH  18  21
ENDBRANCH  16  17
ENDBRANCH   1  16
TORSDOF 3
ENDMDL
MODEL 3
REMARK VINA RESULT:      -8.2      2.128      8.132
REMARK  3 active torsions:
REMARK  status: ('A' for Active; 'I' for Inactive)
REMARK    1  A    between atoms: C_3  and  N_4 
REMARK       I    between atoms: N_4  and  C_5 
REMARK    2  A    between atoms: C_5  and  C_6 
REMARK    3  A    between atoms: C_6  and  N_7 
ROOT
HETATM    1  N   UNL     1     -42.572  56.531 -54.770  1.00  0.00    -0.224 N 
HETATM    2  N   UNL     1     -42.853  55.695 -55.872  1.00  0.00    -0.180 NA
HETATM    3  C   UNL     1     -42.827  56.184 -57.079  1.00  0.00     0.153 A 
HETATM    4  C   UNL     1     -42.492  57.559 -57.307  1.00  0.00     0.028 A 
HETATM    5  C   UNL     1     -42.195  58.357 -56.231  1.00  0.00     0.116 A 
HETATM    6  N   UNL     1     -41.896  59.606 -56.693  1.00  0.00    -0.350 N 
HETATM    7  H   UNL     1     -41.631  60.390 -56.110  1.00  0.00     0.166 HD
HETATM    8  C   UNL     1     -41.987  59.624 -58.071  1.00  0.00     0.044 A 
HETATM    9  C   UNL     1     -42.365  58.341 -58.484  1.00  0.00     0.005 A 
HETATM   10  C   UNL     1     -41.760  60.669 -58.975  1.00  0.00     0.030 A 
HETATM   11  C   UNL     1     -41.919  60.393 -60.336  1.00  0.00     0.002 A 
HETATM   12  C   UNL     1     -42.293  59.125 -60.776  1.00  0.00     0.001 A 
HETATM   13  C   UNL     1     -42.520  58.089 -59.861  1.00  0.00     0.014 A 
HETATM   14  C   UNL     1     -42.193  57.885 -54.877  1.00  0.00     0.291 A 
HETATM   15  O   UNL     1     -41.898  58.597 -53.925  1.00  0.00    -0.264 OA
ENDROOT
BRANCH   1  16
HETATM   16  C   UNL     1     -42.409  55.867 -53.488  1.00  0.00     0.258 C 
BRANCH  16  17
HETATM   17  C   UNL     1     -42.060  54.371 -53.395  1.00  0.00     0.244 C 
HETATM   18  N   UNL     1     -40.797  53.912 -53.781  1.00  0.00    -0.320 N 
HETATM   19  C   UNL     1     -39.925  54.623 -54.705  1.00  0.00     0.159 C 
HETATM   20  O   UNL     1     -42.872  53.641 -52.805  1.00  0.00    -0.271 OA
BRANCH  18  21
HETATM   21  C   UNL     1     -40.389  52.591 -53.409  1.00  0.00     0.042 A 
HETATM   22  C   UNL     1     -39.898  52.299 -52.119  1.00  0.00    -0.035 A 
HETATM   23  C   UNL     1     -39.724  53.341 -51.046  1.00  0.00     0.050 C 
HETATM   24  C   UNL     1     -39.534  50.976 -51.809  1.00  0.00     0.009 A 
HETATM   25  C   UNL     1     -39.614  49.965 -52.766  1.00  0.00     0.001 A 
HETATM   26  C   UNL     1     -40.063  50.262 -54.049  1.00  0.00     0.002 A 
HETATM   27  C   UNL     1     -40.444  51.566 -54.368  1.00  0.00     0.030 A 
ENDBRANCH  18  21
ENDBRANCH  16  17
ENDBRANCH   1  16
TORSDOF 3
ENDMDL
MODEL 4
REMARK VINA RESULT:      -8.2      5.282      6.779
REMARK  3 active torsions:
REMARK  status: ('A' for Active; 'I' for Inactive)
REMARK    1  A    between atoms: C_3  and  N_4 
REMARK       I    between atoms: N_4  and  C_5 
REMARK    2  A    between atoms: C_5  and  C_6 
REMARK    3  A    between atoms: C_6  and  N_7 
ROOT
HETATM    1  N   UNL     1     -44.109  57.215 -52.134  1.00  0.00    -0.224 N 
HETATM    2  N   UNL     1     -43.440  56.925 -50.926  1.00  0.00    -0.180 NA
HETATM    3  C   UNL     1     -42.608  55.925 -50.871  1.00  0.00     0.153 A 
HETATM    4  C   UNL     1     -42.344  55.124 -52.030  1.00  0.00     0.028 A 
HETATM    5  C   UNL     1     -42.981  55.430 -53.206  1.00  0.00     0.116 A 
HETATM    6  N   UNL     1     -42.563  54.549 -54.162  1.00  0.00    -0.350 N 
HETATM    7  H   UNL     1     -42.869  54.555 -55.126  1.00  0.00     0.166 HD
HETATM    8  C   UNL     1     -41.646  53.674 -53.614  1.00  0.00     0.044 A 
HETATM    9  C   UNL     1     -41.492  54.015 -52.266  1.00  0.00     0.005 A 
HETATM   10  C   UNL     1     -40.944  52.618 -54.208  1.00  0.00     0.030 A 
HETATM   11  C   UNL     1     -40.058  51.896 -53.403  1.00  0.00     0.002 A 
HETATM   12  C   UNL     1     -39.883  52.214 -52.058  1.00  0.00     0.001 A 
HETATM   13  C   UNL     1     -40.594  53.271 -51.475  1.00  0.00     0.014 A 
HETATM   14  C   UNL     1     -43.899  56.523 -53.343  1.00  0.00     0.291 A 
HETATM   15  O   UNL     1     -44.441  56.807 -54.405  1.00  0.00    -0.264 OA
ENDROOT
BRANCH   1  16
HETATM   16  C   UNL     1     -44.846  58.467 -52.172  1.00  0.00     0.258 C 
BRANCH  16  17
HETATM   17  C   UNL     1     -45.368  59.134 -50.887  1.00  0.00     0.244 C 
HETATM   18  N   UNL     1     -44.765  60.297 -50.397  1.00  0.00    -0.320 N 
HETATM   19  C   UNL     1     -43.398  60.691 -50.705  1.00  0.00     0.159 C 
HETATM   20  O   UNL     1     -46.435  58.702 -50.424  1.00  0.00    -0.271 OA
BRANCH  18  21
HETATM   21  C   UNL     1     -45.438  61.063 -49.393  1.00  0.00     0.042 A 
HETATM   22  C   UNL     1     -46.341  62.095 -49.725  1.00  0.00    -0.035 A 
HETATM   23  C   UNL     1     -46.645  62.503 -51.142  1.00  0.00     0.050 C 
HETATM   24  C   UNL     1     -46.988  62.797 -48.692  1.00  0.00     0.009 A 
HETATM   25  C   UNL     1     -46.718  62.516 -47.353  1.00  0.00     0.001 A 
HETATM   26  C   UNL     1     -45.799  61.524 -47.027  1.00  0.00     0.002 A 
HETATM   27  C   UNL     1     -45.161  60.806 -48.040  1.00  0.00     0.030 A 
ENDBRANCH  18  21
ENDBRANCH  16  17
ENDBRANCH   1  16
TORSDOF 3
ENDMDL
MODEL 5
REMARK VINA RESULT:      -8.1      1.966      3.333
REMARK  3 active torsions:
REMARK  status: ('A' for Active; 'I' for Inactive)
REMARK    1  A    between atoms: C_3  and  N_4 
REMARK       I    between atoms: N_4  and  C_5 
REMARK    2  A    between atoms: C_5  and  C_6 
REMARK    3  A    between atoms: C_6  and  N_7 
ROOT
HETATM    1  N   UNL     1     -41.969  56.414 -54.261  1.00  0.00    -0.224 N 
HETATM    2  N   UNL     1     -41.980  55.582 -55.401  1.00  0.00    -0.180 NA
HETATM    3  C   UNL     1     -41.523  54.365 -55.319  1.00  0.00     0.153 A 
HETATM    4  C   UNL     1     -41.028  53.848 -54.077  1.00  0.00     0.028 A 
HETATM    5  C   UNL     1     -41.046  54.657 -52.968  1.00  0.00     0.116 A 
HETATM    6  N   UNL     1     -40.545  53.950 -51.914  1.00  0.00    -0.350 N 
HETATM    7  H   UNL     1     -40.455  54.305 -50.970  1.00  0.00     0.166 HD
HETATM    8  C   UNL     1     -40.210  52.676 -52.329  1.00  0.00     0.044 A 
HETATM    9  C   UNL     1     -40.504  52.588 -53.694  1.00  0.00     0.005 A 
HETATM   10  C   UNL     1     -39.678  51.603 -51.603  1.00  0.00     0.030 A 
HETATM   11  C   UNL     1     -39.445  50.408 -52.290  1.00  0.00     0.002 A 
HETATM   12  C   UNL     1     -39.730  50.291 -53.649  1.00  0.00     0.001 A 
HETATM   13  C   UNL     1     -40.258  51.373 -54.364  1.00  0.00     0.014 A 
HETATM   14  C   UNL     1     -41.544  56.001 -52.982  1.00  0.00     0.291 A 
HETATM   15  O   UNL     1     -41.583  56.706 -51.981  1.00  0.00    -0.264 OA
ENDROOT
BRANCH   1  16
HETATM   16  C   UNL     1     -42.690  57.670 -54.379  1.00  0.00     0.258 C 
BRANCH  16  17
HETATM   17  C   UNL     1     -42.129  58.846 -55.196  1.00  0.00     0.244 C 
HETATM   18  N   UNL     1     -42.726  59.219 -56.405  1.00  0.00    -0.320 N 
HETATM   19  C   UNL     1     -43.537  58.323 -57.217  1.00  0.00     0.159 C 
HETATM   20  O   UNL     1     -41.258  59.542 -54.652  1.00  0.00    -0.271 OA
BRANCH  18  21
HETATM   21  C   UNL     1     -42.390  60.481 -56.991  1.00  0.00     0.042 A 
HETATM   22  C   UNL     1     -43.085  61.664 -56.659  1.00  0.00    -0.035 A 
HETATM   23  C   UNL     1     -44.249  61.699 -55.704  1.00  0.00     0.050 C 
HETATM   24  C   UNL     1     -42.692  62.877 -57.253  1.00  0.00     0.009 A 
HETATM   25  C   UNL     1     -41.660  62.918 -58.190  1.00  0.00     0.001 A 
HETATM   26  C   UNL     1     -41.001  61.746 -58.543  1.00  0.00     0.002 A 
HETATM   27  C   UNL     1     -41.366  60.536 -57.951  1.00  0.00     0.030 A 
ENDBRANCH  18  21
ENDBRANCH  16  17
ENDBRANCH   1  16
TORSDOF 3
ENDMDL
MODEL 6
REMARK VINA RESULT:      -8.0      1.465      2.115
REMARK  3 active torsions:
REMARK  status: ('A' for Active; 'I' for Inactive)
REMARK    1  A    between atoms: C_3  and  N_4 
REMARK       I    between atoms: N_4  and  C_5 
REMARK    2  A    between atoms: C_5  and  C_6 
REMARK    3  A    between atoms: C_6  and  N_7 
ROOT
HETATM    1  N   UNL     1     -42.616  57.225 -55.666  1.00  0.00    -0.224 N 
HETATM    2  N   UNL     1     -42.451  56.133 -56.545  1.00  0.00    -0.180 NA
HETATM    3  C   UNL     1     -41.915  55.028 -56.111  1.00  0.00     0.153 A 
HETATM    4  C   UNL     1     -41.509  54.896 -54.743  1.00  0.00     0.028 A 
HETATM    5  C   UNL     1     -41.696  55.956 -53.891  1.00  0.00     0.116 A 
HETATM    6  N   UNL     1     -41.252  55.594 -52.652  1.00  0.00    -0.350 N 
HETATM    7  H   UNL     1     -41.283  56.185 -51.831  1.00  0.00     0.166 HD
HETATM    8  C   UNL     1     -40.783  54.295 -52.690  1.00  0.00     0.044 A 
HETATM    9  C   UNL     1     -40.933  53.833 -54.003  1.00  0.00     0.005 A 
HETATM   10  C   UNL     1     -40.248  53.501 -51.669  1.00  0.00     0.030 A 
HETATM   11  C   UNL     1     -39.860  52.198 -51.997  1.00  0.00     0.002 A 
HETATM   12  C   UNL     1     -39.998  51.711 -53.295  1.00  0.00     0.001 A 
HETATM   13  C   UNL     1     -40.532  52.517 -54.309  1.00  0.00     0.014 A 
HETATM   14  C   UNL     1     -42.290  57.197 -54.295  1.00  0.00     0.291 A 
HETATM   15  O   UNL     1     -42.481  58.126 -53.521  1.00  0.00    -0.264 OA
ENDROOT
BRANCH   1  16
HETATM   16  C   UNL     1     -43.412  58.333 -56.165  1.00  0.00     0.258 C 
BRANCH  16  17
HETATM   17  C   UNL     1     -44.572  58.110 -57.152  1.00  0.00     0.244 C 
HETATM   18  N   UNL     1     -44.337  58.090 -58.530  1.00  0.00    -0.320 N 
HETATM   19  C   UNL     1     -43.190  58.723 -59.165  1.00  0.00     0.159 C 
HETATM   20  O   UNL     1     -45.665  57.777 -56.668  1.00  0.00    -0.271 OA
BRANCH  18  21
HETATM   21  C   UNL     1     -45.352  57.587 -59.406  1.00  0.00     0.042 A 
HETATM   22  C   UNL     1     -45.355  56.248 -59.851  1.00  0.00    -0.035 A 
HETATM   23  C   UNL     1     -44.286  55.253 -59.484  1.00  0.00     0.050 C 
HETATM   24  C   UNL     1     -46.393  55.810 -60.693  1.00  0.00     0.009 A 
HETATM   25  C   UNL     1     -47.389  56.686 -61.123  1.00  0.00     0.001 A 
HETATM   26  C   UNL     1     -47.364  58.015 -60.714  1.00  0.00     0.002 A 
HETATM   27  C   UNL     1     -46.351  58.463 -59.864  1.00  0.00     0.030 A 
ENDBRANCH  18  21
ENDBRANCH  16  17
ENDBRANCH   1  16
TORSDOF 3
ENDMDL
MODEL 7
REMARK VINA RESULT:      -7.9      4.633      8.775
REMARK  3 active torsions:
REMARK  status: ('A' for Active; 'I' for Inactive)
REMARK    1  A    between atoms: C_3  and  N_4 
REMARK       I    between atoms: N_4  and  C_5 
REMARK    2  A    between atoms: C_5  and  C_6 
REMARK    3  A    between atoms: C_6  and  N_7 
ROOT
HETATM    1  N   UNL     1     -43.871  57.962 -52.627  1.00  0.00    -0.224 N 
HETATM    2  N   UNL     1     -43.003  58.917 -53.198  1.00  0.00    -0.180 NA
HETATM    3  C   UNL     1     -42.878  60.090 -52.646  1.00  0.00     0.153 A 
HETATM    4  C   UNL     1     -43.595  60.419 -51.449  1.00  0.00     0.028 A 
HETATM    5  C   UNL     1     -44.417  59.473 -50.888  1.00  0.00     0.116 A 
HETATM    6  N   UNL     1     -44.974  60.004 -49.760  1.00  0.00    -0.350 N 
HETATM    7  H   UNL     1     -45.614  59.516 -49.147  1.00  0.00     0.166 HD
HETATM    8  C   UNL     1     -44.510  61.292 -49.578  1.00  0.00     0.044 A 
HETATM    9  C   UNL     1     -43.637  61.579 -50.634  1.00  0.00     0.005 A 
HETATM   10  C   UNL     1     -44.789  62.215 -48.562  1.00  0.00     0.030 A 
HETATM   11  C   UNL     1     -44.158  63.460 -48.627  1.00  0.00     0.002 A 
HETATM   12  C   UNL     1     -43.284  63.772 -49.666  1.00  0.00     0.001 A 
HETATM   13  C   UNL     1     -43.015  62.841 -50.677  1.00  0.00     0.014 A 
HETATM   14  C   UNL     1     -44.594  58.160 -51.434  1.00  0.00     0.291 A 
HETATM   15  O   UNL     1     -45.307  57.312 -50.910  1.00  0.00    -0.264 OA
ENDROOT
BRANCH   1  16
HETATM   16  C   UNL     1     -43.788  56.617 -53.171  1.00  0.00     0.258 C 
BRANCH  16  17
HETATM   17  C   UNL     1     -42.535  55.745 -52.979  1.00  0.00     0.244 C 
HETATM   18  N   UNL     1     -42.640  54.464 -52.429  1.00  0.00    -0.320 N 
HETATM   19  C   UNL     1     -43.743  54.035 -51.581  1.00  0.00     0.159 C 
HETATM   20  O   UNL     1     -41.482  56.156 -53.490  1.00  0.00    -0.271 OA
BRANCH  18  21
HETATM   21  C   UNL     1     -41.531  53.564 -52.536  1.00  0.00     0.042 A 
HETATM   22  C   UNL     1     -40.630  53.365 -51.469  1.00  0.00    -0.035 A 
HETATM   23  C   UNL     1     -40.726  54.098 -50.157  1.00  0.00     0.050 C 
HETATM   24  C   UNL     1     -39.572  52.451 -51.629  1.00  0.00     0.009 A 
HETATM   25  C   UNL     1     -39.382  51.775 -52.834  1.00  0.00     0.001 A 
HETATM   26  C   UNL     1     -40.250  52.000 -53.897  1.00  0.00     0.002 A 
HETATM   27  C   UNL     1     -41.315  52.891 -53.750  1.00  0.00     0.030 A 
ENDBRANCH  18  21
ENDBRANCH  16  17
ENDBRANCH   1  16
TORSDOF 3
ENDMDL
MODEL 8
REMARK VINA RESULT:      -7.9      2.781      3.900
REMARK  3 active torsions:
REMARK  status: ('A' for Active; 'I' for Inactive)
REMARK    1  A    between atoms: C_3  and  N_4 
REMARK       I    between atoms: N_4  and  C_5 
REMARK    2  A    between atoms: C_5  and  C_6 
REMARK    3  A    between atoms: C_6  and  N_7 
ROOT
HETATM    1  N   UNL     1     -41.400  56.071 -54.412  1.00  0.00    -0.224 N 
HETATM    2  N   UNL     1     -41.447  55.199 -55.520  1.00  0.00    -0.180 NA
HETATM    3  C   UNL     1     -41.106  53.950 -55.376  1.00  0.00     0.153 A 
HETATM    4  C   UNL     1     -40.705  53.441 -54.098  1.00  0.00     0.028 A 
HETATM    5  C   UNL     1     -40.688  54.292 -53.021  1.00  0.00     0.116 A 
HETATM    6  N   UNL     1     -40.292  53.584 -51.922  1.00  0.00    -0.350 N 
HETATM    7  H   UNL     1     -40.203  53.967 -50.990  1.00  0.00     0.166 HD
HETATM    8  C   UNL     1     -40.060  52.270 -52.277  1.00  0.00     0.044 A 
HETATM    9  C   UNL     1     -40.312  52.154 -53.649  1.00  0.00     0.005 A 
HETATM   10  C   UNL     1     -39.656  51.184 -51.492  1.00  0.00     0.030 A 
HETATM   11  C   UNL     1     -39.509  49.946 -52.125  1.00  0.00     0.002 A 
HETATM   12  C   UNL     1     -39.754  49.801 -53.489  1.00  0.00     0.001 A 
HETATM   13  C   UNL     1     -40.156  50.896 -54.264  1.00  0.00     0.014 A 
HETATM   14  C   UNL     1     -41.060  55.673 -53.103  1.00  0.00     0.291 A 
HETATM   15  O   UNL     1     -41.070  56.418 -52.130  1.00  0.00    -0.264 OA
ENDROOT
BRANCH   1  16
HETATM   16  C   UNL     1     -41.998  57.381 -54.604  1.00  0.00     0.258 C 
BRANCH  16  17
HETATM   17  C   UNL     1     -43.164  57.870 -53.727  1.00  0.00     0.244 C 
HETATM   18  N   UNL     1     -43.105  59.119 -53.100  1.00  0.00    -0.320 N 
HETATM   19  C   UNL     1     -41.863  59.816 -52.801  1.00  0.00     0.159 C 
HETATM   20  O   UNL     1     -44.207  57.198 -53.753  1.00  0.00    -0.271 OA
BRANCH  18  21
HETATM   21  C   UNL     1     -44.300  59.682 -52.548  1.00  0.00     0.042 A 
HETATM   22  C   UNL     1     -45.182  60.463 -53.325  1.00  0.00    -0.035 A 
HETATM   23  C   UNL     1     -44.931  60.803 -54.770  1.00  0.00     0.050 C 
HETATM   24  C   UNL     1     -46.352  60.970 -52.730  1.00  0.00     0.009 A 
HETATM   25  C   UNL     1     -46.627  60.746 -51.381  1.00  0.00     0.001 A 
HETATM   26  C   UNL     1     -45.738  60.008 -50.607  1.00  0.00     0.002 A 
HETATM   27  C   UNL     1     -44.581  59.483 -51.187  1.00  0.00     0.030 A 
ENDBRANCH  18  21
ENDBRANCH  16  17
ENDBRANCH   1  16
TORSDOF 3
ENDMDL
MODEL 9
REMARK VINA RESULT:      -7.7      1.960      2.356
REMARK  3 active torsions:
REMARK  status: ('A' for Active; 'I' for Inactive)
REMARK    1  A    between atoms: C_3  and  N_4 
REMARK       I    between atoms: N_4  and  C_5 
REMARK    2  A    between atoms: C_5  and  C_6 
REMARK    3  A    between atoms: C_6  and  N_7 
ROOT
HETATM    1  N   UNL     1     -42.151  56.514 -54.827  1.00  0.00    -0.224 N 
HETATM    2  N   UNL     1     -41.944  55.553 -55.839  1.00  0.00    -0.180 NA
HETATM    3  C   UNL     1     -41.414  54.401 -55.540  1.00  0.00     0.153 A 
HETATM    4  C   UNL     1     -41.056  54.086 -54.189  1.00  0.00     0.028 A 
HETATM    5  C   UNL     1     -41.284  55.019 -53.208  1.00  0.00     0.116 A 
HETATM    6  N   UNL     1     -40.881  54.493 -52.014  1.00  0.00    -0.350 N 
HETATM    7  H   UNL     1     -40.946  54.967 -51.122  1.00  0.00     0.166 HD
HETATM    8  C   UNL     1     -40.399  53.214 -52.212  1.00  0.00     0.044 A 
HETATM    9  C   UNL     1     -40.497  52.934 -53.579  1.00  0.00     0.005 A 
HETATM   10  C   UNL     1     -39.894  52.290 -51.289  1.00  0.00     0.030 A 
HETATM   11  C   UNL     1     -39.482  51.046 -51.777  1.00  0.00     0.002 A 
HETATM   12  C   UNL     1     -39.569  50.740 -53.134  1.00  0.00     0.001 A 
HETATM   13  C   UNL     1     -40.074  51.674 -54.046  1.00  0.00     0.014 A 
HETATM   14  C   UNL     1     -41.874  56.301 -53.461  1.00  0.00     0.291 A 
HETATM   15  O   UNL     1     -42.101  57.115 -52.575  1.00  0.00    -0.264 OA
ENDROOT
BRANCH   1  16
HETATM   16  C   UNL     1     -42.939  57.676 -55.199  1.00  0.00     0.258 C 
BRANCH  16  17
HETATM   17  C   UNL     1     -42.620  58.495 -56.463  1.00  0.00     0.244 C 
HETATM   18  N   UNL     1     -43.478  58.459 -57.567  1.00  0.00    -0.320 N 
HETATM   19  C   UNL     1     -44.402  57.367 -57.839  1.00  0.00     0.159 C 
HETATM   20  O   UNL     1     -41.685  59.307 -56.384  1.00  0.00    -0.271 OA
BRANCH  18  21
HETATM   21  C   UNL     1     -43.333  59.441 -58.598  1.00  0.00     0.042 A 
HETATM   22  C   UNL     1     -42.584  59.188 -59.766  1.00  0.00    -0.035 A 
HETATM   23  C   UNL     1     -41.848  57.898 -60.014  1.00  0.00     0.050 C 
HETATM   24  C   UNL     1     -42.497  60.188 -60.752  1.00  0.00     0.009 A 
HETATM   25  C   UNL     1     -43.103  61.431 -60.572  1.00  0.00     0.001 A 
HETATM   26  C   UNL     1     -43.810  61.692 -59.403  1.00  0.00     0.002 A 
HETATM   27  C   UNL     1     -43.920  60.705 -58.422  1.00  0.00     0.030 A 
ENDBRANCH  18  21
ENDBRANCH  16  17
ENDBRANCH   1  16
TORSDOF 3
ENDMDL
MODEL 10
REMARK VINA RESULT:      -7.6      3.962      8.599
REMARK  3 active torsions:
REMARK  status: ('A' for Active; 'I' for Inactive)
REMARK    1  A    between atoms: C_3  and  N_4 
REMARK       I    between atoms: N_4  and  C_5 
REMARK    2  A    between atoms: C_5  and  C_6 
REMARK    3  A    between atoms: C_6  and  N_7 
ROOT
HETATM    1  N   UNL     1     -42.712  56.360 -50.532  1.00  0.00    -0.224 N 
HETATM    2  N   UNL     1     -44.093  56.335 -50.824  1.00  0.00    -0.180 NA
HETATM    3  C   UNL     1     -44.631  57.314 -51.493  1.00  0.00     0.153 A 
HETATM    4  C   UNL     1     -43.835  58.411 -51.958  1.00  0.00     0.028 A 
HETATM    5  C   UNL     1     -42.489  58.414 -51.690  1.00  0.00     0.116 A 
HETATM    6  N   UNL     1     -41.945  59.539 -52.240  1.00  0.00    -0.350 N 
HETATM    7  H   UNL     1     -40.965  59.785 -52.201  1.00  0.00     0.166 HD
HETATM    8  C   UNL     1     -42.932  60.266 -52.876  1.00  0.00     0.044 A 
HETATM    9  C   UNL     1     -44.138  59.575 -52.710  1.00  0.00     0.005 A 
HETATM   10  C   UNL     1     -42.847  61.471 -53.584  1.00  0.00     0.030 A 
HETATM   11  C   UNL     1     -44.025  61.981 -54.140  1.00  0.00     0.002 A 
HETATM   12  C   UNL     1     -45.239  61.313 -53.991  1.00  0.00     0.001 A 
HETATM   13  C   UNL     1     -45.310  60.110 -53.278  1.00  0.00     0.014 A 
HETATM   14  C   UNL     1     -41.827  57.365 -50.971  1.00  0.00     0.291 A 
HETATM   15  O   UNL     1     -40.620  57.362 -50.763  1.00  0.00    -0.264 OA
ENDROOT
BRANCH   1  16
HETATM   16  C   UNL     1     -42.153  55.139 -49.979  1.00  0.00     0.258 C 
BRANCH  16  17
HETATM   17  C   UNL     1     -41.722  53.969 -50.881  1.00  0.00     0.244 C 
HETATM   18  N   UNL     1     -40.432  53.437 -50.786  1.00  0.00    -0.320 N 
HETATM   19  C   UNL     1     -39.292  54.170 -50.255  1.00  0.00     0.159 C 
HETATM   20  O   UNL     1     -42.611  53.419 -51.549  1.00  0.00    -0.271 OA
BRANCH  18  21
HETATM   21  C   UNL     1     -40.148  52.177 -51.402  1.00  0.00     0.042 A 
HETATM   22  C   UNL     1     -39.984  52.052 -52.798  1.00  0.00    -0.035 A 
HETATM   23  C   UNL     1     -40.128  53.206 -53.754  1.00  0.00     0.050 C 
HETATM   24  C   UNL     1     -39.685  50.789 -53.341  1.00  0.00     0.009 A 
HETATM   25  C   UNL     1     -39.590  49.660 -52.527  1.00  0.00     0.001 A 
HETATM   26  C   UNL     1     -39.790  49.779 -51.156  1.00  0.00     0.002 A 
HETATM   27  C   UNL     1     -40.070  51.027 -50.599  1.00  0.00     0.030 A 
ENDBRANCH  18  21
ENDBRANCH  16  17
ENDBRANCH   1  16
TORSDOF 3
ENDMDL
