MODEL 1
REMARK VINA RESULT:      -9.2      0.000      0.000
REMARK  4 active torsions:
REMARK  status: ('A' for Active; 'I' for Inactive)
REMARK    1  A    between atoms: C_8  and  C_9 
REMARK    2  A    between atoms: C_12  and  N_13 
REMARK       I    between atoms: N_13  and  C_14 
REMARK    3  A    between atoms: C_14  and  C_15 
REMARK    4  A    between atoms: C_17  and  N_18 
ROOT
HETATM    1  C   UNL     1     -41.468  56.407 -51.870  1.00  0.00     0.010 A 
HETATM    2  C   UNL     1     -40.591  57.477 -51.660  1.00  0.00     0.017 A 
HETATM    3  C   UNL     1     -41.063  58.715 -51.204  1.00  0.00     0.030 A 
HETATM    4  C   UNL     1     -42.419  58.912 -50.950  1.00  0.00     0.035 A 
HETATM    5  C   UNL     1     -43.310  57.871 -51.232  1.00  0.00     0.030 A 
HETATM    6  C   UNL     1     -42.839  56.631 -51.684  1.00  0.00     0.017 A 
ENDROOT
BRANCH   4   7
HETATM    7  N   UNL     1     -42.946  60.090 -50.372  1.00  0.00    -0.323 N 
HETATM    8  C   UNL     1     -43.097  61.311 -51.007  1.00  0.00     0.256 C 
HETATM    9  O   UNL     1     -42.920  61.560 -52.193  1.00  0.00    -0.267 OA
HETATM   10  H   UNL     1     -43.065  60.073 -49.366  1.00  0.00     0.169 HD
BRANCH   8  11
HETATM   11  C   UNL     1     -43.418  62.448 -50.108  1.00  0.00     0.034 A 
HETATM   12  C   UNL     1     -44.469  62.388 -49.180  1.00  0.00     0.047 A 
HETATM   13  C   UNL     1     -44.760  63.483 -48.342  1.00  0.00     0.046 A 
HETATM   14  C   UNL     1     -43.946  64.624 -48.473  1.00  0.00     0.030 A 
HETATM   15  C   UNL     1     -42.904  64.687 -49.405  1.00  0.00     0.003 A 
HETATM   16  C   UNL     1     -42.645  63.603 -50.229  1.00  0.00     0.017 A 
BRANCH  13  17
HETATM   17  N   UNL     1     -45.844  63.447 -47.407  1.00  0.00    -0.252 N 
HETATM   18  C   UNL     1     -47.038  64.119 -47.568  1.00  0.00     0.231 C 
HETATM   19  O   UNL     1     -47.450  64.742 -48.537  1.00  0.00    -0.273 OA
HETATM   20  C   UNL     1     -47.844  63.992 -46.311  1.00  0.00     0.113 C 
HETATM   21  C   UNL     1     -47.197  62.840 -45.589  1.00  0.00     0.113 C 
HETATM   22  C   UNL     1     -45.846  62.730 -46.227  1.00  0.00     0.231 C 
HETATM   23  O   UNL     1     -44.952  62.072 -45.712  1.00  0.00    -0.273 OA
ENDBRANCH  13  17
ENDBRANCH   8  11
ENDBRANCH   4   7
BRANCH   1  24
HETATM   24  C   UNL     1     -40.989  55.068 -52.228  1.00  0.00     0.139 A 
HETATM   25  N   UNL     1     -40.488  54.169 -51.311  1.00  0.00    -0.338 N 
HETATM   26  C   UNL     1     -40.221  52.985 -51.945  1.00  0.00     0.063 A 
HETATM   27  H   UNL     1     -40.389  54.337 -50.322  1.00  0.00     0.167 HD
HETATM   28  C   UNL     1     -40.564  53.226 -53.268  1.00  0.00     0.086 A 
HETATM   29  C   UNL     1     -39.738  51.761 -51.484  1.00  0.00     0.032 A 
HETATM   30  C   UNL     1     -40.413  52.197 -54.210  1.00  0.00     0.040 A 
HETATM   31  N   UNL     1     -41.036  54.508 -53.425  1.00  0.00    -0.228 NA
HETATM   32  C   UNL     1     -39.919  50.949 -53.787  1.00  0.00    -0.060 A 
HETATM   33  C   UNL     1     -39.777  49.818 -54.764  1.00  0.00     0.048 C 
HETATM   34  C   UNL     1     -39.599  50.744 -52.436  1.00  0.00     0.009 A 
ENDBRANCH   1  24
TORSDOF 4
ENDMDL
MODEL 2
REMARK VINA RESULT:      -8.8      4.126      4.672
REMARK  4 active torsions:
REMARK  status: ('A' for Active; 'I' for Inactive)
REMARK    1  A    between atoms: C_8  and  C_9 
REMARK    2  A    between atoms: C_12  and  N_13 
REMARK       I    between atoms: N_13  and  C_14 
REMARK    3  A    between atoms: C_14  and  C_15 
REMARK    4  A    between atoms: C_17  and  N_18 
ROOT
HETATM    1  C   UNL     1     -43.033  56.097 -52.975  1.00  0.00     0.010 A 
HETATM    2  C   UNL     1     -44.029  56.320 -53.933  1.00  0.00     0.017 A 
HETATM    3  C   UNL     1     -44.788  57.497 -53.921  1.00  0.00     0.030 A 
HETATM    4  C   UNL     1     -44.572  58.476 -52.952  1.00  0.00     0.035 A 
HETATM    5  C   UNL     1     -43.632  58.224 -51.946  1.00  0.00     0.030 A 
HETATM    6  C   UNL     1     -42.869  57.048 -51.960  1.00  0.00     0.017 A 
ENDROOT
BRANCH   4   7
HETATM    7  N   UNL     1     -45.212  59.736 -52.954  1.00  0.00    -0.323 N 
HETATM    8  C   UNL     1     -46.114  60.193 -52.009  1.00  0.00     0.256 C 
HETATM    9  O   UNL     1     -46.429  59.651 -50.957  1.00  0.00    -0.267 OA
HETATM   10  H   UNL     1     -45.121  60.276 -53.807  1.00  0.00     0.169 HD
BRANCH   8  11
HETATM   11  C   UNL     1     -46.840  61.432 -52.384  1.00  0.00     0.034 A 
HETATM   12  C   UNL     1     -48.242  61.512 -52.347  1.00  0.00     0.047 A 
HETATM   13  C   UNL     1     -48.910  62.697 -52.715  1.00  0.00     0.046 A 
HETATM   14  C   UNL     1     -48.112  63.788 -53.105  1.00  0.00     0.030 A 
HETATM   15  C   UNL     1     -46.716  63.706 -53.151  1.00  0.00     0.003 A 
HETATM   16  C   UNL     1     -46.079  62.525 -52.799  1.00  0.00     0.017 A 
BRANCH  13  17
HETATM   17  N   UNL     1     -50.339  62.787 -52.707  1.00  0.00    -0.252 N 
HETATM   18  C   UNL     1     -51.151  62.439 -53.767  1.00  0.00     0.231 C 
HETATM   19  O   UNL     1     -50.854  61.893 -54.821  1.00  0.00    -0.273 OA
HETATM   20  C   UNL     1     -52.560  62.842 -53.455  1.00  0.00     0.113 C 
HETATM   21  C   UNL     1     -52.549  63.053 -51.965  1.00  0.00     0.113 C 
HETATM   22  C   UNL     1     -51.097  63.223 -51.638  1.00  0.00     0.231 C 
HETATM   23  O   UNL     1     -50.738  63.675 -50.558  1.00  0.00    -0.273 OA
ENDBRANCH  13  17
ENDBRANCH   8  11
ENDBRANCH   4   7
BRANCH   1  24
HETATM   24  C   UNL     1     -42.143  54.933 -53.036  1.00  0.00     0.139 A 
HETATM   25  N   UNL     1     -41.325  54.546 -51.996  1.00  0.00    -0.338 N 
HETATM   26  C   UNL     1     -40.699  53.376 -52.330  1.00  0.00     0.063 A 
HETATM   27  H   UNL     1     -41.245  55.018 -51.108  1.00  0.00     0.167 HD
HETATM   28  C   UNL     1     -41.162  53.099 -53.609  1.00  0.00     0.086 A 
HETATM   29  C   UNL     1     -39.808  52.556 -51.638  1.00  0.00     0.032 A 
HETATM   30  C   UNL     1     -40.711  51.942 -54.262  1.00  0.00     0.040 A 
HETATM   31  N   UNL     1     -42.049  54.063 -54.027  1.00  0.00    -0.228 NA
HETATM   32  C   UNL     1     -39.803  51.094 -53.602  1.00  0.00    -0.060 A 
HETATM   33  C   UNL     1     -39.327  49.831 -54.260  1.00  0.00     0.048 C 
HETATM   34  C   UNL     1     -39.373  51.403 -52.303  1.00  0.00     0.009 A 
ENDBRANCH   1  24
TORSDOF 4
ENDMDL
MODEL 3
REMARK VINA RESULT:      -8.8      1.757      2.208
REMARK  4 active torsions:
REMARK  status: ('A' for Active; 'I' for Inactive)
REMARK    1  A    between atoms: C_8  and  C_9 
REMARK    2  A    between atoms: C_12  and  N_13 
REMARK       I    between atoms: N_13  and  C_14 
REMARK    3  A    between atoms: C_14  and  C_15 
REMARK    4  A    between atoms: C_17  and  N_18 
ROOT
HETATM    1  C   UNL     1     -42.299  56.020 -52.150  1.00  0.00     0.010 A 
HETATM    2  C   UNL     1     -41.726  57.040 -51.382  1.00  0.00     0.017 A 
HETATM    3  C   UNL     1     -42.472  58.165 -51.007  1.00  0.00     0.030 A 
HETATM    4  C   UNL     1     -43.805  58.297 -51.393  1.00  0.00     0.035 A 
HETATM    5  C   UNL     1     -44.360  57.320 -52.226  1.00  0.00     0.030 A 
HETATM    6  C   UNL     1     -43.615  56.193 -52.598  1.00  0.00     0.017 A 
ENDROOT
BRANCH   4   7
HETATM    7  N   UNL     1     -44.651  59.340 -50.949  1.00  0.00    -0.323 N 
HETATM    8  C   UNL     1     -45.457  60.131 -51.748  1.00  0.00     0.256 C 
HETATM    9  O   UNL     1     -45.675  60.001 -52.946  1.00  0.00    -0.267 OA
HETATM   10  H   UNL     1     -44.524  59.631 -49.986  1.00  0.00     0.169 HD
BRANCH   8  11
HETATM   11  C   UNL     1     -46.034  61.321 -51.073  1.00  0.00     0.034 A 
HETATM   12  C   UNL     1     -45.750  61.625 -49.732  1.00  0.00     0.047 A 
HETATM   13  C   UNL     1     -46.314  62.756 -49.110  1.00  0.00     0.046 A 
HETATM   14  C   UNL     1     -47.159  63.563 -49.893  1.00  0.00     0.030 A 
HETATM   15  C   UNL     1     -47.450  63.256 -51.227  1.00  0.00     0.003 A 
HETATM   16  C   UNL     1     -46.894  62.129 -51.815  1.00  0.00     0.017 A 
BRANCH  13  17
HETATM   17  N   UNL     1     -46.054  63.066 -47.736  1.00  0.00    -0.252 N 
HETATM   18  C   UNL     1     -46.679  62.461 -46.665  1.00  0.00     0.231 C 
HETATM   19  O   UNL     1     -47.441  61.503 -46.656  1.00  0.00    -0.273 OA
HETATM   20  C   UNL     1     -46.287  63.170 -45.405  1.00  0.00     0.113 C 
HETATM   21  C   UNL     1     -45.062  63.949 -45.802  1.00  0.00     0.113 C 
HETATM   22  C   UNL     1     -45.140  64.003 -47.298  1.00  0.00     0.231 C 
HETATM   23  O   UNL     1     -44.449  64.782 -47.941  1.00  0.00    -0.273 OA
ENDBRANCH  13  17
ENDBRANCH   8  11
ENDBRANCH   4   7
BRANCH   1  24
HETATM   24  C   UNL     1     -41.581  54.779 -52.453  1.00  0.00     0.139 A 
HETATM   25  N   UNL     1     -40.800  54.108 -51.535  1.00  0.00    -0.338 N 
HETATM   26  C   UNL     1     -40.351  52.943 -52.096  1.00  0.00     0.063 A 
HETATM   27  H   UNL     1     -40.635  54.400 -50.584  1.00  0.00     0.167 HD
HETATM   28  C   UNL     1     -40.877  52.962 -53.380  1.00  0.00     0.086 A 
HETATM   29  C   UNL     1     -39.566  51.903 -51.599  1.00  0.00     0.032 A 
HETATM   30  C   UNL     1     -40.607  51.889 -54.243  1.00  0.00     0.040 A 
HETATM   31  N   UNL     1     -41.631  54.093 -53.582  1.00  0.00    -0.228 NA
HETATM   32  C   UNL     1     -39.811  50.824 -53.783  1.00  0.00    -0.060 A 
HETATM   33  C   UNL     1     -39.530  49.647 -54.672  1.00  0.00     0.048 C 
HETATM   34  C   UNL     1     -39.311  50.839 -52.472  1.00  0.00     0.009 A 
ENDBRANCH   1  24
TORSDOF 4
ENDMDL
MODEL 4
REMARK VINA RESULT:      -8.7      3.880      4.566
REMARK  4 active torsions:
REMARK  status: ('A' for Active; 'I' for Inactive)
REMARK    1  A    between atoms: C_8  and  C_9 
REMARK    2  A    between atoms: C_12  and  N_13 
REMARK       I    between atoms: N_13  and  C_14 
REMARK    3  A    between atoms: C_14  and  C_15 
REMARK    4  A    between atoms: C_17  and  N_18 
ROOT
HETATM    1  C   UNL     1     -42.130  56.449 -52.481  1.00  0.00     0.010 A 
HETATM    2  C   UNL     1     -41.727  57.372 -51.509  1.00  0.00     0.017 A 
HETATM    3  C   UNL     1     -42.453  58.550 -51.291  1.00  0.00     0.030 A 
HETATM    4  C   UNL     1     -43.594  58.834 -52.040  1.00  0.00     0.035 A 
HETATM    5  C   UNL     1     -43.957  57.954 -53.065  1.00  0.00     0.030 A 
HETATM    6  C   UNL     1     -43.233  56.773 -53.281  1.00  0.00     0.017 A 
ENDROOT
BRANCH   4   7
HETATM    7  N   UNL     1     -44.442  59.938 -51.791  1.00  0.00    -0.323 N 
HETATM    8  C   UNL     1     -45.591  59.924 -51.019  1.00  0.00     0.256 C 
HETATM    9  O   UNL     1     -46.012  59.005 -50.327  1.00  0.00    -0.267 OA
HETATM   10  H   UNL     1     -44.276  60.759 -52.361  1.00  0.00     0.169 HD
BRANCH   8  11
HETATM   11  C   UNL     1     -46.439  61.137 -51.137  1.00  0.00     0.034 A 
HETATM   12  C   UNL     1     -47.248  61.372 -52.260  1.00  0.00     0.047 A 
HETATM   13  C   UNL     1     -48.039  62.533 -52.354  1.00  0.00     0.046 A 
HETATM   14  C   UNL     1     -47.988  63.432 -51.273  1.00  0.00     0.030 A 
HETATM   15  C   UNL     1     -47.175  63.203 -50.157  1.00  0.00     0.003 A 
HETATM   16  C   UNL     1     -46.393  62.060 -50.092  1.00  0.00     0.017 A 
BRANCH  13  17
HETATM   17  N   UNL     1     -48.850  62.799 -53.504  1.00  0.00    -0.252 N 
HETATM   18  C   UNL     1     -50.088  62.235 -53.735  1.00  0.00     0.231 C 
HETATM   19  O   UNL     1     -50.770  61.537 -52.996  1.00  0.00    -0.273 OA
HETATM   20  C   UNL     1     -50.544  62.605 -55.113  1.00  0.00     0.113 C 
HETATM   21  C   UNL     1     -49.664  63.770 -55.478  1.00  0.00     0.113 C 
HETATM   22  C   UNL     1     -48.510  63.659 -54.528  1.00  0.00     0.231 C 
HETATM   23  O   UNL     1     -47.474  64.286 -54.711  1.00  0.00    -0.273 OA
ENDBRANCH  13  17
ENDBRANCH   8  11
ENDBRANCH   4   7
BRANCH   1  24
HETATM   24  C   UNL     1     -41.462  55.154 -52.647  1.00  0.00     0.139 A 
HETATM   25  N   UNL     1     -40.855  54.474 -51.613  1.00  0.00    -0.338 N 
HETATM   26  C   UNL     1     -40.414  53.262 -52.072  1.00  0.00     0.063 A 
HETATM   27  H   UNL     1     -40.797  54.792 -50.658  1.00  0.00     0.167 HD
HETATM   28  C   UNL     1     -40.766  53.262 -53.415  1.00  0.00     0.086 A 
HETATM   29  C   UNL     1     -39.772  52.196 -51.444  1.00  0.00     0.032 A 
HETATM   30  C   UNL     1     -40.457  52.142 -54.201  1.00  0.00     0.040 A 
HETATM   31  N   UNL     1     -41.410  54.429 -53.751  1.00  0.00    -0.228 NA
HETATM   32  C   UNL     1     -39.800  51.049 -53.606  1.00  0.00    -0.060 A 
HETATM   33  C   UNL     1     -39.484  49.822 -54.413  1.00  0.00     0.048 C 
HETATM   34  C   UNL     1     -39.477  51.084 -52.242  1.00  0.00     0.009 A 
ENDBRANCH   1  24
TORSDOF 4
ENDMDL
MODEL 5
REMARK VINA RESULT:      -8.4     20.366     23.124
REMARK  4 active torsions:
REMARK  status: ('A' for Active; 'I' for Inactive)
REMARK    1  A    between atoms: C_8  and  C_9 
REMARK    2  A    between atoms: C_12  and  N_13 
REMARK       I    between atoms: N_13  and  C_14 
REMARK    3  A    between atoms: C_14  and  C_15 
REMARK    4  A    between atoms: C_17  and  N_18 
ROOT
HETATM    1  C   UNL     1     -32.284  39.640 -49.518  1.00  0.00     0.010 A 
HETATM    2  C   UNL     1     -31.500  39.879 -50.652  1.00  0.00     0.017 A 
HETATM    3  C   UNL     1     -32.092  40.140 -51.895  1.00  0.00     0.030 A 
HETATM    4  C   UNL     1     -33.479  40.165 -52.033  1.00  0.00     0.035 A 
HETATM    5  C   UNL     1     -34.267  39.850 -50.921  1.00  0.00     0.030 A 
HETATM    6  C   UNL     1     -33.676  39.593 -49.677  1.00  0.00     0.017 A 
ENDROOT
BRANCH   4   7
HETATM    7  N   UNL     1     -34.141  40.543 -53.223  1.00  0.00    -0.323 N 
HETATM    8  C   UNL     1     -34.619  39.684 -54.197  1.00  0.00     0.256 C 
HETATM    9  O   UNL     1     -34.663  38.460 -54.154  1.00  0.00    -0.267 OA
HETATM   10  H   UNL     1     -34.113  41.530 -53.450  1.00  0.00     0.169 HD
BRANCH   8  11
HETATM   11  C   UNL     1     -35.029  40.339 -55.465  1.00  0.00     0.034 A 
HETATM   12  C   UNL     1     -35.653  39.627 -56.502  1.00  0.00     0.047 A 
HETATM   13  C   UNL     1     -36.026  40.268 -57.699  1.00  0.00     0.046 A 
HETATM   14  C   UNL     1     -35.757  41.646 -57.800  1.00  0.00     0.030 A 
HETATM   15  C   UNL     1     -35.127  42.354 -56.770  1.00  0.00     0.003 A 
HETATM   16  C   UNL     1     -34.754  41.699 -55.605  1.00  0.00     0.017 A 
BRANCH  13  17
HETATM   17  N   UNL     1     -36.641  39.551 -58.776  1.00  0.00    -0.252 N 
HETATM   18  C   UNL     1     -35.980  38.669 -59.606  1.00  0.00     0.231 C 
HETATM   19  O   UNL     1     -34.837  38.240 -59.525  1.00  0.00    -0.273 OA
HETATM   20  C   UNL     1     -36.899  38.261 -60.717  1.00  0.00     0.113 C 
HETATM   21  C   UNL     1     -38.263  38.647 -60.209  1.00  0.00     0.113 C 
HETATM   22  C   UNL     1     -37.974  39.637 -59.122  1.00  0.00     0.231 C 
HETATM   23  O   UNL     1     -38.855  40.355 -58.668  1.00  0.00    -0.273 OA
ENDBRANCH  13  17
ENDBRANCH   8  11
ENDBRANCH   4   7
BRANCH   1  24
HETATM   24  C   UNL     1     -31.696  39.485 -48.184  1.00  0.00     0.139 A 
HETATM   25  N   UNL     1     -30.842  40.408 -47.619  1.00  0.00    -0.338 N 
HETATM   26  C   UNL     1     -30.549  40.021 -46.338  1.00  0.00     0.063 A 
HETATM   27  H   UNL     1     -30.529  41.261 -48.056  1.00  0.00     0.167 HD
HETATM   28  C   UNL     1     -31.244  38.831 -46.178  1.00  0.00     0.086 A 
HETATM   29  C   UNL     1     -29.772  40.601 -45.336  1.00  0.00     0.032 A 
HETATM   30  C   UNL     1     -31.165  38.154 -44.952  1.00  0.00     0.040 A 
HETATM   31  N   UNL     1     -31.945  38.517 -47.319  1.00  0.00    -0.228 NA
HETATM   32  C   UNL     1     -30.382  38.701 -43.918  1.00  0.00    -0.060 A 
HETATM   33  C   UNL     1     -30.303  38.017 -42.584  1.00  0.00     0.048 C 
HETATM   34  C   UNL     1     -29.708  39.915 -44.118  1.00  0.00     0.009 A 
ENDBRANCH   1  24
TORSDOF 4
ENDMDL
MODEL 6
REMARK VINA RESULT:      -8.3      6.727     11.180
REMARK  4 active torsions:
REMARK  status: ('A' for Active; 'I' for Inactive)
REMARK    1  A    between atoms: C_8  and  C_9 
REMARK    2  A    between atoms: C_12  and  N_13 
REMARK       I    between atoms: N_13  and  C_14 
REMARK    3  A    between atoms: C_14  and  C_15 
REMARK    4  A    between atoms: C_17  and  N_18 
ROOT
HETATM    1  C   UNL     1     -44.446  57.249 -57.331  1.00  0.00     0.010 A 
HETATM    2  C   UNL     1     -43.402  56.323 -57.437  1.00  0.00     0.017 A 
HETATM    3  C   UNL     1     -42.755  55.833 -56.295  1.00  0.00     0.030 A 
HETATM    4  C   UNL     1     -43.134  56.259 -55.023  1.00  0.00     0.035 A 
HETATM    5  C   UNL     1     -44.123  57.242 -54.914  1.00  0.00     0.030 A 
HETATM    6  C   UNL     1     -44.774  57.729 -56.056  1.00  0.00     0.017 A 
ENDROOT
BRANCH   4   7
HETATM    7  N   UNL     1     -42.612  55.716 -53.827  1.00  0.00    -0.323 N 
HETATM    8  C   UNL     1     -41.534  56.207 -53.112  1.00  0.00     0.256 C 
HETATM    9  O   UNL     1     -40.920  57.248 -53.312  1.00  0.00    -0.267 OA
HETATM   10  H   UNL     1     -42.960  54.799 -53.570  1.00  0.00     0.169 HD
BRANCH   8  11
HETATM   11  C   UNL     1     -41.023  55.305 -52.049  1.00  0.00     0.034 A 
HETATM   12  C   UNL     1     -40.739  53.952 -52.296  1.00  0.00     0.047 A 
HETATM   13  C   UNL     1     -40.262  53.113 -51.270  1.00  0.00     0.046 A 
HETATM   14  C   UNL     1     -40.076  53.693 -50.002  1.00  0.00     0.030 A 
HETATM   15  C   UNL     1     -40.368  55.039 -49.753  1.00  0.00     0.003 A 
HETATM   16  C   UNL     1     -40.850  55.844 -50.774  1.00  0.00     0.017 A 
BRANCH  13  17
HETATM   17  N   UNL     1     -39.991  51.725 -51.500  1.00  0.00    -0.252 N 
HETATM   18  C   UNL     1     -40.121  50.735 -50.548  1.00  0.00     0.231 C 
HETATM   19  O   UNL     1     -40.589  50.804 -49.419  1.00  0.00    -0.273 OA
HETATM   20  C   UNL     1     -39.575  49.453 -51.098  1.00  0.00     0.113 C 
HETATM   21  C   UNL     1     -39.521  49.698 -52.582  1.00  0.00     0.113 C 
HETATM   22  C   UNL     1     -39.573  51.191 -52.702  1.00  0.00     0.231 C 
HETATM   23  O   UNL     1     -39.284  51.754 -53.750  1.00  0.00    -0.273 OA
ENDBRANCH  13  17
ENDBRANCH   8  11
ENDBRANCH   4   7
BRANCH   1  24
HETATM   24  C   UNL     1     -45.220  57.685 -58.497  1.00  0.00     0.139 A 
HETATM   25  N   UNL     1     -46.031  56.844 -59.229  1.00  0.00    -0.338 N 
HETATM   26  C   UNL     1     -46.685  57.573 -60.185  1.00  0.00     0.063 A 
HETATM   27  H   UNL     1     -46.164  55.861 -59.053  1.00  0.00     0.167 HD
HETATM   28  C   UNL     1     -46.217  58.867 -60.002  1.00  0.00     0.086 A 
HETATM   29  C   UNL     1     -47.626  57.224 -61.153  1.00  0.00     0.032 A 
HETATM   30  C   UNL     1     -46.697  59.890 -60.833  1.00  0.00     0.040 A 
HETATM   31  N   UNL     1     -45.321  58.919 -58.961  1.00  0.00    -0.228 NA
HETATM   32  C   UNL     1     -47.641  59.577 -61.829  1.00  0.00    -0.060 A 
HETATM   33  C   UNL     1     -48.198  60.655 -62.713  1.00  0.00     0.048 C 
HETATM   34  C   UNL     1     -48.099  58.258 -61.970  1.00  0.00     0.009 A 
ENDBRANCH   1  24
TORSDOF 4
ENDMDL
MODEL 7
REMARK VINA RESULT:      -8.0      4.413     11.642
REMARK  4 active torsions:
REMARK  status: ('A' for Active; 'I' for Inactive)
REMARK    1  A    between atoms: C_8  and  C_9 
REMARK    2  A    between atoms: C_12  and  N_13 
REMARK       I    between atoms: N_13  and  C_14 
REMARK    3  A    between atoms: C_14  and  C_15 
REMARK    4  A    between atoms: C_17  and  N_18 
ROOT
HETATM    1  C   UNL     1     -45.160  60.374 -51.789  1.00  0.00     0.010 A 
HETATM    2  C   UNL     1     -43.812  60.669 -52.025  1.00  0.00     0.017 A 
HETATM    3  C   UNL     1     -42.818  59.702 -51.824  1.00  0.00     0.030 A 
HETATM    4  C   UNL     1     -43.147  58.422 -51.380  1.00  0.00     0.035 A 
HETATM    5  C   UNL     1     -44.482  58.146 -51.067  1.00  0.00     0.030 A 
HETATM    6  C   UNL     1     -45.477  59.110 -51.272  1.00  0.00     0.017 A 
ENDROOT
BRANCH   4   7
HETATM    7  N   UNL     1     -42.214  57.365 -51.275  1.00  0.00    -0.323 N 
HETATM    8  C   UNL     1     -42.158  56.244 -52.084  1.00  0.00     0.256 C 
HETATM    9  O   UNL     1     -42.816  56.022 -53.094  1.00  0.00    -0.267 OA
HETATM   10  H   UNL     1     -41.648  57.358 -50.434  1.00  0.00     0.169 HD
BRANCH   8  11
HETATM   11  C   UNL     1     -41.264  55.164 -51.599  1.00  0.00     0.034 A 
HETATM   12  C   UNL     1     -41.043  53.993 -52.340  1.00  0.00     0.047 A 
HETATM   13  C   UNL     1     -40.195  52.977 -51.857  1.00  0.00     0.046 A 
HETATM   14  C   UNL     1     -39.578  53.197 -50.611  1.00  0.00     0.030 A 
HETATM   15  C   UNL     1     -39.804  54.361 -49.867  1.00  0.00     0.003 A 
HETATM   16  C   UNL     1     -40.655  55.341 -50.356  1.00  0.00     0.017 A 
BRANCH  13  17
HETATM   17  N   UNL     1     -39.979  51.766 -52.589  1.00  0.00    -0.252 N 
HETATM   18  C   UNL     1     -39.989  51.672 -53.966  1.00  0.00     0.231 C 
HETATM   19  O   UNL     1     -40.050  52.564 -54.801  1.00  0.00    -0.273 OA
HETATM   20  C   UNL     1     -39.912  50.227 -54.357  1.00  0.00     0.113 C 
HETATM   21  C   UNL     1     -39.426  49.545 -53.107  1.00  0.00     0.113 C 
HETATM   22  C   UNL     1     -39.722  50.534 -52.021  1.00  0.00     0.231 C 
HETATM   23  O   UNL     1     -39.701  50.207 -50.841  1.00  0.00    -0.273 OA
ENDBRANCH  13  17
ENDBRANCH   8  11
ENDBRANCH   4   7
BRANCH   1  24
HETATM   24  C   UNL     1     -46.231  61.323 -52.106  1.00  0.00     0.139 A 
HETATM   25  N   UNL     1     -46.004  62.644 -52.429  1.00  0.00    -0.338 N 
HETATM   26  C   UNL     1     -47.194  63.233 -52.765  1.00  0.00     0.063 A 
HETATM   27  H   UNL     1     -45.101  63.090 -52.468  1.00  0.00     0.167 HD
HETATM   28  C   UNL     1     -48.128  62.219 -52.609  1.00  0.00     0.086 A 
HETATM   29  C   UNL     1     -47.518  64.520 -53.191  1.00  0.00     0.032 A 
HETATM   30  C   UNL     1     -49.478  62.487 -52.880  1.00  0.00     0.040 A 
HETATM   31  N   UNL     1     -47.521  61.052 -52.207  1.00  0.00    -0.228 NA
HETATM   32  C   UNL     1     -49.848  63.778 -53.303  1.00  0.00    -0.060 A 
HETATM   33  C   UNL     1     -51.279  64.088 -53.632  1.00  0.00     0.048 C 
HETATM   34  C   UNL     1     -48.868  64.770 -53.462  1.00  0.00     0.009 A 
ENDBRANCH   1  24
TORSDOF 4
ENDMDL
MODEL 8
REMARK VINA RESULT:      -7.9      1.920      2.482
REMARK  4 active torsions:
REMARK  status: ('A' for Active; 'I' for Inactive)
REMARK    1  A    between atoms: C_8  and  C_9 
REMARK    2  A    between atoms: C_12  and  N_13 
REMARK       I    between atoms: N_13  and  C_14 
REMARK    3  A    between atoms: C_14  and  C_15 
REMARK    4  A    between atoms: C_17  and  N_18 
ROOT
HETATM    1  C   UNL     1     -41.944  56.305 -51.794  1.00  0.00     0.010 A 
HETATM    2  C   UNL     1     -43.329  56.473 -51.692  1.00  0.00     0.017 A 
HETATM    3  C   UNL     1     -43.887  57.738 -51.464  1.00  0.00     0.030 A 
HETATM    4  C   UNL     1     -43.073  58.862 -51.331  1.00  0.00     0.035 A 
HETATM    5  C   UNL     1     -41.685  58.689 -51.354  1.00  0.00     0.030 A 
HETATM    6  C   UNL     1     -41.127  57.425 -51.585  1.00  0.00     0.017 A 
ENDROOT
BRANCH   4   7
HETATM    7  N   UNL     1     -43.570  60.181 -51.225  1.00  0.00    -0.323 N 
HETATM    8  C   UNL     1     -42.910  61.257 -50.658  1.00  0.00     0.256 C 
HETATM    9  O   UNL     1     -41.752  61.294 -50.259  1.00  0.00    -0.267 OA
HETATM   10  H   UNL     1     -44.554  60.300 -51.435  1.00  0.00     0.169 HD
BRANCH   8  11
HETATM   11  C   UNL     1     -43.751  62.459 -50.430  1.00  0.00     0.034 A 
HETATM   12  C   UNL     1     -45.144  62.434 -50.598  1.00  0.00     0.047 A 
HETATM   13  C   UNL     1     -45.922  63.589 -50.383  1.00  0.00     0.046 A 
HETATM   14  C   UNL     1     -45.241  64.754 -49.985  1.00  0.00     0.030 A 
HETATM   15  C   UNL     1     -43.851  64.782 -49.825  1.00  0.00     0.003 A 
HETATM   16  C   UNL     1     -43.104  63.637 -50.057  1.00  0.00     0.017 A 
BRANCH  13  17
HETATM   17  N   UNL     1     -47.341  63.586 -50.574  1.00  0.00    -0.252 N 
HETATM   18  C   UNL     1     -47.968  63.324 -51.774  1.00  0.00     0.231 C 
HETATM   19  O   UNL     1     -47.486  62.937 -52.830  1.00  0.00    -0.273 OA
HETATM   20  C   UNL     1     -49.435  63.593 -51.629  1.00  0.00     0.113 C 
HETATM   21  C   UNL     1     -49.646  63.614 -50.139  1.00  0.00     0.113 C 
HETATM   22  C   UNL     1     -48.271  63.834 -49.584  1.00  0.00     0.231 C 
HETATM   23  O   UNL     1     -48.103  64.167 -48.418  1.00  0.00    -0.273 OA
ENDBRANCH  13  17
ENDBRANCH   8  11
ENDBRANCH   4   7
BRANCH   1  24
HETATM   24  C   UNL     1     -41.341  55.018 -52.152  1.00  0.00     0.139 A 
HETATM   25  N   UNL     1     -40.718  54.191 -51.242  1.00  0.00    -0.338 N 
HETATM   26  C   UNL     1     -40.351  53.031 -51.870  1.00  0.00     0.063 A 
HETATM   27  H   UNL     1     -40.602  54.384 -50.260  1.00  0.00     0.167 HD
HETATM   28  C   UNL     1     -40.762  53.213 -53.183  1.00  0.00     0.086 A 
HETATM   29  C   UNL     1     -39.727  51.871 -51.411  1.00  0.00     0.032 A 
HETATM   30  C   UNL     1     -40.537  52.190 -54.116  1.00  0.00     0.040 A 
HETATM   31  N   UNL     1     -41.370  54.436 -53.339  1.00  0.00    -0.228 NA
HETATM   32  C   UNL     1     -39.902  51.007 -53.695  1.00  0.00    -0.060 A 
HETATM   33  C   UNL     1     -39.676  49.881 -54.662  1.00  0.00     0.048 C 
HETATM   34  C   UNL     1     -39.516  50.858 -52.354  1.00  0.00     0.009 A 
ENDBRANCH   1  24
TORSDOF 4
ENDMDL
MODEL 9
REMARK VINA RESULT:      -7.9      7.097     11.364
REMARK  4 active torsions:
REMARK  status: ('A' for Active; 'I' for Inactive)
REMARK    1  A    between atoms: C_8  and  C_9 
REMARK    2  A    between atoms: C_12  and  N_13 
REMARK       I    between atoms: N_13  and  C_14 
REMARK    3  A    between atoms: C_14  and  C_15 
REMARK    4  A    between atoms: C_17  and  N_18 
ROOT
HETATM    1  C   UNL     1     -44.545  57.653 -58.598  1.00  0.00     0.010 A 
HETATM    2  C   UNL     1     -44.050  56.469 -59.157  1.00  0.00     0.017 A 
HETATM    3  C   UNL     1     -43.243  55.602 -58.408  1.00  0.00     0.030 A 
HETATM    4  C   UNL     1     -42.911  55.899 -57.087  1.00  0.00     0.035 A 
HETATM    5  C   UNL     1     -43.337  57.118 -56.549  1.00  0.00     0.030 A 
HETATM    6  C   UNL     1     -44.148  57.983 -57.296  1.00  0.00     0.017 A 
ENDROOT
BRANCH   4   7
HETATM    7  N   UNL     1     -42.208  55.014 -56.238  1.00  0.00    -0.323 N 
HETATM    8  C   UNL     1     -42.736  54.332 -55.155  1.00  0.00     0.256 C 
HETATM    9  O   UNL     1     -43.911  54.277 -54.812  1.00  0.00    -0.267 OA
HETATM   10  H   UNL     1     -41.199  55.014 -56.338  1.00  0.00     0.169 HD
BRANCH   8  11
HETATM   11  C   UNL     1     -41.733  53.685 -54.273  1.00  0.00     0.034 A 
HETATM   12  C   UNL     1     -41.700  53.918 -52.889  1.00  0.00     0.047 A 
HETATM   13  C   UNL     1     -40.735  53.298 -52.072  1.00  0.00     0.046 A 
HETATM   14  C   UNL     1     -39.821  52.433 -52.703  1.00  0.00     0.030 A 
HETATM   15  C   UNL     1     -39.849  52.207 -54.083  1.00  0.00     0.003 A 
HETATM   16  C   UNL     1     -40.799  52.839 -54.871  1.00  0.00     0.017 A 
BRANCH  13  17
HETATM   17  N   UNL     1     -40.672  53.546 -50.663  1.00  0.00    -0.252 N 
HETATM   18  C   UNL     1     -40.562  52.563 -49.700  1.00  0.00     0.231 C 
HETATM   19  O   UNL     1     -40.375  51.362 -49.840  1.00  0.00    -0.273 OA
HETATM   20  C   UNL     1     -40.712  53.186 -48.346  1.00  0.00     0.113 C 
HETATM   21  C   UNL     1     -40.486  54.652 -48.602  1.00  0.00     0.113 C 
HETATM   22  C   UNL     1     -40.703  54.796 -50.078  1.00  0.00     0.231 C 
HETATM   23  O   UNL     1     -40.860  55.896 -50.593  1.00  0.00    -0.273 OA
ENDBRANCH  13  17
ENDBRANCH   8  11
ENDBRANCH   4   7
BRANCH   1  24
HETATM   24  C   UNL     1     -45.489  58.515 -59.315  1.00  0.00     0.139 A 
HETATM   25  N   UNL     1     -46.149  58.131 -60.463  1.00  0.00    -0.338 N 
HETATM   26  C   UNL     1     -47.024  59.119 -60.827  1.00  0.00     0.063 A 
HETATM   27  H   UNL     1     -46.047  57.242 -60.926  1.00  0.00     0.167 HD
HETATM   28  C   UNL     1     -46.841  60.103 -59.867  1.00  0.00     0.086 A 
HETATM   29  C   UNL     1     -47.940  59.223 -61.873  1.00  0.00     0.032 A 
HETATM   30  C   UNL     1     -47.602  61.280 -59.942  1.00  0.00     0.040 A 
HETATM   31  N   UNL     1     -45.897  59.717 -58.945  1.00  0.00    -0.228 NA
HETATM   32  C   UNL     1     -48.530  61.428 -60.989  1.00  0.00    -0.060 A 
HETATM   33  C   UNL     1     -49.383  62.661 -61.079  1.00  0.00     0.048 C 
HETATM   34  C   UNL     1     -48.695  60.401 -61.930  1.00  0.00     0.009 A 
ENDBRANCH   1  24
TORSDOF 4
ENDMDL
MODEL 10
REMARK VINA RESULT:      -7.7     20.829     23.238
REMARK  4 active torsions:
REMARK  status: ('A' for Active; 'I' for Inactive)
REMARK    1  A    between atoms: C_8  and  C_9 
REMARK    2  A    between atoms: C_12  and  N_13 
REMARK       I    between atoms: N_13  and  C_14 
REMARK    3  A    between atoms: C_14  and  C_15 
REMARK    4  A    between atoms: C_17  and  N_18 
ROOT
HETATM    1  C   UNL     1     -34.416  39.459 -51.572  1.00  0.00     0.010 A 
HETATM    2  C   UNL     1     -34.966  38.331 -52.193  1.00  0.00     0.017 A 
HETATM    3  C   UNL     1     -35.550  38.421 -53.463  1.00  0.00     0.030 A 
HETATM    4  C   UNL     1     -35.600  39.638 -54.140  1.00  0.00     0.035 A 
HETATM    5  C   UNL     1     -35.123  40.783 -53.493  1.00  0.00     0.030 A 
HETATM    6  C   UNL     1     -34.536  40.693 -52.224  1.00  0.00     0.017 A 
ENDROOT
BRANCH   4   7
HETATM    7  N   UNL     1     -36.060  39.778 -55.470  1.00  0.00    -0.323 N 
HETATM    8  C   UNL     1     -35.271  39.991 -56.587  1.00  0.00     0.256 C 
HETATM    9  O   UNL     1     -34.047  39.980 -56.646  1.00  0.00    -0.267 OA
HETATM   10  H   UNL     1     -37.061  39.893 -55.581  1.00  0.00     0.169 HD
BRANCH   8  11
HETATM   11  C   UNL     1     -36.013  40.369 -57.815  1.00  0.00     0.034 A 
HETATM   12  C   UNL     1     -36.349  39.426 -58.800  1.00  0.00     0.047 A 
HETATM   13  C   UNL     1     -37.047  39.809 -59.962  1.00  0.00     0.046 A 
HETATM   14  C   UNL     1     -37.398  41.167 -60.081  1.00  0.00     0.030 A 
HETATM   15  C   UNL     1     -37.055  42.109 -59.104  1.00  0.00     0.003 A 
HETATM   16  C   UNL     1     -36.354  41.712 -57.975  1.00  0.00     0.017 A 
BRANCH  13  17
HETATM   17  N   UNL     1     -37.376  38.865 -60.987  1.00  0.00    -0.252 N 
HETATM   18  C   UNL     1     -36.486  38.388 -61.927  1.00  0.00     0.231 C 
HETATM   19  O   UNL     1     -35.276  38.558 -62.001  1.00  0.00    -0.273 OA
HETATM   20  C   UNL     1     -37.231  37.569 -62.936  1.00  0.00     0.113 C 
HETATM   21  C   UNL     1     -38.538  37.268 -62.254  1.00  0.00     0.113 C 
HETATM   22  C   UNL     1     -38.622  38.297 -61.168  1.00  0.00     0.231 C 
HETATM   23  O   UNL     1     -39.674  38.518 -60.582  1.00  0.00    -0.273 OA
ENDBRANCH  13  17
ENDBRANCH   8  11
ENDBRANCH   4   7
BRANCH   1  24
HETATM   24  C   UNL     1     -33.692  39.371 -50.301  1.00  0.00     0.139 A 
HETATM   25  N   UNL     1     -33.995  38.456 -49.315  1.00  0.00    -0.338 N 
HETATM   26  C   UNL     1     -33.080  38.568 -48.303  1.00  0.00     0.063 A 
HETATM   27  H   UNL     1     -34.737  37.775 -49.357  1.00  0.00     0.167 HD
HETATM   28  C   UNL     1     -32.241  39.592 -48.720  1.00  0.00     0.086 A 
HETATM   29  C   UNL     1     -32.912  37.873 -47.106  1.00  0.00     0.032 A 
HETATM   30  C   UNL     1     -31.166  39.970 -47.900  1.00  0.00     0.040 A 
HETATM   31  N   UNL     1     -32.629  40.072 -49.949  1.00  0.00    -0.228 NA
HETATM   32  C   UNL     1     -30.969  39.300 -46.679  1.00  0.00    -0.060 A 
HETATM   33  C   UNL     1     -29.810  39.659 -45.795  1.00  0.00     0.048 C 
HETATM   34  C   UNL     1     -31.832  38.260 -46.304  1.00  0.00     0.009 A 
ENDBRANCH   1  24
TORSDOF 4
ENDMDL
