MODEL 1
REMARK VINA RESULT:      -9.5      0.000      0.000
REMARK  4 active torsions:
REMARK  status: ('A' for Active; 'I' for Inactive)
REMARK    1  A    between atoms: N_4  and  C_5 
REMARK    2  A    between atoms: C_15  and  N_16 
REMARK       I    between atoms: N_16  and  C_17 
REMARK    3  A    between atoms: C_17  and  C_18 
REMARK       I    between atoms: C_18  and  N_19 
REMARK    4  A    between atoms: N_19  and  C_20 
ROOT
HETATM    1  N   UNL     1     -42.110  59.067 -56.535  1.00  0.00    -0.303 N 
HETATM    2  C   UNL     1     -43.264  58.870 -55.799  1.00  0.00     0.315 C 
HETATM    3  O   UNL     1     -44.384  59.312 -56.027  1.00  0.00    -0.262 OA
HETATM    4  H   UNL     1     -41.380  58.370 -56.414  1.00  0.00     0.171 HD
ENDROOT
BRANCH   1   5
HETATM    5  C   UNL     1     -42.091  59.928 -57.616  1.00  0.00     0.152 C 
HETATM    6  N   UNL     1     -42.494  59.634 -58.917  1.00  0.00    -0.045 N 
HETATM    7  N   UNL     1     -42.115  60.631 -59.787  1.00  0.00    -0.156 NA
HETATM    8  C   UNL     1     -41.719  61.629 -58.989  1.00  0.00     0.055 C 
HETATM    9  C   UNL     1     -41.299  62.929 -59.565  1.00  0.00     0.072 C 
HETATM   10  C   UNL     1     -41.733  61.257 -57.626  1.00  0.00     0.079 C 
BRANCH   6  11
HETATM   11  C   UNL     1     -43.356  58.619 -59.395  1.00  0.00     0.732 A 
HETATM   12  N   UNL     1     -43.098  57.346 -59.336  1.00  0.00    -0.067 NA
HETATM   13  C   UNL     1     -44.092  56.544 -59.817  1.00  0.00     0.065 A 
HETATM   14  C   UNL     1     -45.270  56.953 -60.291  1.00  0.00     0.036 A 
HETATM   15  C   UNL     1     -43.984  55.057 -59.846  1.00  0.00     0.061 C 
HETATM   16  C   UNL     1     -46.154  55.844 -60.712  1.00  0.00     0.047 C 
HETATM   17  C   UNL     1     -45.564  58.384 -60.324  1.00  0.00     0.268 A 
HETATM   18  C   UNL     1     -45.183  54.657 -60.719  1.00  0.00     0.011 C 
HETATM   19  O   UNL     1     -46.635  58.828 -60.712  1.00  0.00    -0.267 OA
HETATM   20  N   UNL     1     -44.534  59.158 -59.870  1.00  0.00    -0.152 N 
HETATM   21  H   UNL     1     -44.658  60.164 -59.822  1.00  0.00     0.188 HD
ENDBRANCH   6  11
ENDBRANCH   1   5
BRANCH   2  22
HETATM   22  C   UNL     1     -43.063  57.904 -54.613  1.00  0.00     0.310 C 
HETATM   23  N   UNL     1     -42.025  57.020 -54.811  1.00  0.00    -0.348 N 
HETATM   24  H   UNL     1     -41.618  57.082 -55.743  1.00  0.00     0.163 HD
HETATM   25  O   UNL     1     -43.797  57.980 -53.641  1.00  0.00    -0.262 OA
BRANCH  23  26
HETATM   26  C   UNL     1     -41.819  55.794 -54.040  1.00  0.00     0.084 C 
HETATM   27  C   UNL     1     -41.167  54.746 -54.979  1.00  0.00     0.025 C 
HETATM   28  C   UNL     1     -41.234  53.306 -54.452  1.00  0.00     0.002 C 
HETATM   29  C   UNL     1     -39.860  52.747 -54.065  1.00  0.00     0.000 C 
HETATM   30  C   UNL     1     -39.947  51.524 -53.138  1.00  0.00     0.000 C 
HETATM   31  C   UNL     1     -39.587  51.857 -51.681  1.00  0.00     0.000 C 
HETATM   32  C   UNL     1     -40.600  52.782 -51.004  1.00  0.00     0.000 C 
HETATM   33  C   UNL     1     -39.953  53.672 -49.944  1.00  0.00     0.000 C 
HETATM   34  C   UNL     1     -40.906  54.733 -49.380  1.00  0.00     0.000 C 
HETATM   35  C   UNL     1     -40.990  56.037 -50.192  1.00  0.00     0.000 C 
HETATM   36  C   UNL     1     -41.832  55.967 -51.474  1.00  0.00     0.002 C 
HETATM   37  C   UNL     1     -40.984  56.036 -52.758  1.00  0.00     0.025 C 
ENDBRANCH  23  26
ENDBRANCH   2  22
TORSDOF 4
ENDMDL
MODEL 2
REMARK VINA RESULT:      -9.4      1.584      4.561
REMARK  4 active torsions:
REMARK  status: ('A' for Active; 'I' for Inactive)
REMARK    1  A    between atoms: N_4  and  C_5 
REMARK    2  A    between atoms: C_15  and  N_16 
REMARK       I    between atoms: N_16  and  C_17 
REMARK    3  A    between atoms: C_17  and  C_18 
REMARK       I    between atoms: C_18  and  N_19 
REMARK    4  A    between atoms: N_19  and  C_20 
ROOT
HETATM    1  N   UNL     1     -43.573  56.943 -57.965  1.00  0.00    -0.303 N 
HETATM    2  C   UNL     1     -43.811  57.391 -56.679  1.00  0.00     0.315 C 
HETATM    3  O   UNL     1     -44.839  57.889 -56.235  1.00  0.00    -0.262 OA
HETATM    4  H   UNL     1     -42.826  56.262 -58.069  1.00  0.00     0.171 HD
ENDROOT
BRANCH   1   5
HETATM    5  C   UNL     1     -44.508  57.124 -58.968  1.00  0.00     0.152 C 
HETATM    6  N   UNL     1     -44.671  58.263 -59.754  1.00  0.00    -0.045 N 
HETATM    7  N   UNL     1     -45.840  58.198 -60.477  1.00  0.00    -0.156 NA
HETATM    8  C   UNL     1     -46.248  56.933 -60.329  1.00  0.00     0.055 C 
HETATM    9  C   UNL     1     -47.459  56.447 -61.034  1.00  0.00     0.072 C 
HETATM   10  C   UNL     1     -45.424  56.210 -59.438  1.00  0.00     0.079 C 
BRANCH   6  11
HETATM   11  C   UNL     1     -43.761  59.308 -60.042  1.00  0.00     0.732 A 
HETATM   12  N   UNL     1     -42.911  59.799 -59.189  1.00  0.00    -0.067 NA
HETATM   13  C   UNL     1     -42.100  60.772 -59.696  1.00  0.00     0.065 A 
HETATM   14  C   UNL     1     -42.093  61.211 -60.955  1.00  0.00     0.036 A 
HETATM   15  C   UNL     1     -41.066  61.467 -58.875  1.00  0.00     0.061 C 
HETATM   16  C   UNL     1     -41.076  62.254 -61.211  1.00  0.00     0.047 C 
HETATM   17  C   UNL     1     -43.030  60.631 -61.914  1.00  0.00     0.268 A 
HETATM   18  C   UNL     1     -40.650  62.631 -59.786  1.00  0.00     0.011 C 
HETATM   19  O   UNL     1     -43.056  60.959 -63.092  1.00  0.00    -0.267 OA
HETATM   20  N   UNL     1     -43.850  59.687 -61.365  1.00  0.00    -0.152 N 
HETATM   21  H   UNL     1     -44.513  59.202 -61.963  1.00  0.00     0.188 HD
ENDBRANCH   6  11
ENDBRANCH   1   5
BRANCH   2  22
HETATM   22  C   UNL     1     -42.628  57.127 -55.724  1.00  0.00     0.310 C 
HETATM   23  N   UNL     1     -42.605  55.837 -55.242  1.00  0.00    -0.348 N 
HETATM   24  H   UNL     1     -43.420  55.292 -55.517  1.00  0.00     0.163 HD
HETATM   25  O   UNL     1     -41.844  58.028 -55.470  1.00  0.00    -0.262 OA
BRANCH  23  26
HETATM   26  C   UNL     1     -41.830  55.396 -54.081  1.00  0.00     0.084 C 
HETATM   27  C   UNL     1     -42.461  56.036 -52.818  1.00  0.00     0.025 C 
HETATM   28  C   UNL     1     -41.559  55.992 -51.577  1.00  0.00     0.002 C 
HETATM   29  C   UNL     1     -42.091  55.056 -50.485  1.00  0.00     0.000 C 
HETATM   30  C   UNL     1     -41.016  54.651 -49.463  1.00  0.00     0.000 C 
HETATM   31  C   UNL     1     -40.523  53.210 -49.660  1.00  0.00     0.000 C 
HETATM   32  C   UNL     1     -39.747  53.008 -50.963  1.00  0.00     0.000 C 
HETATM   33  C   UNL     1     -39.903  51.593 -51.516  1.00  0.00     0.000 C 
HETATM   34  C   UNL     1     -39.288  51.417 -52.910  1.00  0.00     0.000 C 
HETATM   35  C   UNL     1     -40.203  51.804 -54.084  1.00  0.00     0.000 C 
HETATM   36  C   UNL     1     -40.348  53.311 -54.343  1.00  0.00     0.002 C 
HETATM   37  C   UNL     1     -41.744  53.853 -53.981  1.00  0.00     0.025 C 
ENDBRANCH  23  26
ENDBRANCH   2  22
TORSDOF 4
ENDMDL
MODEL 3
REMARK VINA RESULT:      -9.1      2.248      3.531
REMARK  4 active torsions:
REMARK  status: ('A' for Active; 'I' for Inactive)
REMARK    1  A    between atoms: N_4  and  C_5 
REMARK    2  A    between atoms: C_15  and  N_16 
REMARK       I    between atoms: N_16  and  C_17 
REMARK    3  A    between atoms: C_17  and  C_18 
REMARK       I    between atoms: C_18  and  N_19 
REMARK    4  A    between atoms: N_19  and  C_20 
ROOT
HETATM    1  N   UNL     1     -43.824  59.459 -54.503  1.00  0.00    -0.303 N 
HETATM    2  C   UNL     1     -42.530  59.883 -54.747  1.00  0.00     0.315 C 
HETATM    3  O   UNL     1     -42.170  60.881 -55.360  1.00  0.00    -0.262 OA
HETATM    4  H   UNL     1     -43.946  58.835 -53.710  1.00  0.00     0.171 HD
ENDROOT
BRANCH   1   5
HETATM    5  C   UNL     1     -44.906  60.117 -55.057  1.00  0.00     0.152 C 
HETATM    6  N   UNL     1     -45.375  59.988 -56.363  1.00  0.00    -0.045 N 
HETATM    7  N   UNL     1     -46.307  60.959 -56.649  1.00  0.00    -0.156 NA
HETATM    8  C   UNL     1     -46.587  61.505 -55.460  1.00  0.00     0.055 C 
HETATM    9  C   UNL     1     -47.623  62.560 -55.344  1.00  0.00     0.072 C 
HETATM   10  C   UNL     1     -45.777  60.979 -54.430  1.00  0.00     0.079 C 
BRANCH   6  11
HETATM   11  C   UNL     1     -45.185  58.944 -57.299  1.00  0.00     0.732 A 
HETATM   12  N   UNL     1     -44.232  58.061 -57.233  1.00  0.00    -0.067 NA
HETATM   13  C   UNL     1     -44.266  57.118 -58.219  1.00  0.00     0.065 A 
HETATM   14  C   UNL     1     -45.185  57.021 -59.181  1.00  0.00     0.036 A 
HETATM   15  C   UNL     1     -43.255  56.026 -58.325  1.00  0.00     0.061 C 
HETATM   16  C   UNL     1     -44.971  55.872 -60.088  1.00  0.00     0.047 C 
HETATM   17  C   UNL     1     -46.270  57.998 -59.228  1.00  0.00     0.268 A 
HETATM   18  C   UNL     1     -43.548  55.440 -59.713  1.00  0.00     0.011 C 
HETATM   19  O   UNL     1     -47.165  57.950 -60.059  1.00  0.00    -0.267 OA
HETATM   20  N   UNL     1     -46.185  58.948 -58.250  1.00  0.00    -0.152 N 
HETATM   21  H   UNL     1     -46.914  59.650 -58.180  1.00  0.00     0.188 HD
ENDBRANCH   6  11
ENDBRANCH   1   5
BRANCH   2  22
HETATM   22  C   UNL     1     -41.469  58.991 -54.070  1.00  0.00     0.310 C 
HETATM   23  N   UNL     1     -41.827  57.662 -54.034  1.00  0.00    -0.348 N 
HETATM   24  H   UNL     1     -42.772  57.493 -54.374  1.00  0.00     0.163 HD
HETATM   25  O   UNL     1     -40.447  59.496 -53.632  1.00  0.00    -0.262 OA
BRANCH  23  26
HETATM   26  C   UNL     1     -41.205  56.655 -53.173  1.00  0.00     0.084 C 
HETATM   27  C   UNL     1     -41.697  56.900 -51.723  1.00  0.00     0.025 C 
HETATM   28  C   UNL     1     -40.859  56.191 -50.650  1.00  0.00     0.002 C 
HETATM   29  C   UNL     1     -41.622  55.061 -49.947  1.00  0.00     0.000 C 
HETATM   30  C   UNL     1     -40.696  54.071 -49.222  1.00  0.00     0.000 C 
HETATM   31  C   UNL     1     -40.552  52.737 -49.971  1.00  0.00     0.000 C 
HETATM   32  C   UNL     1     -39.815  52.867 -51.305  1.00  0.00     0.000 C 
HETATM   33  C   UNL     1     -40.286  51.838 -52.330  1.00  0.00     0.000 C 
HETATM   34  C   UNL     1     -39.698  52.063 -53.728  1.00  0.00     0.000 C 
HETATM   35  C   UNL     1     -40.469  53.058 -54.612  1.00  0.00     0.000 C 
HETATM   36  C   UNL     1     -40.249  54.543 -54.286  1.00  0.00     0.002 C 
HETATM   37  C   UNL     1     -41.487  55.210 -53.656  1.00  0.00     0.025 C 
ENDBRANCH  23  26
ENDBRANCH   2  22
TORSDOF 4
ENDMDL
MODEL 4
REMARK VINA RESULT:      -9.0      1.404      2.790
REMARK  4 active torsions:
REMARK  status: ('A' for Active; 'I' for Inactive)
REMARK    1  A    between atoms: N_4  and  C_5 
REMARK    2  A    between atoms: C_15  and  N_16 
REMARK       I    between atoms: N_16  and  C_17 
REMARK    3  A    between atoms: C_17  and  C_18 
REMARK       I    between atoms: C_18  and  N_19 
REMARK    4  A    between atoms: N_19  and  C_20 
ROOT
HETATM    1  N   UNL     1     -42.810  59.524 -55.803  1.00  0.00    -0.303 N 
HETATM    2  C   UNL     1     -43.908  58.946 -55.193  1.00  0.00     0.315 C 
HETATM    3  O   UNL     1     -45.089  59.077 -55.493  1.00  0.00    -0.262 OA
HETATM    4  H   UNL     1     -41.922  59.050 -55.663  1.00  0.00     0.171 HD
ENDROOT
BRANCH   1   5
HETATM    5  C   UNL     1     -42.962  60.452 -56.816  1.00  0.00     0.152 C 
HETATM    6  N   UNL     1     -43.167  60.179 -58.167  1.00  0.00    -0.045 N 
HETATM    7  N   UNL     1     -43.031  61.320 -58.925  1.00  0.00    -0.156 NA
HETATM    8  C   UNL     1     -43.000  62.310 -58.026  1.00  0.00     0.055 C 
HETATM    9  C   UNL     1     -42.933  63.724 -58.468  1.00  0.00     0.072 C 
HETATM   10  C   UNL     1     -43.005  61.823 -56.700  1.00  0.00     0.079 C 
BRANCH   6  11
HETATM   11  C   UNL     1     -43.661  59.012 -58.795  1.00  0.00     0.732 A 
HETATM   12  N   UNL     1     -44.921  58.765 -59.002  1.00  0.00    -0.067 NA
HETATM   13  C   UNL     1     -45.168  57.598 -59.664  1.00  0.00     0.065 A 
HETATM   14  C   UNL     1     -44.249  56.747 -60.123  1.00  0.00     0.036 A 
HETATM   15  C   UNL     1     -46.547  57.132 -59.988  1.00  0.00     0.061 C 
HETATM   16  C   UNL     1     -44.824  55.581 -60.828  1.00  0.00     0.047 C 
HETATM   17  C   UNL     1     -42.835  57.048 -59.914  1.00  0.00     0.268 A 
HETATM   18  C   UNL     1     -46.307  55.686 -60.446  1.00  0.00     0.011 C 
HETATM   19  O   UNL     1     -41.939  56.332 -60.338  1.00  0.00    -0.267 OA
HETATM   20  N   UNL     1     -42.626  58.204 -59.217  1.00  0.00    -0.152 N 
HETATM   21  H   UNL     1     -41.674  58.515 -59.052  1.00  0.00     0.188 HD
ENDBRANCH   6  11
ENDBRANCH   1   5
BRANCH   2  22
HETATM   22  C   UNL     1     -43.523  57.968 -54.063  1.00  0.00     0.310 C 
HETATM   23  N   UNL     1     -42.183  58.013 -53.748  1.00  0.00    -0.348 N 
HETATM   24  H   UNL     1     -41.644  58.614 -54.371  1.00  0.00     0.163 HD
HETATM   25  O   UNL     1     -44.379  57.259 -53.560  1.00  0.00    -0.262 OA
BRANCH  23  26
HETATM   26  C   UNL     1     -41.473  56.988 -52.982  1.00  0.00     0.084 C 
HETATM   27  C   UNL     1     -41.889  57.132 -51.496  1.00  0.00     0.025 C 
HETATM   28  C   UNL     1     -40.964  56.402 -50.513  1.00  0.00     0.002 C 
HETATM   29  C   UNL     1     -41.640  55.204 -49.835  1.00  0.00     0.000 C 
HETATM   30  C   UNL     1     -40.635  54.216 -49.220  1.00  0.00     0.000 C 
HETATM   31  C   UNL     1     -40.482  52.932 -50.050  1.00  0.00     0.000 C 
HETATM   32  C   UNL     1     -39.830  53.166 -51.414  1.00  0.00     0.000 C 
HETATM   33  C   UNL     1     -40.319  52.175 -52.468  1.00  0.00     0.000 C 
HETATM   34  C   UNL     1     -39.822  52.501 -53.882  1.00  0.00     0.000 C 
HETATM   35  C   UNL     1     -40.681  53.510 -54.663  1.00  0.00     0.000 C 
HETATM   36  C   UNL     1     -40.502  54.982 -54.266  1.00  0.00     0.002 C 
HETATM   37  C   UNL     1     -41.725  55.561 -53.530  1.00  0.00     0.025 C 
ENDBRANCH  23  26
ENDBRANCH   2  22
TORSDOF 4
ENDMDL
MODEL 5
REMARK VINA RESULT:      -8.9      2.094      2.300
REMARK  4 active torsions:
REMARK  status: ('A' for Active; 'I' for Inactive)
REMARK    1  A    between atoms: N_4  and  C_5 
REMARK    2  A    between atoms: C_15  and  N_16 
REMARK       I    between atoms: N_16  and  C_17 
REMARK    3  A    between atoms: C_17  and  C_18 
REMARK       I    between atoms: C_18  and  N_19 
REMARK    4  A    between atoms: N_19  and  C_20 
ROOT
HETATM    1  N   UNL     1     -45.410  59.214 -55.477  1.00  0.00    -0.303 N 
HETATM    2  C   UNL     1     -44.068  59.167 -55.147  1.00  0.00     0.315 C 
HETATM    3  O   UNL     1     -43.170  59.899 -55.546  1.00  0.00    -0.262 OA
HETATM    4  H   UNL     1     -46.047  58.782 -54.813  1.00  0.00     0.171 HD
ENDROOT
BRANCH   1   5
HETATM    5  C   UNL     1     -45.879  60.092 -56.436  1.00  0.00     0.152 C 
HETATM    6  N   UNL     1     -45.823  59.917 -57.818  1.00  0.00    -0.045 N 
HETATM    7  N   UNL     1     -46.153  61.081 -58.474  1.00  0.00    -0.156 NA
HETATM    8  C   UNL     1     -46.647  61.870 -57.514  1.00  0.00     0.055 C 
HETATM    9  C   UNL     1     -47.188  63.210 -57.849  1.00  0.00     0.072 C 
HETATM   10  C   UNL     1     -46.544  61.280 -56.235  1.00  0.00     0.079 C 
BRANCH   6  11
HETATM   11  C   UNL     1     -45.683  58.733 -58.580  1.00  0.00     0.732 A 
HETATM   12  N   UNL     1     -44.797  57.810 -58.349  1.00  0.00    -0.067 NA
HETATM   13  C   UNL     1     -44.872  56.732 -59.184  1.00  0.00     0.065 A 
HETATM   14  C   UNL     1     -45.770  56.552 -60.154  1.00  0.00     0.036 A 
HETATM   15  C   UNL     1     -43.939  55.573 -59.088  1.00  0.00     0.061 C 
HETATM   16  C   UNL     1     -45.615  55.267 -60.870  1.00  0.00     0.047 C 
HETATM   17  C   UNL     1     -46.782  57.580 -60.385  1.00  0.00     0.268 A 
HETATM   18  C   UNL     1     -44.235  54.804 -60.384  1.00  0.00     0.011 C 
HETATM   19  O   UNL     1     -47.656  57.466 -61.231  1.00  0.00    -0.267 OA
HETATM   20  N   UNL     1     -46.655  58.659 -59.557  1.00  0.00    -0.152 N 
HETATM   21  H   UNL     1     -47.335  59.411 -59.619  1.00  0.00     0.188 HD
ENDBRANCH   6  11
ENDBRANCH   1   5
BRANCH   2  22
HETATM   22  C   UNL     1     -43.748  58.094 -54.085  1.00  0.00     0.310 C 
HETATM   23  N   UNL     1     -42.634  57.346 -54.396  1.00  0.00    -0.348 N 
HETATM   24  H   UNL     1     -42.255  57.556 -55.318  1.00  0.00     0.163 HD
HETATM   25  O   UNL     1     -44.465  57.984 -53.103  1.00  0.00    -0.262 OA
BRANCH  23  26
HETATM   26  C   UNL     1     -42.293  56.065 -53.777  1.00  0.00     0.084 C 
HETATM   27  C   UNL     1     -41.620  55.179 -54.857  1.00  0.00     0.025 C 
HETATM   28  C   UNL     1     -41.550  53.690 -54.491  1.00  0.00     0.002 C 
HETATM   29  C   UNL     1     -40.118  53.205 -54.236  1.00  0.00     0.000 C 
HETATM   30  C   UNL     1     -40.060  51.887 -53.446  1.00  0.00     0.000 C 
HETATM   31  C   UNL     1     -39.643  52.090 -51.982  1.00  0.00     0.000 C 
HETATM   32  C   UNL     1     -40.681  52.854 -51.157  1.00  0.00     0.000 C 
HETATM   33  C   UNL     1     -40.042  53.674 -50.038  1.00  0.00     0.000 C 
HETATM   34  C   UNL     1     -41.038  54.589 -49.314  1.00  0.00     0.000 C 
HETATM   35  C   UNL     1     -41.265  55.961 -49.971  1.00  0.00     0.000 C 
HETATM   36  C   UNL     1     -42.172  55.961 -51.209  1.00  0.00     0.002 C 
HETATM   37  C   UNL     1     -41.406  56.235 -52.518  1.00  0.00     0.025 C 
ENDBRANCH  23  26
ENDBRANCH   2  22
TORSDOF 4
ENDMDL
MODEL 6
REMARK VINA RESULT:      -8.8      5.437      9.278
REMARK  4 active torsions:
REMARK  status: ('A' for Active; 'I' for Inactive)
REMARK    1  A    between atoms: N_4  and  C_5 
REMARK    2  A    between atoms: C_15  and  N_16 
REMARK       I    between atoms: N_16  and  C_17 
REMARK    3  A    between atoms: C_17  and  C_18 
REMARK       I    between atoms: C_18  and  N_19 
REMARK    4  A    between atoms: N_19  and  C_20 
ROOT
HETATM    1  N   UNL     1     -43.173  58.452 -52.951  1.00  0.00    -0.303 N 
HETATM    2  C   UNL     1     -42.336  59.501 -52.618  1.00  0.00     0.315 C 
HETATM    3  O   UNL     1     -41.359  59.908 -53.236  1.00  0.00    -0.262 OA
HETATM    4  H   UNL     1     -44.101  58.474 -52.538  1.00  0.00     0.171 HD
ENDROOT
BRANCH   1   5
HETATM    5  C   UNL     1     -42.903  57.641 -54.037  1.00  0.00     0.152 C 
HETATM    6  N   UNL     1     -42.042  56.545 -54.060  1.00  0.00    -0.045 N 
HETATM    7  N   UNL     1     -41.821  56.120 -55.350  1.00  0.00    -0.156 NA
HETATM    8  C   UNL     1     -42.732  56.781 -56.074  1.00  0.00     0.055 C 
HETATM    9  C   UNL     1     -42.860  56.530 -57.530  1.00  0.00     0.072 C 
HETATM   10  C   UNL     1     -43.463  57.703 -55.293  1.00  0.00     0.079 C 
BRANCH   6  11
HETATM   11  C   UNL     1     -41.562  55.742 -52.998  1.00  0.00     0.732 A 
HETATM   12  N   UNL     1     -41.633  56.066 -51.741  1.00  0.00    -0.067 NA
HETATM   13  C   UNL     1     -41.147  55.122 -50.884  1.00  0.00     0.065 A 
HETATM   14  C   UNL     1     -40.657  53.929 -51.228  1.00  0.00     0.036 A 
HETATM   15  C   UNL     1     -41.130  55.308 -49.405  1.00  0.00     0.061 C 
HETATM   16  C   UNL     1     -40.234  53.110 -50.071  1.00  0.00     0.047 C 
HETATM   17  C   UNL     1     -40.610  53.561 -52.641  1.00  0.00     0.268 A 
HETATM   18  C   UNL     1     -40.247  54.142 -48.937  1.00  0.00     0.011 C 
HETATM   19  O   UNL     1     -40.208  52.472 -53.025  1.00  0.00    -0.267 OA
HETATM   20  N   UNL     1     -41.071  54.543 -53.471  1.00  0.00    -0.152 N 
HETATM   21  H   UNL     1     -41.110  54.366 -54.470  1.00  0.00     0.188 HD
ENDBRANCH   6  11
ENDBRANCH   1   5
BRANCH   2  22
HETATM   22  C   UNL     1     -42.793  60.255 -51.352  1.00  0.00     0.310 C 
HETATM   23  N   UNL     1     -44.114  60.644 -51.406  1.00  0.00    -0.348 N 
HETATM   24  H   UNL     1     -44.550  60.455 -52.307  1.00  0.00     0.163 HD
HETATM   25  O   UNL     1     -42.000  60.451 -50.445  1.00  0.00    -0.262 OA
BRANCH  23  26
HETATM   26  C   UNL     1     -44.722  61.648 -50.533  1.00  0.00     0.084 C 
HETATM   27  C   UNL     1     -45.835  62.366 -51.339  1.00  0.00     0.025 C 
HETATM   28  C   UNL     1     -46.307  63.686 -50.715  1.00  0.00     0.002 C 
HETATM   29  C   UNL     1     -47.743  63.615 -50.181  1.00  0.00     0.000 C 
HETATM   30  C   UNL     1     -48.067  64.732 -49.176  1.00  0.00     0.000 C 
HETATM   31  C   UNL     1     -48.110  64.231 -47.724  1.00  0.00     0.000 C 
HETATM   32  C   UNL     1     -46.745  63.783 -47.198  1.00  0.00     0.000 C 
HETATM   33  C   UNL     1     -46.862  62.670 -46.158  1.00  0.00     0.000 C 
HETATM   34  C   UNL     1     -45.507  62.077 -45.751  1.00  0.00     0.000 C 
HETATM   35  C   UNL     1     -44.983  60.952 -46.660  1.00  0.00     0.000 C 
HETATM   36  C   UNL     1     -44.377  61.408 -47.996  1.00  0.00     0.002 C 
HETATM   37  C   UNL     1     -45.250  61.039 -49.210  1.00  0.00     0.025 C 
ENDBRANCH  23  26
ENDBRANCH   2  22
TORSDOF 4
ENDMDL
MODEL 7
REMARK VINA RESULT:      -8.5      2.355      2.872
REMARK  4 active torsions:
REMARK  status: ('A' for Active; 'I' for Inactive)
REMARK    1  A    between atoms: N_4  and  C_5 
REMARK    2  A    between atoms: C_15  and  N_16 
REMARK       I    between atoms: N_16  and  C_17 
REMARK    3  A    between atoms: C_17  and  C_18 
REMARK       I    between atoms: C_18  and  N_19 
REMARK    4  A    between atoms: N_19  and  C_20 
ROOT
HETATM    1  N   UNL     1     -43.767  58.166 -53.898  1.00  0.00    -0.303 N 
HETATM    2  C   UNL     1     -42.481  57.765 -53.587  1.00  0.00     0.315 C 
HETATM    3  O   UNL     1     -41.443  58.405 -53.715  1.00  0.00    -0.262 OA
HETATM    4  H   UNL     1     -44.516  57.673 -53.418  1.00  0.00     0.171 HD
ENDROOT
BRANCH   1   5
HETATM    5  C   UNL     1     -44.007  59.376 -54.522  1.00  0.00     0.152 C 
HETATM    6  N   UNL     1     -44.068  59.602 -55.896  1.00  0.00    -0.045 N 
HETATM    7  N   UNL     1     -44.077  60.950 -56.173  1.00  0.00    -0.156 NA
HETATM    8  C   UNL     1     -44.279  61.527 -54.983  1.00  0.00     0.055 C 
HETATM    9  C   UNL     1     -44.426  62.999 -54.879  1.00  0.00     0.072 C 
HETATM   10  C   UNL     1     -44.292  60.586 -53.931  1.00  0.00     0.079 C 
BRANCH   6  11
HETATM   11  C   UNL     1     -44.310  58.697 -56.957  1.00  0.00     0.732 A 
HETATM   12  N   UNL     1     -43.551  57.682 -57.246  1.00  0.00    -0.067 NA
HETATM   13  C   UNL     1     -43.999  56.917 -58.284  1.00  0.00     0.065 A 
HETATM   14  C   UNL     1     -45.127  57.109 -58.969  1.00  0.00     0.036 A 
HETATM   15  C   UNL     1     -43.266  55.715 -58.775  1.00  0.00     0.061 C 
HETATM   16  C   UNL     1     -45.359  56.094 -60.020  1.00  0.00     0.047 C 
HETATM   17  C   UNL     1     -45.990  58.234 -58.616  1.00  0.00     0.268 A 
HETATM   18  C   UNL     1     -43.993  55.400 -60.090  1.00  0.00     0.011 C 
HETATM   19  O   UNL     1     -47.055  58.449 -59.178  1.00  0.00    -0.267 OA
HETATM   20  N   UNL     1     -45.493  58.998 -57.599  1.00  0.00    -0.152 N 
HETATM   21  H   UNL     1     -46.040  59.783 -57.260  1.00  0.00     0.188 HD
ENDBRANCH   6  11
ENDBRANCH   1   5
BRANCH   2  22
HETATM   22  C   UNL     1     -42.429  56.370 -52.931  1.00  0.00     0.310 C 
HETATM   23  N   UNL     1     -41.402  55.587 -53.413  1.00  0.00    -0.348 N 
HETATM   24  H   UNL     1     -40.900  56.018 -54.188  1.00  0.00     0.163 HD
HETATM   25  O   UNL     1     -43.255  56.069 -52.085  1.00  0.00    -0.262 OA
BRANCH  23  26
HETATM   26  C   UNL     1     -41.310  54.137 -53.241  1.00  0.00     0.084 C 
HETATM   27  C   UNL     1     -40.766  53.536 -54.563  1.00  0.00     0.025 C 
HETATM   28  C   UNL     1     -40.969  52.021 -54.691  1.00  0.00     0.002 C 
HETATM   29  C   UNL     1     -39.652  51.236 -54.638  1.00  0.00     0.000 C 
HETATM   30  C   UNL     1     -39.851  49.747 -54.311  1.00  0.00     0.000 C 
HETATM   31  C   UNL     1     -39.455  49.399 -52.868  1.00  0.00     0.000 C 
HETATM   32  C   UNL     1     -40.372  50.031 -51.818  1.00  0.00     0.000 C 
HETATM   33  C   UNL     1     -39.638  50.327 -50.512  1.00  0.00     0.000 C 
HETATM   34  C   UNL     1     -40.483  51.125 -49.511  1.00  0.00     0.000 C 
HETATM   35  C   UNL     1     -40.445  52.652 -49.692  1.00  0.00     0.000 C 
HETATM   36  C   UNL     1     -41.296  53.205 -50.844  1.00  0.00     0.002 C 
HETATM   37  C   UNL     1     -40.451  53.741 -52.015  1.00  0.00     0.025 C 
ENDBRANCH  23  26
ENDBRANCH   2  22
TORSDOF 4
ENDMDL
MODEL 8
REMARK VINA RESULT:      -8.4      4.541      7.388
REMARK  4 active torsions:
REMARK  status: ('A' for Active; 'I' for Inactive)
REMARK    1  A    between atoms: N_4  and  C_5 
REMARK    2  A    between atoms: C_15  and  N_16 
REMARK       I    between atoms: N_16  and  C_17 
REMARK    3  A    between atoms: C_17  and  C_18 
REMARK       I    between atoms: C_18  and  N_19 
REMARK    4  A    between atoms: N_19  and  C_20 
ROOT
HETATM    1  N   UNL     1     -44.139  59.966 -54.044  1.00  0.00    -0.303 N 
HETATM    2  C   UNL     1     -42.900  60.455 -53.673  1.00  0.00     0.315 C 
HETATM    3  O   UNL     1     -42.593  61.615 -53.425  1.00  0.00    -0.262 OA
HETATM    4  H   UNL     1     -44.299  58.978 -53.870  1.00  0.00     0.171 HD
ENDROOT
BRANCH   1   5
HETATM    5  C   UNL     1     -45.198  60.821 -54.288  1.00  0.00     0.152 C 
HETATM    6  N   UNL     1     -45.961  61.490 -53.333  1.00  0.00    -0.045 N 
HETATM    7  N   UNL     1     -47.078  62.056 -53.904  1.00  0.00    -0.156 NA
HETATM    8  C   UNL     1     -46.862  61.952 -55.220  1.00  0.00     0.055 C 
HETATM    9  C   UNL     1     -47.828  62.527 -56.187  1.00  0.00     0.072 C 
HETATM   10  C   UNL     1     -45.680  61.234 -55.509  1.00  0.00     0.079 C 
BRANCH   6  11
HETATM   11  C   UNL     1     -45.657  61.814 -51.990  1.00  0.00     0.732 A 
HETATM   12  N   UNL     1     -45.858  61.022 -50.978  1.00  0.00    -0.067 NA
HETATM   13  C   UNL     1     -45.449  61.524 -49.777  1.00  0.00     0.065 A 
HETATM   14  C   UNL     1     -44.854  62.702 -49.580  1.00  0.00     0.036 A 
HETATM   15  C   UNL     1     -45.601  60.775 -48.496  1.00  0.00     0.061 C 
HETATM   16  C   UNL     1     -44.499  62.955 -48.166  1.00  0.00     0.047 C 
HETATM   17  C   UNL     1     -44.603  63.571 -50.727  1.00  0.00     0.268 A 
HETATM   18  C   UNL     1     -45.280  61.848 -47.446  1.00  0.00     0.011 C 
HETATM   19  O   UNL     1     -44.031  64.647 -50.626  1.00  0.00    -0.267 OA
HETATM   20  N   UNL     1     -45.057  63.054 -51.907  1.00  0.00    -0.152 N 
HETATM   21  H   UNL     1     -44.898  63.571 -52.766  1.00  0.00     0.188 HD
ENDBRANCH   6  11
ENDBRANCH   1   5
BRANCH   2  22
HETATM   22  C   UNL     1     -41.847  59.341 -53.487  1.00  0.00     0.310 C 
HETATM   23  N   UNL     1     -42.397  58.142 -53.093  1.00  0.00    -0.348 N 
HETATM   24  H   UNL     1     -43.396  58.205 -52.896  1.00  0.00     0.163 HD
HETATM   25  O   UNL     1     -40.668  59.586 -53.685  1.00  0.00    -0.262 OA
BRANCH  23  26
HETATM   26  C   UNL     1     -41.642  57.029 -52.518  1.00  0.00     0.084 C 
HETATM   27  C   UNL     1     -42.016  56.926 -51.017  1.00  0.00     0.025 C 
HETATM   28  C   UNL     1     -41.045  56.075 -50.187  1.00  0.00     0.002 C 
HETATM   29  C   UNL     1     -41.673  54.767 -49.689  1.00  0.00     0.000 C 
HETATM   30  C   UNL     1     -40.628  53.722 -49.265  1.00  0.00     0.000 C 
HETATM   31  C   UNL     1     -40.472  52.589 -50.291  1.00  0.00     0.000 C 
HETATM   32  C   UNL     1     -39.867  53.053 -51.617  1.00  0.00     0.000 C 
HETATM   33  C   UNL     1     -40.366  52.228 -52.802  1.00  0.00     0.000 C 
HETATM   34  C   UNL     1     -39.920  52.785 -54.159  1.00  0.00     0.000 C 
HETATM   35  C   UNL     1     -40.825  53.881 -54.748  1.00  0.00     0.000 C 
HETATM   36  C   UNL     1     -40.666  55.276 -54.127  1.00  0.00     0.002 C 
HETATM   37  C   UNL     1     -41.879  55.700 -53.278  1.00  0.00     0.025 C 
ENDBRANCH  23  26
ENDBRANCH   2  22
TORSDOF 4
ENDMDL
MODEL 9
REMARK VINA RESULT:      -8.4      2.337      4.039
REMARK  4 active torsions:
REMARK  status: ('A' for Active; 'I' for Inactive)
REMARK    1  A    between atoms: N_4  and  C_5 
REMARK    2  A    between atoms: C_15  and  N_16 
REMARK       I    between atoms: N_16  and  C_17 
REMARK    3  A    between atoms: C_17  and  C_18 
REMARK       I    between atoms: C_18  and  N_19 
REMARK    4  A    between atoms: N_19  and  C_20 
ROOT
HETATM    1  N   UNL     1     -45.027  57.902 -57.036  1.00  0.00    -0.303 N 
HETATM    2  C   UNL     1     -44.620  57.965 -55.715  1.00  0.00     0.315 C 
HETATM    3  O   UNL     1     -45.052  58.694 -54.830  1.00  0.00    -0.262 OA
HETATM    4  H   UNL     1     -44.823  57.035 -57.524  1.00  0.00     0.171 HD
ENDROOT
BRANCH   1   5
HETATM    5  C   UNL     1     -45.956  58.794 -57.539  1.00  0.00     0.152 C 
HETATM    6  N   UNL     1     -45.690  60.052 -58.077  1.00  0.00    -0.045 N 
HETATM    7  N   UNL     1     -46.853  60.767 -58.254  1.00  0.00    -0.156 NA
HETATM    8  C   UNL     1     -47.823  59.865 -58.068  1.00  0.00     0.055 C 
HETATM    9  C   UNL     1     -49.246  60.245 -58.250  1.00  0.00     0.072 C 
HETATM   10  C   UNL     1     -47.313  58.610 -57.670  1.00  0.00     0.079 C 
BRANCH   6  11
HETATM   11  C   UNL     1     -44.492  60.576 -58.618  1.00  0.00     0.732 A 
HETATM   12  N   UNL     1     -43.395  60.750 -57.943  1.00  0.00    -0.067 NA
HETATM   13  C   UNL     1     -42.348  61.228 -58.677  1.00  0.00     0.065 A 
HETATM   14  C   UNL     1     -42.361  61.485 -59.986  1.00  0.00     0.036 A 
HETATM   15  C   UNL     1     -41.008  61.504 -58.084  1.00  0.00     0.061 C 
HETATM   16  C   UNL     1     -41.062  61.965 -60.506  1.00  0.00     0.047 C 
HETATM   17  C   UNL     1     -43.589  61.256 -60.743  1.00  0.00     0.268 A 
HETATM   18  C   UNL     1     -40.304  62.277 -59.209  1.00  0.00     0.011 C 
HETATM   19  O   UNL     1     -43.663  61.436 -61.950  1.00  0.00    -0.267 OA
HETATM   20  N   UNL     1     -44.625  60.813 -59.971  1.00  0.00    -0.152 N 
HETATM   21  H   UNL     1     -45.511  60.592 -60.414  1.00  0.00     0.188 HD
ENDBRANCH   6  11
ENDBRANCH   1   5
BRANCH   2  22
HETATM   22  C   UNL     1     -43.551  56.908 -55.367  1.00  0.00     0.310 C 
HETATM   23  N   UNL     1     -44.077  55.796 -54.748  1.00  0.00    -0.348 N 
HETATM   24  H   UNL     1     -45.070  55.887 -54.536  1.00  0.00     0.163 HD
HETATM   25  O   UNL     1     -42.380  57.120 -55.640  1.00  0.00    -0.262 OA
BRANCH  23  26
HETATM   26  C   UNL     1     -43.293  54.807 -54.007  1.00  0.00     0.084 C 
HETATM   27  C   UNL     1     -42.379  54.070 -55.019  1.00  0.00     0.025 C 
HETATM   28  C   UNL     1     -41.782  52.761 -54.486  1.00  0.00     0.002 C 
HETATM   29  C   UNL     1     -40.265  52.838 -54.275  1.00  0.00     0.000 C 
HETATM   30  C   UNL     1     -39.730  51.740 -53.342  1.00  0.00     0.000 C 
HETATM   31  C   UNL     1     -39.376  52.270 -51.944  1.00  0.00     0.000 C 
HETATM   32  C   UNL     1     -40.596  52.733 -51.145  1.00  0.00     0.000 C 
HETATM   33  C   UNL     1     -40.259  53.866 -50.177  1.00  0.00     0.000 C 
HETATM   34  C   UNL     1     -41.495  54.470 -49.499  1.00  0.00     0.000 C 
HETATM   35  C   UNL     1     -42.204  55.578 -50.296  1.00  0.00     0.000 C 
HETATM   36  C   UNL     1     -43.083  55.099 -51.460  1.00  0.00     0.002 C 
HETATM   37  C   UNL     1     -42.493  55.441 -52.842  1.00  0.00     0.025 C 
ENDBRANCH  23  26
ENDBRANCH   2  22
TORSDOF 4
ENDMDL
MODEL 10
REMARK VINA RESULT:      -8.3      2.598      9.384
REMARK  4 active torsions:
REMARK  status: ('A' for Active; 'I' for Inactive)
REMARK    1  A    between atoms: N_4  and  C_5 
REMARK    2  A    between atoms: C_15  and  N_16 
REMARK       I    between atoms: N_16  and  C_17 
REMARK    3  A    between atoms: C_17  and  C_18 
REMARK       I    between atoms: C_18  and  N_19 
REMARK    4  A    between atoms: N_19  and  C_20 
ROOT
HETATM    1  N   UNL     1     -42.860  58.512 -54.544  1.00  0.00    -0.303 N 
HETATM    2  C   UNL     1     -43.527  58.266 -55.730  1.00  0.00     0.315 C 
HETATM    3  O   UNL     1     -44.712  57.996 -55.884  1.00  0.00    -0.262 OA
HETATM    4  H   UNL     1     -42.000  59.048 -54.618  1.00  0.00     0.171 HD
ENDROOT
BRANCH   1   5
HETATM    5  C   UNL     1     -43.495  58.361 -53.325  1.00  0.00     0.152 C 
HETATM    6  N   UNL     1     -43.571  57.193 -52.568  1.00  0.00    -0.045 N 
HETATM    7  N   UNL     1     -44.476  57.331 -51.541  1.00  0.00    -0.156 NA
HETATM    8  C   UNL     1     -44.752  58.639 -51.520  1.00  0.00     0.055 C 
HETATM    9  C   UNL     1     -45.651  59.201 -50.482  1.00  0.00     0.072 C 
HETATM   10  C   UNL     1     -44.126  59.332 -52.580  1.00  0.00     0.079 C 
BRANCH   6  11
HETATM   11  C   UNL     1     -42.751  56.040 -52.590  1.00  0.00     0.732 A 
HETATM   12  N   UNL     1     -42.183  55.561 -53.657  1.00  0.00    -0.067 NA
HETATM   13  C   UNL     1     -41.400  54.465 -53.438  1.00  0.00     0.065 A 
HETATM   14  C   UNL     1     -41.159  53.897 -52.255  1.00  0.00     0.036 A 
HETATM   15  C   UNL     1     -40.672  53.763 -54.534  1.00  0.00     0.061 C 
HETATM   16  C   UNL     1     -40.243  52.738 -52.333  1.00  0.00     0.047 C 
HETATM   17  C   UNL     1     -41.776  54.462 -51.057  1.00  0.00     0.268 A 
HETATM   18  C   UNL     1     -40.202  52.474 -53.844  1.00  0.00     0.011 C 
HETATM   19  O   UNL     1     -41.571  54.015 -49.938  1.00  0.00    -0.267 OA
HETATM   20  N   UNL     1     -42.581  55.534 -51.318  1.00  0.00    -0.152 N 
HETATM   21  H   UNL     1     -43.027  56.015 -50.543  1.00  0.00     0.188 HD
ENDBRANCH   6  11
ENDBRANCH   1   5
BRANCH   2  22
HETATM   22  C   UNL     1     -42.630  58.454 -56.972  1.00  0.00     0.310 C 
HETATM   23  N   UNL     1     -42.495  59.773 -57.343  1.00  0.00    -0.348 N 
HETATM   24  H   UNL     1     -43.081  60.404 -56.799  1.00  0.00     0.163 HD
HETATM   25  O   UNL     1     -42.134  57.477 -57.512  1.00  0.00    -0.262 OA
BRANCH  23  26
HETATM   26  C   UNL     1     -42.005  60.225 -58.646  1.00  0.00     0.084 C 
HETATM   27  C   UNL     1     -43.061  59.835 -59.712  1.00  0.00     0.025 C 
HETATM   28  C   UNL     1     -42.542  59.887 -61.155  1.00  0.00     0.002 C 
HETATM   29  C   UNL     1     -43.183  61.010 -61.980  1.00  0.00     0.000 C 
HETATM   30  C   UNL     1     -42.378  61.367 -63.240  1.00  0.00     0.000 C 
HETATM   31  C   UNL     1     -41.607  62.688 -63.097  1.00  0.00     0.000 C 
HETATM   32  C   UNL     1     -40.479  62.622 -62.065  1.00  0.00     0.000 C 
HETATM   33  C   UNL     1     -40.228  63.972 -61.396  1.00  0.00     0.000 C 
HETATM   34  C   UNL     1     -39.232  63.894 -60.232  1.00  0.00     0.000 C 
HETATM   35  C   UNL     1     -39.841  63.514 -58.872  1.00  0.00     0.000 C 
HETATM   36  C   UNL     1     -40.169  62.026 -58.684  1.00  0.00     0.002 C 
HETATM   37  C   UNL     1     -41.683  61.740 -58.662  1.00  0.00     0.025 C 
ENDBRANCH  23  26
ENDBRANCH   2  22
TORSDOF 4
ENDMDL
