MODEL 1
REMARK VINA RESULT:      -8.8      0.000      0.000
REMARK  6 active torsions:
REMARK  status: ('A' for Active; 'I' for Inactive)
REMARK    1  A    between atoms: C_9  and  C_10 
REMARK       I    between atoms: C_10  and  N_11 
REMARK    2  A    between atoms: N_11  and  N_12 
REMARK       I    between atoms: N_12  and  C_13 
REMARK    3  A    between atoms: C_13  and  C_14 
REMARK    4  A    between atoms: C_14  and  O_15 
REMARK    5  A    between atoms: O_15  and  C_16 
REMARK    6  A    between atoms: C_17  and  C_18 
ROOT
HETATM    1  N   UNL     1     -41.811  58.010 -53.000  1.00  0.00    -0.265 N 
HETATM    2  C   UNL     1     -40.873  58.361 -52.045  1.00  0.00     0.260 C 
HETATM    3  O   UNL     1     -39.964  59.166 -52.242  1.00  0.00    -0.269 OA
HETATM    4  H   UNL     1     -42.421  57.205 -52.882  1.00  0.00     0.190 HD
ENDROOT
BRANCH   1   5
HETATM    5  N   UNL     1     -41.663  58.510 -54.296  1.00  0.00    -0.262 N 
HETATM    6  C   UNL     1     -42.752  58.559 -55.152  1.00  0.00     0.291 C 
HETATM    7  O   UNL     1     -43.912  58.380 -54.784  1.00  0.00    -0.264 OA
HETATM    8  H   UNL     1     -40.741  58.454 -54.730  1.00  0.00     0.190 HD
BRANCH   6   9
HETATM    9  C   UNL     1     -42.363  58.857 -56.539  1.00  0.00     0.158 A 
HETATM   10  C   UNL     1     -42.609  58.079 -57.710  1.00  0.00     0.029 A 
HETATM   11  C   UNL     1     -43.228  56.847 -58.004  1.00  0.00     0.023 A 
HETATM   12  C   UNL     1     -42.058  58.814 -58.753  1.00  0.00     0.063 A 
HETATM   13  C   UNL     1     -43.280  56.398 -59.336  1.00  0.00    -0.061 A 
HETATM   14  C   UNL     1     -43.906  55.075 -59.672  1.00  0.00     0.048 C 
HETATM   15  C   UNL     1     -42.712  57.173 -60.356  1.00  0.00     0.009 A 
HETATM   16  C   UNL     1     -42.092  58.397 -60.086  1.00  0.00     0.032 A 
HETATM   17  N   UNL     1     -41.529  59.930 -58.171  1.00  0.00    -0.277 N 
HETATM   18  H   UNL     1     -41.045  60.693 -58.632  1.00  0.00     0.189 HD
HETATM   19  N   UNL     1     -41.688  59.991 -56.839  1.00  0.00    -0.168 NA
ENDBRANCH   6   9
ENDBRANCH   1   5
BRANCH   2  20
HETATM   20  C   UNL     1     -41.082  57.662 -50.704  1.00  0.00     0.280 C 
BRANCH  20  21
HETATM   21  O   UNL     1     -41.895  56.505 -50.808  1.00  0.00    -0.341 OA
BRANCH  21  22
HETATM   22  C   UNL     1     -41.411  55.302 -50.354  1.00  0.00     0.080 A 
HETATM   23  C   UNL     1     -41.234  54.290 -51.328  1.00  0.00     0.007 A 
HETATM   24  C   UNL     1     -40.724  53.042 -50.916  1.00  0.00     0.015 A 
HETATM   25  C   UNL     1     -40.403  52.792 -49.583  1.00  0.00     0.001 A 
HETATM   26  C   UNL     1     -40.593  53.787 -48.634  1.00  0.00     0.003 A 
HETATM   27  C   UNL     1     -41.093  55.035 -49.016  1.00  0.00     0.037 A 
BRANCH  23  28
HETATM   28  C   UNL     1     -41.580  54.481 -52.751  1.00  0.00    -0.023 A 
HETATM   29  C   UNL     1     -40.587  54.663 -53.727  1.00  0.00     0.012 A 
HETATM   30  C   UNL     1     -40.924  54.823 -55.074  1.00  0.00     0.001 A 
HETATM   31  C   UNL     1     -42.259  54.798 -55.468  1.00  0.00     0.000 A 
HETATM   32  C   UNL     1     -43.260  54.616 -54.516  1.00  0.00     0.001 A 
HETATM   33  C   UNL     1     -42.922  54.459 -53.171  1.00  0.00     0.012 A 
ENDBRANCH  23  28
ENDBRANCH  21  22
ENDBRANCH  20  21
ENDBRANCH   2  20
TORSDOF 6
ENDMDL
MODEL 2
REMARK VINA RESULT:      -8.6      3.158      4.167
REMARK  6 active torsions:
REMARK  status: ('A' for Active; 'I' for Inactive)
REMARK    1  A    between atoms: C_9  and  C_10 
REMARK       I    between atoms: C_10  and  N_11 
REMARK    2  A    between atoms: N_11  and  N_12 
REMARK       I    between atoms: N_12  and  C_13 
REMARK    3  A    between atoms: C_13  and  C_14 
REMARK    4  A    between atoms: C_14  and  O_15 
REMARK    5  A    between atoms: O_15  and  C_16 
REMARK    6  A    between atoms: C_17  and  C_18 
ROOT
HETATM    1  N   UNL     1     -41.854  55.948 -56.231  1.00  0.00    -0.265 N 
HETATM    2  C   UNL     1     -42.419  56.664 -55.190  1.00  0.00     0.260 C 
HETATM    3  O   UNL     1     -43.623  56.893 -55.091  1.00  0.00    -0.269 OA
HETATM    4  H   UNL     1     -40.851  55.944 -56.396  1.00  0.00     0.190 HD
ENDROOT
BRANCH   1   5
HETATM    5  N   UNL     1     -42.675  55.550 -57.289  1.00  0.00    -0.262 N 
HETATM    6  C   UNL     1     -42.897  56.404 -58.357  1.00  0.00     0.291 C 
HETATM    7  O   UNL     1     -42.250  57.432 -58.549  1.00  0.00    -0.264 OA
HETATM    8  H   UNL     1     -43.397  54.854 -57.099  1.00  0.00     0.190 HD
BRANCH   6   9
HETATM    9  C   UNL     1     -43.982  55.936 -59.233  1.00  0.00     0.158 A 
HETATM   10  C   UNL     1     -45.120  56.664 -59.693  1.00  0.00     0.029 A 
HETATM   11  C   UNL     1     -45.640  57.963 -59.516  1.00  0.00     0.023 A 
HETATM   12  C   UNL     1     -45.814  55.774 -60.505  1.00  0.00     0.063 A 
HETATM   13  C   UNL     1     -46.833  58.327 -60.166  1.00  0.00    -0.061 A 
HETATM   14  C   UNL     1     -47.423  59.694 -59.969  1.00  0.00     0.048 C 
HETATM   15  C   UNL     1     -47.498  57.397 -60.975  1.00  0.00     0.009 A 
HETATM   16  C   UNL     1     -47.001  56.103 -61.164  1.00  0.00     0.032 A 
HETATM   17  N   UNL     1     -45.091  54.616 -60.475  1.00  0.00    -0.277 N 
HETATM   18  H   UNL     1     -45.301  53.748 -60.955  1.00  0.00     0.189 HD
HETATM   19  N   UNL     1     -43.983  54.672 -59.717  1.00  0.00    -0.168 NA
ENDBRANCH   6   9
ENDBRANCH   1   5
BRANCH   2  20
HETATM   20  C   UNL     1     -41.400  57.136 -54.155  1.00  0.00     0.280 C 
BRANCH  20  21
HETATM   21  O   UNL     1     -41.116  56.151 -53.176  1.00  0.00    -0.341 OA
BRANCH  21  22
HETATM   22  C   UNL     1     -42.098  55.784 -52.288  1.00  0.00     0.080 A 
HETATM   23  C   UNL     1     -42.158  54.411 -51.951  1.00  0.00     0.007 A 
HETATM   24  C   UNL     1     -43.138  53.985 -51.031  1.00  0.00     0.015 A 
HETATM   25  C   UNL     1     -44.041  54.883 -50.464  1.00  0.00     0.001 A 
HETATM   26  C   UNL     1     -43.982  56.225 -50.812  1.00  0.00     0.003 A 
HETATM   27  C   UNL     1     -43.018  56.675 -51.718  1.00  0.00     0.037 A 
BRANCH  23  28
HETATM   28  C   UNL     1     -41.249  53.404 -52.536  1.00  0.00    -0.023 A 
HETATM   29  C   UNL     1     -40.264  52.770 -51.763  1.00  0.00     0.012 A 
HETATM   30  C   UNL     1     -39.423  51.804 -52.322  1.00  0.00     0.001 A 
HETATM   31  C   UNL     1     -39.555  51.452 -53.662  1.00  0.00     0.000 A 
HETATM   32  C   UNL     1     -40.527  52.068 -54.447  1.00  0.00     0.001 A 
HETATM   33  C   UNL     1     -41.365  53.035 -53.888  1.00  0.00     0.012 A 
ENDBRANCH  23  28
ENDBRANCH  21  22
ENDBRANCH  20  21
ENDBRANCH   2  20
TORSDOF 6
ENDMDL
MODEL 3
REMARK VINA RESULT:      -8.4      2.410      8.033
REMARK  6 active torsions:
REMARK  status: ('A' for Active; 'I' for Inactive)
REMARK    1  A    between atoms: C_9  and  C_10 
REMARK       I    between atoms: C_10  and  N_11 
REMARK    2  A    between atoms: N_11  and  N_12 
REMARK       I    between atoms: N_12  and  C_13 
REMARK    3  A    between atoms: C_13  and  C_14 
REMARK    4  A    between atoms: C_14  and  O_15 
REMARK    5  A    between atoms: O_15  and  C_16 
REMARK    6  A    between atoms: C_17  and  C_18 
ROOT
HETATM    1  N   UNL     1     -41.914  57.769 -54.995  1.00  0.00    -0.265 N 
HETATM    2  C   UNL     1     -41.682  59.118 -54.788  1.00  0.00     0.260 C 
HETATM    3  O   UNL     1     -40.925  59.556 -53.923  1.00  0.00    -0.269 OA
HETATM    4  H   UNL     1     -42.684  57.440 -55.571  1.00  0.00     0.190 HD
ENDROOT
BRANCH   1   5
HETATM    5  N   UNL     1     -41.344  56.850 -54.110  1.00  0.00    -0.262 N 
HETATM    6  C   UNL     1     -41.498  55.490 -54.325  1.00  0.00     0.291 C 
HETATM    7  O   UNL     1     -41.935  55.014 -55.372  1.00  0.00    -0.264 OA
HETATM    8  H   UNL     1     -41.185  57.148 -53.147  1.00  0.00     0.190 HD
BRANCH   6   9
HETATM    9  C   UNL     1     -41.070  54.687 -53.168  1.00  0.00     0.158 A 
HETATM   10  C   UNL     1     -40.596  53.341 -53.157  1.00  0.00     0.029 A 
HETATM   11  C   UNL     1     -40.381  52.328 -54.113  1.00  0.00     0.023 A 
HETATM   12  C   UNL     1     -40.308  53.072 -51.824  1.00  0.00     0.063 A 
HETATM   13  C   UNL     1     -39.876  51.081 -53.700  1.00  0.00    -0.061 A 
HETATM   14  C   UNL     1     -39.667  49.975 -54.694  1.00  0.00     0.048 C 
HETATM   15  C   UNL     1     -39.599  50.855 -52.346  1.00  0.00     0.009 A 
HETATM   16  C   UNL     1     -39.807  51.846 -51.380  1.00  0.00     0.032 A 
HETATM   17  N   UNL     1     -40.623  54.215 -51.146  1.00  0.00    -0.277 N 
HETATM   18  H   UNL     1     -40.541  54.381 -50.150  1.00  0.00     0.189 HD
HETATM   19  N   UNL     1     -41.090  55.209 -51.920  1.00  0.00    -0.168 NA
ENDBRANCH   6   9
ENDBRANCH   1   5
BRANCH   2  20
HETATM   20  C   UNL     1     -42.448  60.020 -55.751  1.00  0.00     0.280 C 
BRANCH  20  21
HETATM   21  O   UNL     1     -42.492  59.503 -57.071  1.00  0.00    -0.341 OA
BRANCH  21  22
HETATM   22  C   UNL     1     -42.031  60.276 -58.109  1.00  0.00     0.080 A 
HETATM   23  C   UNL     1     -42.222  59.755 -59.411  1.00  0.00     0.007 A 
HETATM   24  C   UNL     1     -41.782  60.517 -60.513  1.00  0.00     0.015 A 
HETATM   25  C   UNL     1     -41.163  61.754 -60.339  1.00  0.00     0.001 A 
HETATM   26  C   UNL     1     -40.969  62.250 -59.057  1.00  0.00     0.003 A 
HETATM   27  C   UNL     1     -41.400  61.517 -57.948  1.00  0.00     0.037 A 
BRANCH  23  28
HETATM   28  C   UNL     1     -42.846  58.440 -59.662  1.00  0.00    -0.023 A 
HETATM   29  C   UNL     1     -42.080  57.265 -59.718  1.00  0.00     0.012 A 
HETATM   30  C   UNL     1     -42.683  56.023 -59.936  1.00  0.00     0.001 A 
HETATM   31  C   UNL     1     -44.063  55.935 -60.097  1.00  0.00     0.000 A 
HETATM   32  C   UNL     1     -44.842  57.088 -60.042  1.00  0.00     0.001 A 
HETATM   33  C   UNL     1     -44.238  58.329 -59.827  1.00  0.00     0.012 A 
ENDBRANCH  23  28
ENDBRANCH  21  22
ENDBRANCH  20  21
ENDBRANCH   2  20
TORSDOF 6
ENDMDL
MODEL 4
REMARK VINA RESULT:      -8.2      2.562      3.817
REMARK  6 active torsions:
REMARK  status: ('A' for Active; 'I' for Inactive)
REMARK    1  A    between atoms: C_9  and  C_10 
REMARK       I    between atoms: C_10  and  N_11 
REMARK    2  A    between atoms: N_11  and  N_12 
REMARK       I    between atoms: N_12  and  C_13 
REMARK    3  A    between atoms: C_13  and  C_14 
REMARK    4  A    between atoms: C_14  and  O_15 
REMARK    5  A    between atoms: O_15  and  C_16 
REMARK    6  A    between atoms: C_17  and  C_18 
ROOT
HETATM    1  N   UNL     1     -43.641  55.680 -55.471  1.00  0.00    -0.265 N 
HETATM    2  C   UNL     1     -42.677  55.140 -54.638  1.00  0.00     0.260 C 
HETATM    3  O   UNL     1     -41.477  55.110 -54.911  1.00  0.00    -0.269 OA
HETATM    4  H   UNL     1     -44.633  55.515 -55.320  1.00  0.00     0.190 HD
ENDROOT
BRANCH   1   5
HETATM    5  N   UNL     1     -43.256  56.122 -56.739  1.00  0.00    -0.262 N 
HETATM    6  C   UNL     1     -42.821  57.425 -56.920  1.00  0.00     0.291 C 
HETATM    7  O   UNL     1     -42.547  58.183 -55.991  1.00  0.00    -0.264 OA
HETATM    8  H   UNL     1     -43.662  55.656 -57.553  1.00  0.00     0.190 HD
BRANCH   6   9
HETATM    9  C   UNL     1     -42.716  57.790 -58.342  1.00  0.00     0.158 A 
HETATM   10  C   UNL     1     -42.252  59.016 -58.905  1.00  0.00     0.029 A 
HETATM   11  C   UNL     1     -41.778  60.250 -58.413  1.00  0.00     0.023 A 
HETATM   12  C   UNL     1     -42.334  58.835 -60.281  1.00  0.00     0.063 A 
HETATM   13  C   UNL     1     -41.394  61.255 -59.318  1.00  0.00    -0.061 A 
HETATM   14  C   UNL     1     -40.914  62.588 -58.820  1.00  0.00     0.048 C 
HETATM   15  C   UNL     1     -41.493  61.028 -60.697  1.00  0.00     0.009 A 
HETATM   16  C   UNL     1     -41.961  59.813 -61.207  1.00  0.00     0.032 A 
HETATM   17  N   UNL     1     -42.830  57.574 -60.452  1.00  0.00    -0.277 N 
HETATM   18  H   UNL     1     -43.022  57.103 -61.329  1.00  0.00     0.189 HD
HETATM   19  N   UNL     1     -43.077  56.914 -59.308  1.00  0.00    -0.168 NA
ENDBRANCH   6   9
ENDBRANCH   1   5
BRANCH   2  20
HETATM   20  C   UNL     1     -43.241  54.594 -53.330  1.00  0.00     0.280 C 
BRANCH  20  21
HETATM   21  O   UNL     1     -42.404  53.615 -52.737  1.00  0.00    -0.341 OA
BRANCH  21  22
HETATM   22  C   UNL     1     -41.608  53.969 -51.674  1.00  0.00     0.080 A 
HETATM   23  C   UNL     1     -40.455  53.176 -51.465  1.00  0.00     0.007 A 
HETATM   24  C   UNL     1     -39.595  53.508 -50.397  1.00  0.00     0.015 A 
HETATM   25  C   UNL     1     -39.866  54.584 -49.553  1.00  0.00     0.001 A 
HETATM   26  C   UNL     1     -41.007  55.346 -49.760  1.00  0.00     0.003 A 
HETATM   27  C   UNL     1     -41.874  55.043 -50.813  1.00  0.00     0.037 A 
BRANCH  23  28
HETATM   28  C   UNL     1     -40.124  52.007 -52.305  1.00  0.00    -0.023 A 
HETATM   29  C   UNL     1     -39.773  50.773 -51.736  1.00  0.00     0.012 A 
HETATM   30  C   UNL     1     -39.482  49.668 -52.541  1.00  0.00     0.001 A 
HETATM   31  C   UNL     1     -39.542  49.777 -53.928  1.00  0.00     0.000 A 
HETATM   32  C   UNL     1     -39.890  50.993 -54.512  1.00  0.00     0.001 A 
HETATM   33  C   UNL     1     -40.178  52.096 -53.707  1.00  0.00     0.012 A 
ENDBRANCH  23  28
ENDBRANCH  21  22
ENDBRANCH  20  21
ENDBRANCH   2  20
TORSDOF 6
ENDMDL
MODEL 5
REMARK VINA RESULT:      -8.2      2.585      8.119
REMARK  6 active torsions:
REMARK  status: ('A' for Active; 'I' for Inactive)
REMARK    1  A    between atoms: C_9  and  C_10 
REMARK       I    between atoms: C_10  and  N_11 
REMARK    2  A    between atoms: N_11  and  N_12 
REMARK       I    between atoms: N_12  and  C_13 
REMARK    3  A    between atoms: C_13  and  C_14 
REMARK    4  A    between atoms: C_14  and  O_15 
REMARK    5  A    between atoms: O_15  and  C_16 
REMARK    6  A    between atoms: C_17  and  C_18 
ROOT
HETATM    1  N   UNL     1     -42.483  57.076 -53.990  1.00  0.00    -0.265 N 
HETATM    2  C   UNL     1     -43.665  56.717 -54.613  1.00  0.00     0.260 C 
HETATM    3  O   UNL     1     -44.304  55.703 -54.333  1.00  0.00    -0.269 OA
HETATM    4  H   UNL     1     -41.876  57.798 -54.369  1.00  0.00     0.190 HD
ENDROOT
BRANCH   1   5
HETATM    5  N   UNL     1     -41.919  56.192 -53.067  1.00  0.00    -0.262 N 
HETATM    6  C   UNL     1     -40.918  55.319 -53.461  1.00  0.00     0.291 C 
HETATM    7  O   UNL     1     -40.330  55.403 -54.538  1.00  0.00    -0.264 OA
HETATM    8  H   UNL     1     -42.486  55.910 -52.266  1.00  0.00     0.190 HD
BRANCH   6   9
HETATM    9  C   UNL     1     -40.636  54.294 -52.443  1.00  0.00     0.158 A 
HETATM   10  C   UNL     1     -40.303  52.921 -52.645  1.00  0.00     0.029 A 
HETATM   11  C   UNL     1     -40.143  52.062 -53.752  1.00  0.00     0.023 A 
HETATM   12  C   UNL     1     -40.115  52.404 -51.368  1.00  0.00     0.063 A 
HETATM   13  C   UNL     1     -39.791  50.716 -53.539  1.00  0.00    -0.061 A 
HETATM   14  C   UNL     1     -39.645  49.774 -54.699  1.00  0.00     0.048 C 
HETATM   15  C   UNL     1     -39.610  50.240 -52.235  1.00  0.00     0.009 A 
HETATM   16  C   UNL     1     -39.765  51.074 -51.123  1.00  0.00     0.032 A 
HETATM   17  N   UNL     1     -40.346  53.447 -50.517  1.00  0.00    -0.277 N 
HETATM   18  H   UNL     1     -40.299  53.435 -49.505  1.00  0.00     0.189 HD
HETATM   19  N   UNL     1     -40.667  54.601 -51.126  1.00  0.00    -0.168 NA
ENDBRANCH   6   9
ENDBRANCH   1   5
BRANCH   2  20
HETATM   20  C   UNL     1     -44.117  57.711 -55.678  1.00  0.00     0.280 C 
BRANCH  20  21
HETATM   21  O   UNL     1     -43.616  57.401 -56.968  1.00  0.00    -0.341 OA
BRANCH  21  22
HETATM   22  C   UNL     1     -43.043  58.396 -57.722  1.00  0.00     0.080 A 
HETATM   23  C   UNL     1     -43.445  58.466 -59.077  1.00  0.00     0.007 A 
HETATM   24  C   UNL     1     -42.899  59.481 -59.890  1.00  0.00     0.015 A 
HETATM   25  C   UNL     1     -41.977  60.397 -59.387  1.00  0.00     0.001 A 
HETATM   26  C   UNL     1     -41.580  60.311 -58.060  1.00  0.00     0.003 A 
HETATM   27  C   UNL     1     -42.108  59.319 -57.231  1.00  0.00     0.037 A 
BRANCH  23  28
HETATM   28  C   UNL     1     -44.397  57.510 -59.678  1.00  0.00    -0.023 A 
HETATM   29  C   UNL     1     -43.958  56.325 -60.289  1.00  0.00     0.012 A 
HETATM   30  C   UNL     1     -44.869  55.418 -60.837  1.00  0.00     0.001 A 
HETATM   31  C   UNL     1     -46.235  55.678 -60.779  1.00  0.00     0.000 A 
HETATM   32  C   UNL     1     -46.693  56.848 -60.176  1.00  0.00     0.001 A 
HETATM   33  C   UNL     1     -45.781  57.754 -59.632  1.00  0.00     0.012 A 
ENDBRANCH  23  28
ENDBRANCH  21  22
ENDBRANCH  20  21
ENDBRANCH   2  20
TORSDOF 6
ENDMDL
MODEL 6
REMARK VINA RESULT:      -7.9      1.965      2.956
REMARK  6 active torsions:
REMARK  status: ('A' for Active; 'I' for Inactive)
REMARK    1  A    between atoms: C_9  and  C_10 
REMARK       I    between atoms: C_10  and  N_11 
REMARK    2  A    between atoms: N_11  and  N_12 
REMARK       I    between atoms: N_12  and  C_13 
REMARK    3  A    between atoms: C_13  and  C_14 
REMARK    4  A    between atoms: C_14  and  O_15 
REMARK    5  A    between atoms: O_15  and  C_16 
REMARK    6  A    between atoms: C_17  and  C_18 
ROOT
HETATM    1  N   UNL     1     -42.456  56.439 -54.198  1.00  0.00    -0.265 N 
HETATM    2  C   UNL     1     -42.970  55.166 -54.371  1.00  0.00     0.260 C 
HETATM    3  O   UNL     1     -43.044  54.601 -55.461  1.00  0.00    -0.269 OA
HETATM    4  H   UNL     1     -42.588  56.957 -53.333  1.00  0.00     0.190 HD
ENDROOT
BRANCH   1   5
HETATM    5  N   UNL     1     -42.098  57.174 -55.331  1.00  0.00    -0.262 N 
HETATM    6  C   UNL     1     -42.294  58.546 -55.361  1.00  0.00     0.291 C 
HETATM    7  O   UNL     1     -42.578  59.213 -54.368  1.00  0.00    -0.264 OA
HETATM    8  H   UNL     1     -42.085  56.692 -56.230  1.00  0.00     0.190 HD
BRANCH   6   9
HETATM    9  C   UNL     1     -42.114  59.108 -56.709  1.00  0.00     0.158 A 
HETATM   10  C   UNL     1     -42.496  58.536 -57.960  1.00  0.00     0.029 A 
HETATM   11  C   UNL     1     -43.108  57.341 -58.391  1.00  0.00     0.023 A 
HETATM   12  C   UNL     1     -42.123  59.476 -58.915  1.00  0.00     0.063 A 
HETATM   13  C   UNL     1     -43.332  57.134 -59.764  1.00  0.00    -0.061 A 
HETATM   14  C   UNL     1     -43.953  55.857 -60.251  1.00  0.00     0.048 C 
HETATM   15  C   UNL     1     -42.940  58.109 -60.690  1.00  0.00     0.009 A 
HETATM   16  C   UNL     1     -42.331  59.301 -60.285  1.00  0.00     0.032 A 
HETATM   17  N   UNL     1     -41.557  60.501 -58.212  1.00  0.00    -0.277 N 
HETATM   18  H   UNL     1     -41.169  61.360 -58.585  1.00  0.00     0.189 HD
HETATM   19  N   UNL     1     -41.528  60.315 -56.882  1.00  0.00    -0.168 NA
ENDBRANCH   6   9
ENDBRANCH   1   5
BRANCH   2  20
HETATM   20  C   UNL     1     -43.426  54.514 -53.069  1.00  0.00     0.280 C 
BRANCH  20  21
HETATM   21  O   UNL     1     -42.490  53.573 -52.568  1.00  0.00    -0.341 OA
BRANCH  21  22
HETATM   22  C   UNL     1     -41.658  53.939 -51.537  1.00  0.00     0.080 A 
HETATM   23  C   UNL     1     -40.486  53.163 -51.374  1.00  0.00     0.007 A 
HETATM   24  C   UNL     1     -39.590  53.508 -50.340  1.00  0.00     0.015 A 
HETATM   25  C   UNL     1     -39.844  54.579 -49.486  1.00  0.00     0.001 A 
HETATM   26  C   UNL     1     -41.004  55.324 -49.647  1.00  0.00     0.003 A 
HETATM   27  C   UNL     1     -41.906  55.008 -50.666  1.00  0.00     0.037 A 
BRANCH  23  28
HETATM   28  C   UNL     1     -40.171  52.000 -52.227  1.00  0.00    -0.023 A 
HETATM   29  C   UNL     1     -40.180  52.096 -53.628  1.00  0.00     0.012 A 
HETATM   30  C   UNL     1     -39.861  50.993 -54.426  1.00  0.00     0.001 A 
HETATM   31  C   UNL     1     -39.522  49.778 -53.836  1.00  0.00     0.000 A 
HETATM   32  C   UNL     1     -39.504  49.662 -52.448  1.00  0.00     0.001 A 
HETATM   33  C   UNL     1     -39.826  50.764 -51.653  1.00  0.00     0.012 A 
ENDBRANCH  23  28
ENDBRANCH  21  22
ENDBRANCH  20  21
ENDBRANCH   2  20
TORSDOF 6
ENDMDL
MODEL 7
REMARK VINA RESULT:      -7.9      3.154      4.866
REMARK  6 active torsions:
REMARK  status: ('A' for Active; 'I' for Inactive)
REMARK    1  A    between atoms: C_9  and  C_10 
REMARK       I    between atoms: C_10  and  N_11 
REMARK    2  A    between atoms: N_11  and  N_12 
REMARK       I    between atoms: N_12  and  C_13 
REMARK    3  A    between atoms: C_13  and  C_14 
REMARK    4  A    between atoms: C_14  and  O_15 
REMARK    5  A    between atoms: O_15  and  C_16 
REMARK    6  A    between atoms: C_17  and  C_18 
ROOT
HETATM    1  N   UNL     1     -42.189  55.696 -56.814  1.00  0.00    -0.265 N 
HETATM    2  C   UNL     1     -42.379  54.702 -55.871  1.00  0.00     0.260 C 
HETATM    3  O   UNL     1     -43.475  54.210 -55.607  1.00  0.00    -0.269 OA
HETATM    4  H   UNL     1     -41.321  56.222 -56.872  1.00  0.00     0.190 HD
ENDROOT
BRANCH   1   5
HETATM    5  N   UNL     1     -43.312  56.254 -57.431  1.00  0.00    -0.262 N 
HETATM    6  C   UNL     1     -43.398  56.298 -58.813  1.00  0.00     0.291 C 
HETATM    7  O   UNL     1     -42.636  55.685 -59.559  1.00  0.00    -0.264 OA
HETATM    8  H   UNL     1     -43.841  56.959 -56.916  1.00  0.00     0.190 HD
BRANCH   6   9
HETATM    9  C   UNL     1     -44.504  57.148 -59.280  1.00  0.00     0.158 A 
HETATM   10  C   UNL     1     -44.432  58.326 -60.082  1.00  0.00     0.029 A 
HETATM   11  C   UNL     1     -43.409  59.095 -60.676  1.00  0.00     0.023 A 
HETATM   12  C   UNL     1     -45.752  58.727 -60.254  1.00  0.00     0.063 A 
HETATM   13  C   UNL     1     -43.748  60.234 -61.428  1.00  0.00    -0.061 A 
HETATM   14  C   UNL     1     -42.676  61.086 -62.045  1.00  0.00     0.048 C 
HETATM   15  C   UNL     1     -45.092  60.599 -61.576  1.00  0.00     0.009 A 
HETATM   16  C   UNL     1     -46.121  59.852 -60.994  1.00  0.00     0.032 A 
HETATM   17  N   UNL     1     -46.500  57.814 -59.567  1.00  0.00    -0.277 N 
HETATM   18  H   UNL     1     -47.510  57.794 -59.473  1.00  0.00     0.189 HD
HETATM   19  N   UNL     1     -45.786  56.850 -58.964  1.00  0.00    -0.168 NA
ENDBRANCH   6   9
ENDBRANCH   1   5
BRANCH   2  20
HETATM   20  C   UNL     1     -41.087  54.255 -55.192  1.00  0.00     0.280 C 
BRANCH  20  21
HETATM   21  O   UNL     1     -41.310  53.660 -53.924  1.00  0.00    -0.341 OA
BRANCH  21  22
HETATM   22  C   UNL     1     -40.695  52.468 -53.626  1.00  0.00     0.080 A 
HETATM   23  C   UNL     1     -40.388  52.245 -52.263  1.00  0.00     0.007 A 
HETATM   24  C   UNL     1     -39.772  51.029 -51.901  1.00  0.00     0.015 A 
HETATM   25  C   UNL     1     -39.459  50.062 -52.855  1.00  0.00     0.001 A 
HETATM   26  C   UNL     1     -39.752  50.297 -54.191  1.00  0.00     0.003 A 
HETATM   27  C   UNL     1     -40.367  51.491 -54.576  1.00  0.00     0.037 A 
BRANCH  23  28
HETATM   28  C   UNL     1     -40.669  53.239 -51.207  1.00  0.00    -0.023 A 
HETATM   29  C   UNL     1     -41.960  53.756 -51.013  1.00  0.00     0.012 A 
HETATM   30  C   UNL     1     -42.219  54.681 -49.998  1.00  0.00     0.001 A 
HETATM   31  C   UNL     1     -41.192  55.101 -49.156  1.00  0.00     0.000 A 
HETATM   32  C   UNL     1     -39.905  54.600 -49.330  1.00  0.00     0.001 A 
HETATM   33  C   UNL     1     -39.647  53.677 -50.347  1.00  0.00     0.012 A 
ENDBRANCH  23  28
ENDBRANCH  21  22
ENDBRANCH  20  21
ENDBRANCH   2  20
TORSDOF 6
ENDMDL
MODEL 8
REMARK VINA RESULT:      -7.8      4.861      7.667
REMARK  6 active torsions:
REMARK  status: ('A' for Active; 'I' for Inactive)
REMARK    1  A    between atoms: C_9  and  C_10 
REMARK       I    between atoms: C_10  and  N_11 
REMARK    2  A    between atoms: N_11  and  N_12 
REMARK       I    between atoms: N_12  and  C_13 
REMARK    3  A    between atoms: C_13  and  C_14 
REMARK    4  A    between atoms: C_14  and  O_15 
REMARK    5  A    between atoms: O_15  and  C_16 
REMARK    6  A    between atoms: C_17  and  C_18 
ROOT
HETATM    1  N   UNL     1     -43.266  59.113 -50.750  1.00  0.00    -0.265 N 
HETATM    2  C   UNL     1     -41.889  59.036 -50.636  1.00  0.00     0.260 C 
HETATM    3  O   UNL     1     -41.212  59.831 -49.986  1.00  0.00    -0.269 OA
HETATM    4  H   UNL     1     -43.777  58.575 -51.445  1.00  0.00     0.190 HD
ENDROOT
BRANCH   1   5
HETATM    5  N   UNL     1     -43.923  60.210 -50.187  1.00  0.00    -0.262 N 
HETATM    6  C   UNL     1     -45.274  60.135 -49.890  1.00  0.00     0.291 C 
HETATM    7  O   UNL     1     -45.912  59.084 -49.895  1.00  0.00    -0.264 OA
HETATM    8  H   UNL     1     -43.543  61.140 -50.367  1.00  0.00     0.190 HD
BRANCH   6   9
HETATM    9  C   UNL     1     -45.850  61.449 -49.561  1.00  0.00     0.158 A 
HETATM   10  C   UNL     1     -45.776  62.157 -48.324  1.00  0.00     0.029 A 
HETATM   11  C   UNL     1     -45.216  61.930 -47.050  1.00  0.00     0.023 A 
HETATM   12  C   UNL     1     -46.459  63.347 -48.549  1.00  0.00     0.063 A 
HETATM   13  C   UNL     1     -45.354  62.908 -46.048  1.00  0.00    -0.061 A 
HETATM   14  C   UNL     1     -44.793  62.677 -44.674  1.00  0.00     0.048 C 
HETATM   15  C   UNL     1     -46.049  64.093 -46.321  1.00  0.00     0.009 A 
HETATM   16  C   UNL     1     -46.613  64.338 -47.577  1.00  0.00     0.032 A 
HETATM   17  N   UNL     1     -46.890  63.278 -49.843  1.00  0.00    -0.277 N 
HETATM   18  H   UNL     1     -47.426  63.974 -50.349  1.00  0.00     0.189 HD
HETATM   19  N   UNL     1     -46.548  62.149 -50.484  1.00  0.00    -0.168 NA
ENDBRANCH   6   9
ENDBRANCH   1   5
BRANCH   2  20
HETATM   20  C   UNL     1     -41.283  57.854 -51.386  1.00  0.00     0.280 C 
BRANCH  20  21
HETATM   21  O   UNL     1     -42.066  56.677 -51.282  1.00  0.00    -0.341 OA
BRANCH  21  22
HETATM   22  C   UNL     1     -41.521  55.558 -50.699  1.00  0.00     0.080 A 
HETATM   23  C   UNL     1     -41.262  54.466 -51.561  1.00  0.00     0.007 A 
HETATM   24  C   UNL     1     -40.686  53.300 -51.016  1.00  0.00     0.015 A 
HETATM   25  C   UNL     1     -40.382  53.206 -49.659  1.00  0.00     0.001 A 
HETATM   26  C   UNL     1     -40.653  54.278 -48.820  1.00  0.00     0.003 A 
HETATM   27  C   UNL     1     -41.218  55.447 -49.335  1.00  0.00     0.037 A 
BRANCH  23  28
HETATM   28  C   UNL     1     -41.585  54.491 -53.002  1.00  0.00    -0.023 A 
HETATM   29  C   UNL     1     -42.894  54.280 -53.462  1.00  0.00     0.012 A 
HETATM   30  C   UNL     1     -43.192  54.326 -54.827  1.00  0.00     0.001 A 
HETATM   31  C   UNL     1     -42.187  54.587 -55.754  1.00  0.00     0.000 A 
HETATM   32  C   UNL     1     -40.881  54.801 -55.319  1.00  0.00     0.001 A 
HETATM   33  C   UNL     1     -40.584  54.753 -53.955  1.00  0.00     0.012 A 
ENDBRANCH  23  28
ENDBRANCH  21  22
ENDBRANCH  20  21
ENDBRANCH   2  20
TORSDOF 6
ENDMDL
MODEL 9
REMARK VINA RESULT:      -7.8      3.007      8.042
REMARK  6 active torsions:
REMARK  status: ('A' for Active; 'I' for Inactive)
REMARK    1  A    between atoms: C_9  and  C_10 
REMARK       I    between atoms: C_10  and  N_11 
REMARK    2  A    between atoms: N_11  and  N_12 
REMARK       I    between atoms: N_12  and  C_13 
REMARK    3  A    between atoms: C_13  and  C_14 
REMARK    4  A    between atoms: C_14  and  O_15 
REMARK    5  A    between atoms: O_15  and  C_16 
REMARK    6  A    between atoms: C_17  and  C_18 
ROOT
HETATM    1  N   UNL     1     -41.505  55.589 -55.598  1.00  0.00    -0.265 N 
HETATM    2  C   UNL     1     -42.529  55.348 -56.497  1.00  0.00     0.260 C 
HETATM    3  O   UNL     1     -43.380  54.472 -56.346  1.00  0.00    -0.269 OA
HETATM    4  H   UNL     1     -40.708  56.173 -55.838  1.00  0.00     0.190 HD
ENDROOT
BRANCH   1   5
HETATM    5  N   UNL     1     -41.357  54.727 -54.509  1.00  0.00    -0.262 N 
HETATM    6  C   UNL     1     -41.131  55.240 -53.241  1.00  0.00     0.291 C 
HETATM    7  O   UNL     1     -41.257  56.430 -52.959  1.00  0.00    -0.264 OA
HETATM    8  H   UNL     1     -41.017  53.781 -54.689  1.00  0.00     0.190 HD
BRANCH   6   9
HETATM    9  C   UNL     1     -40.737  54.200 -52.278  1.00  0.00     0.158 A 
HETATM   10  C   UNL     1     -40.361  52.849 -52.544  1.00  0.00     0.029 A 
HETATM   11  C   UNL     1     -40.239  52.030 -53.686  1.00  0.00     0.023 A 
HETATM   12  C   UNL     1     -40.064  52.305 -51.299  1.00  0.00     0.063 A 
HETATM   13  C   UNL     1     -39.817  50.697 -53.540  1.00  0.00    -0.061 A 
HETATM   14  C   UNL     1     -39.709  49.795 -54.736  1.00  0.00     0.048 C 
HETATM   15  C   UNL     1     -39.527  50.192 -52.266  1.00  0.00     0.009 A 
HETATM   16  C   UNL     1     -39.642  50.986 -51.120  1.00  0.00     0.032 A 
HETATM   17  N   UNL     1     -40.281  53.312 -50.403  1.00  0.00    -0.277 N 
HETATM   18  H   UNL     1     -40.165  53.274 -49.396  1.00  0.00     0.189 HD
HETATM   19  N   UNL     1     -40.691  54.467 -50.952  1.00  0.00    -0.168 NA
ENDBRANCH   6   9
ENDBRANCH   1   5
BRANCH   2  20
HETATM   20  C   UNL     1     -42.516  56.289 -57.699  1.00  0.00     0.280 C 
BRANCH  20  21
HETATM   21  O   UNL     1     -43.190  57.511 -57.447  1.00  0.00    -0.341 OA
BRANCH  21  22
HETATM   22  C   UNL     1     -44.486  57.662 -57.878  1.00  0.00     0.080 A 
HETATM   23  C   UNL     1     -45.422  58.092 -56.907  1.00  0.00     0.007 A 
HETATM   24  C   UNL     1     -46.763  58.279 -57.302  1.00  0.00     0.015 A 
HETATM   25  C   UNL     1     -47.175  58.042 -58.613  1.00  0.00     0.001 A 
HETATM   26  C   UNL     1     -46.250  57.607 -59.553  1.00  0.00     0.003 A 
HETATM   27  C   UNL     1     -44.915  57.418 -59.190  1.00  0.00     0.037 A 
BRANCH  23  28
HETATM   28  C   UNL     1     -45.057  58.335 -55.497  1.00  0.00    -0.023 A 
HETATM   29  C   UNL     1     -44.950  57.281 -54.577  1.00  0.00     0.012 A 
HETATM   30  C   UNL     1     -44.584  57.520 -53.249  1.00  0.00     0.001 A 
HETATM   31  C   UNL     1     -44.315  58.817 -52.821  1.00  0.00     0.000 A 
HETATM   32  C   UNL     1     -44.414  59.878 -53.719  1.00  0.00     0.001 A 
HETATM   33  C   UNL     1     -44.782  59.637 -55.044  1.00  0.00     0.012 A 
ENDBRANCH  23  28
ENDBRANCH  21  22
ENDBRANCH  20  21
ENDBRANCH   2  20
TORSDOF 6
ENDMDL
MODEL 10
REMARK VINA RESULT:      -7.7      2.447      3.869
REMARK  6 active torsions:
REMARK  status: ('A' for Active; 'I' for Inactive)
REMARK    1  A    between atoms: C_9  and  C_10 
REMARK       I    between atoms: C_10  and  N_11 
REMARK    2  A    between atoms: N_11  and  N_12 
REMARK       I    between atoms: N_12  and  C_13 
REMARK    3  A    between atoms: C_13  and  C_14 
REMARK    4  A    between atoms: C_14  and  O_15 
REMARK    5  A    between atoms: O_15  and  C_16 
REMARK    6  A    between atoms: C_17  and  C_18 
ROOT
HETATM    1  N   UNL     1     -42.374  54.798 -55.519  1.00  0.00    -0.265 N 
HETATM    2  C   UNL     1     -41.281  54.177 -54.939  1.00  0.00     0.260 C 
HETATM    3  O   UNL     1     -40.132  54.277 -55.365  1.00  0.00    -0.269 OA
HETATM    4  H   UNL     1     -43.327  54.543 -55.275  1.00  0.00     0.190 HD
ENDROOT
BRANCH   1   5
HETATM    5  N   UNL     1     -42.188  55.493 -56.716  1.00  0.00    -0.262 N 
HETATM    6  C   UNL     1     -42.494  56.843 -56.792  1.00  0.00     0.291 C 
HETATM    7  O   UNL     1     -42.730  57.541 -55.808  1.00  0.00    -0.264 OA
HETATM    8  H   UNL     1     -42.226  54.964 -57.588  1.00  0.00     0.190 HD
BRANCH   6   9
HETATM    9  C   UNL     1     -42.493  57.341 -58.177  1.00  0.00     0.158 A 
HETATM   10  C   UNL     1     -42.153  58.646 -58.643  1.00  0.00     0.029 A 
HETATM   11  C   UNL     1     -41.746  59.864 -58.060  1.00  0.00     0.023 A 
HETATM   12  C   UNL     1     -42.294  58.583 -60.025  1.00  0.00     0.063 A 
HETATM   13  C   UNL     1     -41.487  60.974 -58.885  1.00  0.00    -0.061 A 
HETATM   14  C   UNL     1     -41.082  62.290 -58.286  1.00  0.00     0.048 C 
HETATM   15  C   UNL     1     -41.642  60.864 -60.272  1.00  0.00     0.009 A 
HETATM   16  C   UNL     1     -42.046  59.666 -60.871  1.00  0.00     0.032 A 
HETATM   17  N   UNL     1     -42.703  57.307 -60.290  1.00  0.00    -0.277 N 
HETATM   18  H   UNL     1     -42.906  56.904 -61.198  1.00  0.00     0.189 HD
HETATM   19  N   UNL     1     -42.839  56.530 -59.203  1.00  0.00    -0.168 NA
ENDBRANCH   6   9
ENDBRANCH   1   5
BRANCH   2  20
HETATM   20  C   UNL     1     -41.635  53.360 -53.699  1.00  0.00     0.280 C 
BRANCH  20  21
HETATM   21  O   UNL     1     -42.220  54.145 -52.672  1.00  0.00    -0.341 OA
BRANCH  21  22
HETATM   22  C   UNL     1     -41.626  54.178 -51.434  1.00  0.00     0.080 A 
HETATM   23  C   UNL     1     -41.876  55.330 -50.650  1.00  0.00     0.007 A 
HETATM   24  C   UNL     1     -41.304  55.405 -49.363  1.00  0.00     0.015 A 
HETATM   25  C   UNL     1     -40.501  54.382 -48.864  1.00  0.00     0.001 A 
HETATM   26  C   UNL     1     -40.251  53.263 -49.647  1.00  0.00     0.003 A 
HETATM   27  C   UNL     1     -40.809  53.160 -50.923  1.00  0.00     0.037 A 
BRANCH  23  28
HETATM   28  C   UNL     1     -42.696  56.461 -51.130  1.00  0.00    -0.023 A 
HETATM   29  C   UNL     1     -44.083  56.502 -50.917  1.00  0.00     0.012 A 
HETATM   30  C   UNL     1     -44.846  57.587 -51.358  1.00  0.00     0.001 A 
HETATM   31  C   UNL     1     -44.234  58.652 -52.014  1.00  0.00     0.000 A 
HETATM   32  C   UNL     1     -42.858  58.632 -52.233  1.00  0.00     0.001 A 
HETATM   33  C   UNL     1     -42.098  57.546 -51.794  1.00  0.00     0.012 A 
ENDBRANCH  23  28
ENDBRANCH  21  22
ENDBRANCH  20  21
ENDBRANCH   2  20
TORSDOF 6
ENDMDL
