MODEL 1
REMARK VINA RESULT:      -8.1      0.000      0.000
REMARK  7 active torsions:
REMARK  status: ('A' for Active; 'I' for Inactive)
REMARK    1  A    between atoms: C_2  and  C_3 
REMARK    2  A    between atoms: C_3  and  O_4 
REMARK    3  A    between atoms: O_4  and  C_5 
REMARK    4  A    between atoms: C_8  and  C_9 
REMARK    5  A    between atoms: C_15  and  C_16 
REMARK    6  A    between atoms: C_19  and  N_20 
REMARK       I    between atoms: N_20  and  C_21 
REMARK    7  A    between atoms: C_29  and  N_30 
ROOT
HETATM    1  C   UNL     1     -42.787  55.773 -56.136  1.00  0.00     0.072 A 
HETATM    2  N   UNL     1     -42.675  55.637 -57.505  1.00  0.00    -0.274 N 
HETATM    3  H   UNL     1     -42.191  54.905 -58.014  1.00  0.00     0.189 HD
HETATM    4  N   UNL     1     -43.288  56.607 -58.211  1.00  0.00    -0.148 NA
HETATM    5  C   UNL     1     -43.810  57.363 -57.255  1.00  0.00     0.199 A 
HETATM    6  C   UNL     1     -43.552  56.915 -55.956  1.00  0.00     0.040 A 
HETATM    7  C   UNL     1     -44.074  57.670 -54.783  1.00  0.00     0.106 A 
HETATM    8  C   UNL     1     -44.850  58.907 -55.224  1.00  0.00     0.081 A 
HETATM    9  C   UNL     1     -45.445  59.688 -54.190  1.00  0.00     0.100 C 
HETATM   10  N   UNL     1     -45.929  60.319 -53.344  1.00  0.00    -0.191 NA
HETATM   11  C   UNL     1     -45.028  59.240 -56.529  1.00  0.00     0.140 A 
HETATM   12  O   UNL     1     -44.502  58.470 -57.575  1.00  0.00    -0.277 OA
ENDROOT
BRANCH   7  13
HETATM   13  C   UNL     1     -42.881  57.996 -53.893  1.00  0.00    -0.044 A 
HETATM   14  C   UNL     1     -42.732  57.470 -52.600  1.00  0.00     0.010 A 
HETATM   15  C   UNL     1     -41.614  57.788 -51.817  1.00  0.00     0.030 A 
HETATM   16  C   UNL     1     -40.614  58.624 -52.314  1.00  0.00     0.034 A 
HETATM   17  C   UNL     1     -40.746  59.135 -53.609  1.00  0.00     0.030 A 
HETATM   18  C   UNL     1     -41.862  58.823 -54.391  1.00  0.00     0.010 A 
BRANCH  16  19
HETATM   19  N   UNL     1     -39.460  58.995 -51.595  1.00  0.00    -0.328 N 
HETATM   20  C   UNL     1     -39.395  59.579 -50.343  1.00  0.00     0.218 C 
HETATM   21  C   UNL     1     -37.973  59.811 -49.898  1.00  0.00     0.117 C 
HETATM   22  O   UNL     1     -40.336  59.877 -49.617  1.00  0.00    -0.274 OA
HETATM   23  H   UNL     1     -38.577  58.808 -52.054  1.00  0.00     0.169 HD
ENDBRANCH  16  19
ENDBRANCH   7  13
BRANCH  11  24
HETATM   24  N   UNL     1     -45.729  60.338 -56.980  1.00  0.00    -0.282 NA
HETATM   25  H   UNL     1     -46.584  60.554 -56.472  1.00  0.00     0.126 HD
HETATM   26  H   UNL     1     -45.124  61.148 -57.098  1.00  0.00     0.126 HD
ENDBRANCH  11  24
BRANCH   1  27
HETATM   27  C   UNL     1     -42.141  54.862 -55.199  1.00  0.00    -0.007 A 
HETATM   28  C   UNL     1     -40.795  54.513 -55.368  1.00  0.00     0.016 A 
HETATM   29  C   UNL     1     -40.148  53.676 -54.451  1.00  0.00     0.037 A 
HETATM   30  C   UNL     1     -40.838  53.183 -53.346  1.00  0.00     0.068 A 
HETATM   31  C   UNL     1     -42.184  53.517 -53.180  1.00  0.00     0.037 A 
HETATM   32  C   UNL     1     -42.834  54.347 -54.100  1.00  0.00     0.016 A 
BRANCH  30  33
HETATM   33  O   UNL     1     -40.318  52.384 -52.365  1.00  0.00    -0.351 OA
BRANCH  33  34
HETATM   34  C   UNL     1     -39.259  51.504 -52.742  1.00  0.00     0.175 C 
BRANCH  34  35
HETATM   35  C   UNL     1     -39.874  50.163 -53.131  1.00  0.00     0.022 C 
HETATM   36  C   UNL     1     -39.724  49.884 -54.615  1.00  0.00     0.007 C 
ENDBRANCH  34  35
ENDBRANCH  33  34
ENDBRANCH  30  33
ENDBRANCH   1  27
TORSDOF 7
ENDMDL
MODEL 2
REMARK VINA RESULT:      -8.0      2.672      5.445
REMARK  7 active torsions:
REMARK  status: ('A' for Active; 'I' for Inactive)
REMARK    1  A    between atoms: C_2  and  C_3 
REMARK    2  A    between atoms: C_3  and  O_4 
REMARK    3  A    between atoms: O_4  and  C_5 
REMARK    4  A    between atoms: C_8  and  C_9 
REMARK    5  A    between atoms: C_15  and  C_16 
REMARK    6  A    between atoms: C_19  and  N_20 
REMARK       I    between atoms: N_20  and  C_21 
REMARK    7  A    between atoms: C_29  and  N_30 
ROOT
HETATM    1  C   UNL     1     -43.889  56.932 -52.189  1.00  0.00     0.072 A 
HETATM    2  N   UNL     1     -44.754  56.607 -51.164  1.00  0.00    -0.274 N 
HETATM    3  H   UNL     1     -44.890  55.697 -50.737  1.00  0.00     0.189 HD
HETATM    4  N   UNL     1     -45.484  57.643 -50.706  1.00  0.00    -0.148 NA
HETATM    5  C   UNL     1     -45.053  58.646 -51.458  1.00  0.00     0.199 A 
HETATM    6  C   UNL     1     -44.070  58.292 -52.388  1.00  0.00     0.040 A 
HETATM    7  C   UNL     1     -43.498  59.318 -53.303  1.00  0.00     0.106 A 
HETATM    8  C   UNL     1     -44.133  60.684 -53.067  1.00  0.00     0.081 A 
HETATM    9  C   UNL     1     -43.631  61.765 -53.849  1.00  0.00     0.100 C 
HETATM   10  N   UNL     1     -43.216  62.641 -54.488  1.00  0.00    -0.191 NA
HETATM   11  C   UNL     1     -45.091  60.900 -52.128  1.00  0.00     0.140 A 
HETATM   12  O   UNL     1     -45.575  59.875 -51.305  1.00  0.00    -0.277 OA
ENDROOT
BRANCH   7  13
HETATM   13  C   UNL     1     -43.687  58.806 -54.725  1.00  0.00    -0.044 A 
HETATM   14  C   UNL     1     -42.610  58.458 -55.556  1.00  0.00     0.010 A 
HETATM   15  C   UNL     1     -42.828  57.982 -56.856  1.00  0.00     0.030 A 
HETATM   16  C   UNL     1     -44.124  57.827 -57.348  1.00  0.00     0.034 A 
HETATM   17  C   UNL     1     -45.201  58.153 -56.518  1.00  0.00     0.030 A 
HETATM   18  C   UNL     1     -44.987  58.631 -55.222  1.00  0.00     0.010 A 
BRANCH  16  19
HETATM   19  N   UNL     1     -44.432  57.356 -58.640  1.00  0.00    -0.328 N 
HETATM   20  C   UNL     1     -44.166  56.106 -59.170  1.00  0.00     0.218 C 
HETATM   21  C   UNL     1     -44.664  55.974 -60.587  1.00  0.00     0.117 C 
HETATM   22  O   UNL     1     -43.619  55.166 -58.606  1.00  0.00    -0.274 OA
HETATM   23  H   UNL     1     -44.902  58.015 -59.248  1.00  0.00     0.169 HD
ENDBRANCH  16  19
ENDBRANCH   7  13
BRANCH  11  24
HETATM   24  N   UNL     1     -45.689  62.115 -51.868  1.00  0.00    -0.282 NA
HETATM   25  H   UNL     1     -46.122  62.205 -50.951  1.00  0.00     0.126 HD
HETATM   26  H   UNL     1     -45.074  62.894 -52.093  1.00  0.00     0.126 HD
ENDBRANCH  11  24
BRANCH   1  27
HETATM   27  C   UNL     1     -43.058  55.941 -52.862  1.00  0.00    -0.007 A 
HETATM   28  C   UNL     1     -43.565  55.215 -53.948  1.00  0.00     0.016 A 
HETATM   29  C   UNL     1     -42.766  54.293 -54.633  1.00  0.00     0.037 A 
HETATM   30  C   UNL     1     -41.442  54.090 -54.246  1.00  0.00     0.068 A 
HETATM   31  C   UNL     1     -40.937  54.800 -53.156  1.00  0.00     0.037 A 
HETATM   32  C   UNL     1     -41.737  55.717 -52.465  1.00  0.00     0.016 A 
BRANCH  30  33
HETATM   33  O   UNL     1     -40.551  53.244 -54.846  1.00  0.00    -0.351 OA
BRANCH  33  34
HETATM   34  C   UNL     1     -39.910  52.280 -54.010  1.00  0.00     0.175 C 
BRANCH  34  35
HETATM   35  C   UNL     1     -40.495  50.909 -54.336  1.00  0.00     0.022 C 
HETATM   36  C   UNL     1     -39.440  49.818 -54.271  1.00  0.00     0.007 C 
ENDBRANCH  34  35
ENDBRANCH  33  34
ENDBRANCH  30  33
ENDBRANCH   1  27
TORSDOF 7
ENDMDL
MODEL 3
REMARK VINA RESULT:      -7.9      2.521      3.472
REMARK  7 active torsions:
REMARK  status: ('A' for Active; 'I' for Inactive)
REMARK    1  A    between atoms: C_2  and  C_3 
REMARK    2  A    between atoms: C_3  and  O_4 
REMARK    3  A    between atoms: O_4  and  C_5 
REMARK    4  A    between atoms: C_8  and  C_9 
REMARK    5  A    between atoms: C_15  and  C_16 
REMARK    6  A    between atoms: C_19  and  N_20 
REMARK       I    between atoms: N_20  and  C_21 
REMARK    7  A    between atoms: C_29  and  N_30 
ROOT
HETATM    1  C   UNL     1     -42.255  57.320 -54.854  1.00  0.00     0.072 A 
HETATM    2  N   UNL     1     -41.678  58.167 -55.778  1.00  0.00    -0.274 N 
HETATM    3  H   UNL     1     -41.027  57.922 -56.516  1.00  0.00     0.189 HD
HETATM    4  N   UNL     1     -42.046  59.457 -55.654  1.00  0.00    -0.148 NA
HETATM    5  C   UNL     1     -42.887  59.412 -54.629  1.00  0.00     0.199 A 
HETATM    6  C   UNL     1     -43.072  58.137 -54.088  1.00  0.00     0.040 A 
HETATM    7  C   UNL     1     -43.987  57.939 -52.929  1.00  0.00     0.106 A 
HETATM    8  C   UNL     1     -44.607  59.258 -52.483  1.00  0.00     0.081 A 
HETATM    9  C   UNL     1     -45.544  59.192 -51.410  1.00  0.00     0.100 C 
HETATM   10  N   UNL     1     -46.307  59.132 -50.538  1.00  0.00    -0.191 NA
HETATM   11  C   UNL     1     -44.340  60.442 -53.093  1.00  0.00     0.140 A 
HETATM   12  O   UNL     1     -43.464  60.541 -54.182  1.00  0.00    -0.277 OA
ENDROOT
BRANCH   7  13
HETATM   13  C   UNL     1     -43.180  57.253 -51.833  1.00  0.00    -0.044 A 
HETATM   14  C   UNL     1     -42.051  57.840 -51.240  1.00  0.00     0.010 A 
HETATM   15  C   UNL     1     -41.342  57.178 -50.228  1.00  0.00     0.030 A 
HETATM   16  C   UNL     1     -41.755  55.924 -49.776  1.00  0.00     0.034 A 
HETATM   17  C   UNL     1     -42.890  55.343 -50.349  1.00  0.00     0.030 A 
HETATM   18  C   UNL     1     -43.597  55.999 -51.361  1.00  0.00     0.010 A 
BRANCH  16  19
HETATM   19  N   UNL     1     -41.100  55.191 -48.766  1.00  0.00    -0.328 N 
HETATM   20  C   UNL     1     -40.213  54.142 -48.922  1.00  0.00     0.218 C 
HETATM   21  C   UNL     1     -39.709  53.624 -47.598  1.00  0.00     0.117 C 
HETATM   22  O   UNL     1     -39.819  53.658 -49.977  1.00  0.00    -0.274 OA
HETATM   23  H   UNL     1     -41.309  55.471 -47.816  1.00  0.00     0.169 HD
ENDBRANCH  16  19
ENDBRANCH   7  13
BRANCH  11  24
HETATM   24  N   UNL     1     -44.880  61.660 -52.737  1.00  0.00    -0.282 NA
HETATM   25  H   UNL     1     -45.869  61.781 -52.946  1.00  0.00     0.126 HD
HETATM   26  H   UNL     1     -44.645  61.910 -51.779  1.00  0.00     0.126 HD
ENDBRANCH  11  24
BRANCH   1  27
HETATM   27  C   UNL     1     -41.937  55.899 -54.782  1.00  0.00    -0.007 A 
HETATM   28  C   UNL     1     -42.935  54.941 -55.005  1.00  0.00     0.016 A 
HETATM   29  C   UNL     1     -42.637  53.573 -54.984  1.00  0.00     0.037 A 
HETATM   30  C   UNL     1     -41.332  53.145 -54.748  1.00  0.00     0.068 A 
HETATM   31  C   UNL     1     -40.337  54.096 -54.512  1.00  0.00     0.037 A 
HETATM   32  C   UNL     1     -40.635  55.463 -54.525  1.00  0.00     0.016 A 
BRANCH  30  33
HETATM   33  O   UNL     1     -40.904  51.847 -54.730  1.00  0.00    -0.351 OA
BRANCH  33  34
HETATM   34  C   UNL     1     -39.817  51.536 -53.857  1.00  0.00     0.175 C 
BRANCH  34  35
HETATM   35  C   UNL     1     -39.629  50.022 -53.859  1.00  0.00     0.022 C 
HETATM   36  C   UNL     1     -39.618  49.455 -52.450  1.00  0.00     0.007 C 
ENDBRANCH  34  35
ENDBRANCH  33  34
ENDBRANCH  30  33
ENDBRANCH   1  27
TORSDOF 7
ENDMDL
MODEL 4
REMARK VINA RESULT:      -7.8      1.436      2.109
REMARK  7 active torsions:
REMARK  status: ('A' for Active; 'I' for Inactive)
REMARK    1  A    between atoms: C_2  and  C_3 
REMARK    2  A    between atoms: C_3  and  O_4 
REMARK    3  A    between atoms: O_4  and  C_5 
REMARK    4  A    between atoms: C_8  and  C_9 
REMARK    5  A    between atoms: C_15  and  C_16 
REMARK    6  A    between atoms: C_19  and  N_20 
REMARK       I    between atoms: N_20  and  C_21 
REMARK    7  A    between atoms: C_29  and  N_30 
ROOT
HETATM    1  C   UNL     1     -42.788  55.820 -55.773  1.00  0.00     0.072 A 
HETATM    2  N   UNL     1     -42.526  55.506 -57.090  1.00  0.00    -0.274 N 
HETATM    3  H   UNL     1     -42.035  54.691 -57.444  1.00  0.00     0.189 HD
HETATM    4  N   UNL     1     -42.990  56.407 -57.979  1.00  0.00    -0.148 NA
HETATM    5  C   UNL     1     -43.569  57.304 -57.192  1.00  0.00     0.199 A 
HETATM    6  C   UNL     1     -43.493  57.013 -55.827  1.00  0.00     0.040 A 
HETATM    7  C   UNL     1     -44.097  57.937 -54.828  1.00  0.00     0.106 A 
HETATM    8  C   UNL     1     -44.736  59.144 -55.506  1.00  0.00     0.081 A 
HETATM    9  C   UNL     1     -45.395  60.079 -54.656  1.00  0.00     0.100 C 
HETATM   10  N   UNL     1     -45.931  60.836 -53.958  1.00  0.00    -0.191 NA
HETATM   11  C   UNL     1     -44.739  59.316 -56.854  1.00  0.00     0.140 A 
HETATM   12  O   UNL     1     -44.146  58.394 -57.727  1.00  0.00    -0.277 OA
ENDROOT
BRANCH   7  13
HETATM   13  C   UNL     1     -42.997  58.314 -53.843  1.00  0.00    -0.044 A 
HETATM   14  C   UNL     1     -41.785  58.896 -54.244  1.00  0.00     0.010 A 
HETATM   15  C   UNL     1     -40.802  59.236 -53.304  1.00  0.00     0.030 A 
HETATM   16  C   UNL     1     -41.016  59.016 -51.943  1.00  0.00     0.034 A 
HETATM   17  C   UNL     1     -42.230  58.455 -51.535  1.00  0.00     0.030 A 
HETATM   18  C   UNL     1     -43.210  58.112 -52.470  1.00  0.00     0.010 A 
BRANCH  16  19
HETATM   19  N   UNL     1     -40.082  59.327 -50.934  1.00  0.00    -0.328 N 
HETATM   20  C   UNL     1     -38.710  59.444 -51.059  1.00  0.00     0.218 C 
HETATM   21  C   UNL     1     -38.051  59.807 -49.751  1.00  0.00     0.117 C 
HETATM   22  O   UNL     1     -38.046  59.307 -52.079  1.00  0.00    -0.274 OA
HETATM   23  H   UNL     1     -40.469  59.483 -50.011  1.00  0.00     0.169 HD
ENDBRANCH  16  19
ENDBRANCH   7  13
BRANCH  11  24
HETATM   24  N   UNL     1     -45.310  60.381 -57.517  1.00  0.00    -0.282 NA
HETATM   25  H   UNL     1     -44.733  61.217 -57.585  1.00  0.00     0.126 HD
HETATM   26  H   UNL     1     -45.705  60.100 -58.412  1.00  0.00     0.126 HD
ENDBRANCH  11  24
BRANCH   1  27
HETATM   27  C   UNL     1     -42.315  55.006 -54.660  1.00  0.00    -0.007 A 
HETATM   28  C   UNL     1     -40.977  54.594 -54.605  1.00  0.00     0.016 A 
HETATM   29  C   UNL     1     -40.497  53.851 -53.520  1.00  0.00     0.037 A 
HETATM   30  C   UNL     1     -41.349  53.515 -52.470  1.00  0.00     0.068 A 
HETATM   31  C   UNL     1     -42.687  53.911 -52.527  1.00  0.00     0.037 A 
HETATM   32  C   UNL     1     -43.170  54.649 -53.613  1.00  0.00     0.016 A 
BRANCH  30  33
HETATM   33  O   UNL     1     -41.001  52.821 -51.344  1.00  0.00    -0.351 OA
BRANCH  33  34
HETATM   34  C   UNL     1     -39.938  53.358 -50.556  1.00  0.00     0.175 C 
BRANCH  34  35
HETATM   35  C   UNL     1     -40.486  53.654 -49.163  1.00  0.00     0.022 C 
HETATM   36  C   UNL     1     -41.147  55.019 -49.098  1.00  0.00     0.007 C 
ENDBRANCH  34  35
ENDBRANCH  33  34
ENDBRANCH  30  33
ENDBRANCH   1  27
TORSDOF 7
ENDMDL
MODEL 5
REMARK VINA RESULT:      -7.6      2.428      5.139
REMARK  7 active torsions:
REMARK  status: ('A' for Active; 'I' for Inactive)
REMARK    1  A    between atoms: C_2  and  C_3 
REMARK    2  A    between atoms: C_3  and  O_4 
REMARK    3  A    between atoms: O_4  and  C_5 
REMARK    4  A    between atoms: C_8  and  C_9 
REMARK    5  A    between atoms: C_15  and  C_16 
REMARK    6  A    between atoms: C_19  and  N_20 
REMARK       I    between atoms: N_20  and  C_21 
REMARK    7  A    between atoms: C_29  and  N_30 
ROOT
HETATM    1  C   UNL     1     -43.440  55.762 -51.323  1.00  0.00     0.072 A 
HETATM    2  N   UNL     1     -44.476  55.358 -50.506  1.00  0.00    -0.274 N 
HETATM    3  H   UNL     1     -44.639  54.430 -50.130  1.00  0.00     0.189 HD
HETATM    4  N   UNL     1     -45.352  56.335 -50.196  1.00  0.00    -0.148 NA
HETATM    5  C   UNL     1     -44.839  57.382 -50.828  1.00  0.00     0.199 A 
HETATM    6  C   UNL     1     -43.664  57.113 -51.536  1.00  0.00     0.040 A 
HETATM    7  C   UNL     1     -42.982  58.197 -52.297  1.00  0.00     0.106 A 
HETATM    8  C   UNL     1     -43.739  59.515 -52.180  1.00  0.00     0.081 A 
HETATM    9  C   UNL     1     -43.155  60.645 -52.825  1.00  0.00     0.100 C 
HETATM   10  N   UNL     1     -42.675  61.561 -53.351  1.00  0.00    -0.191 NA
HETATM   11  C   UNL     1     -44.883  59.648 -51.459  1.00  0.00     0.140 A 
HETATM   12  O   UNL     1     -45.460  58.573 -50.770  1.00  0.00    -0.277 OA
ENDROOT
BRANCH   7  13
HETATM   13  C   UNL     1     -42.837  57.712 -53.734  1.00  0.00    -0.044 A 
HETATM   14  C   UNL     1     -41.598  57.379 -54.303  1.00  0.00     0.010 A 
HETATM   15  C   UNL     1     -41.510  56.929 -55.627  1.00  0.00     0.030 A 
HETATM   16  C   UNL     1     -42.658  56.786 -56.406  1.00  0.00     0.034 A 
HETATM   17  C   UNL     1     -43.898  57.096 -55.839  1.00  0.00     0.030 A 
HETATM   18  C   UNL     1     -43.988  57.549 -54.520  1.00  0.00     0.010 A 
BRANCH  16  19
HETATM   19  N   UNL     1     -42.659  56.341 -57.744  1.00  0.00    -0.328 N 
HETATM   20  C   UNL     1     -42.791  57.105 -58.889  1.00  0.00     0.218 C 
HETATM   21  C   UNL     1     -42.726  56.266 -60.140  1.00  0.00     0.117 C 
HETATM   22  O   UNL     1     -42.922  58.322 -58.954  1.00  0.00    -0.274 OA
HETATM   23  H   UNL     1     -42.549  55.343 -57.874  1.00  0.00     0.169 HD
ENDBRANCH  16  19
ENDBRANCH   7  13
BRANCH  11  24
HETATM   24  N   UNL     1     -45.599  60.816 -51.313  1.00  0.00    -0.282 NA
HETATM   25  H   UNL     1     -45.618  61.426 -52.128  1.00  0.00     0.126 HD
HETATM   26  H   UNL     1     -46.525  60.645 -50.927  1.00  0.00     0.126 HD
ENDBRANCH  11  24
BRANCH   1  27
HETATM   27  C   UNL     1     -42.425  54.841 -51.821  1.00  0.00    -0.007 A 
HETATM   28  C   UNL     1     -41.282  54.571 -51.058  1.00  0.00     0.016 A 
HETATM   29  C   UNL     1     -40.321  53.655 -51.502  1.00  0.00     0.037 A 
HETATM   30  C   UNL     1     -40.495  52.990 -52.714  1.00  0.00     0.068 A 
HETATM   31  C   UNL     1     -41.626  53.266 -53.485  1.00  0.00     0.037 A 
HETATM   32  C   UNL     1     -42.585  54.186 -53.046  1.00  0.00     0.016 A 
BRANCH  30  33
HETATM   33  O   UNL     1     -39.651  52.055 -53.245  1.00  0.00    -0.351 OA
BRANCH  33  34
HETATM   34  C   UNL     1     -39.312  50.943 -52.416  1.00  0.00     0.175 C 
BRANCH  34  35
HETATM   35  C   UNL     1     -39.623  49.665 -53.189  1.00  0.00     0.022 C 
HETATM   36  C   UNL     1     -39.909  49.948 -54.653  1.00  0.00     0.007 C 
ENDBRANCH  34  35
ENDBRANCH  33  34
ENDBRANCH  30  33
ENDBRANCH   1  27
TORSDOF 7
ENDMDL
MODEL 6
REMARK VINA RESULT:      -7.5      2.390      3.490
REMARK  7 active torsions:
REMARK  status: ('A' for Active; 'I' for Inactive)
REMARK    1  A    between atoms: C_2  and  C_3 
REMARK    2  A    between atoms: C_3  and  O_4 
REMARK    3  A    between atoms: O_4  and  C_5 
REMARK    4  A    between atoms: C_8  and  C_9 
REMARK    5  A    between atoms: C_15  and  C_16 
REMARK    6  A    between atoms: C_19  and  N_20 
REMARK       I    between atoms: N_20  and  C_21 
REMARK    7  A    between atoms: C_29  and  N_30 
ROOT
HETATM    1  C   UNL     1     -43.005  56.268 -58.046  1.00  0.00     0.072 A 
HETATM    2  N   UNL     1     -42.165  56.091 -59.126  1.00  0.00    -0.274 N 
HETATM    3  H   UNL     1     -41.320  55.532 -59.165  1.00  0.00     0.189 HD
HETATM    4  N   UNL     1     -42.543  56.754 -60.237  1.00  0.00    -0.148 NA
HETATM    5  C   UNL     1     -43.659  57.351 -59.842  1.00  0.00     0.199 A 
HETATM    6  C   UNL     1     -44.013  57.098 -58.513  1.00  0.00     0.040 A 
HETATM    7  C   UNL     1     -45.241  57.709 -57.933  1.00  0.00     0.106 A 
HETATM    8  C   UNL     1     -45.958  58.584 -58.956  1.00  0.00     0.081 A 
HETATM    9  C   UNL     1     -47.180  59.185 -58.535  1.00  0.00     0.100 C 
HETATM   10  N   UNL     1     -48.176  59.671 -58.187  1.00  0.00    -0.191 NA
HETATM   11  C   UNL     1     -45.507  58.755 -60.226  1.00  0.00     0.140 A 
HETATM   12  O   UNL     1     -44.337  58.141 -60.692  1.00  0.00    -0.277 OA
ENDROOT
BRANCH   7  13
HETATM   13  C   UNL     1     -44.817  58.470 -56.683  1.00  0.00    -0.044 A 
HETATM   14  C   UNL     1     -44.026  59.629 -56.731  1.00  0.00     0.010 A 
HETATM   15  C   UNL     1     -43.665  60.304 -55.557  1.00  0.00     0.030 A 
HETATM   16  C   UNL     1     -44.099  59.846 -54.313  1.00  0.00     0.034 A 
HETATM   17  C   UNL     1     -44.904  58.703 -54.260  1.00  0.00     0.030 A 
HETATM   18  C   UNL     1     -45.262  58.026 -55.429  1.00  0.00     0.010 A 
BRANCH  16  19
HETATM   19  N   UNL     1     -43.783  60.463 -53.086  1.00  0.00    -0.328 N 
HETATM   20  C   UNL     1     -42.554  60.502 -52.451  1.00  0.00     0.218 C 
HETATM   21  C   UNL     1     -42.609  61.275 -51.157  1.00  0.00     0.117 C 
HETATM   22  O   UNL     1     -41.503  60.011 -52.845  1.00  0.00    -0.274 OA
HETATM   23  H   UNL     1     -44.549  60.932 -52.620  1.00  0.00     0.169 HD
ENDBRANCH  16  19
ENDBRANCH   7  13
BRANCH  11  24
HETATM   24  N   UNL     1     -46.121  59.526 -61.190  1.00  0.00    -0.282 NA
HETATM   25  H   UNL     1     -46.115  59.140 -62.131  1.00  0.00     0.126 HD
HETATM   26  H   UNL     1     -47.045  59.833 -60.894  1.00  0.00     0.126 HD
ENDBRANCH  11  24
BRANCH   1  27
HETATM   27  C   UNL     1     -42.736  55.687 -56.736  1.00  0.00    -0.007 A 
HETATM   28  C   UNL     1     -41.927  56.365 -55.816  1.00  0.00     0.016 A 
HETATM   29  C   UNL     1     -41.696  55.842 -54.538  1.00  0.00     0.037 A 
HETATM   30  C   UNL     1     -42.281  54.635 -54.159  1.00  0.00     0.068 A 
HETATM   31  C   UNL     1     -43.077  53.948 -55.078  1.00  0.00     0.037 A 
HETATM   32  C   UNL     1     -43.303  54.466 -56.358  1.00  0.00     0.016 A 
BRANCH  30  33
HETATM   33  O   UNL     1     -42.160  54.032 -52.938  1.00  0.00    -0.351 OA
BRANCH  33  34
HETATM   34  C   UNL     1     -40.894  54.139 -52.286  1.00  0.00     0.175 C 
BRANCH  34  35
HETATM   35  C   UNL     1     -40.319  52.734 -52.139  1.00  0.00     0.022 C 
HETATM   36  C   UNL     1     -39.993  52.115 -53.486  1.00  0.00     0.007 C 
ENDBRANCH  34  35
ENDBRANCH  33  34
ENDBRANCH  30  33
ENDBRANCH   1  27
TORSDOF 7
ENDMDL
MODEL 7
REMARK VINA RESULT:      -7.2      2.438      6.030
REMARK  7 active torsions:
REMARK  status: ('A' for Active; 'I' for Inactive)
REMARK    1  A    between atoms: C_2  and  C_3 
REMARK    2  A    between atoms: C_3  and  O_4 
REMARK    3  A    between atoms: O_4  and  C_5 
REMARK    4  A    between atoms: C_8  and  C_9 
REMARK    5  A    between atoms: C_15  and  C_16 
REMARK    6  A    between atoms: C_19  and  N_20 
REMARK       I    between atoms: N_20  and  C_21 
REMARK    7  A    between atoms: C_29  and  N_30 
ROOT
HETATM    1  C   UNL     1     -45.601  58.235 -56.374  1.00  0.00     0.072 A 
HETATM    2  N   UNL     1     -46.953  58.203 -56.652  1.00  0.00    -0.274 N 
HETATM    3  H   UNL     1     -47.712  58.513 -56.055  1.00  0.00     0.189 HD
HETATM    4  N   UNL     1     -47.259  57.696 -57.863  1.00  0.00    -0.148 NA
HETATM    5  C   UNL     1     -46.062  57.415 -58.360  1.00  0.00     0.199 A 
HETATM    6  C   UNL     1     -44.995  57.721 -57.511  1.00  0.00     0.040 A 
HETATM    7  C   UNL     1     -43.594  57.453 -57.939  1.00  0.00     0.106 A 
HETATM    8  C   UNL     1     -43.551  56.831 -59.330  1.00  0.00     0.081 A 
HETATM    9  C   UNL     1     -42.258  56.575 -59.874  1.00  0.00     0.100 C 
HETATM   10  N   UNL     1     -41.203  56.369 -60.312  1.00  0.00    -0.191 NA
HETATM   11  C   UNL     1     -44.669  56.576 -60.059  1.00  0.00     0.140 A 
HETATM   12  O   UNL     1     -45.954  56.860 -59.580  1.00  0.00    -0.277 OA
ENDROOT
BRANCH   7  13
HETATM   13  C   UNL     1     -42.958  56.575 -56.868  1.00  0.00    -0.044 A 
HETATM   14  C   UNL     1     -43.214  55.199 -56.763  1.00  0.00     0.010 A 
HETATM   15  C   UNL     1     -42.602  54.425 -55.768  1.00  0.00     0.030 A 
HETATM   16  C   UNL     1     -41.708  55.005 -54.868  1.00  0.00     0.034 A 
HETATM   17  C   UNL     1     -41.433  56.371 -54.980  1.00  0.00     0.030 A 
HETATM   18  C   UNL     1     -42.045  57.146 -55.969  1.00  0.00     0.010 A 
BRANCH  16  19
HETATM   19  N   UNL     1     -41.050  54.301 -53.839  1.00  0.00    -0.328 N 
HETATM   20  C   UNL     1     -41.592  53.826 -52.659  1.00  0.00     0.218 C 
HETATM   21  C   UNL     1     -40.570  53.106 -51.816  1.00  0.00     0.117 C 
HETATM   22  O   UNL     1     -42.756  53.921 -52.290  1.00  0.00    -0.274 OA
HETATM   23  H   UNL     1     -40.064  54.126 -53.989  1.00  0.00     0.169 HD
ENDBRANCH  16  19
ENDBRANCH   7  13
BRANCH  11  24
HETATM   24  N   UNL     1     -44.685  56.025 -61.323  1.00  0.00    -0.282 NA
HETATM   25  H   UNL     1     -44.244  55.112 -61.411  1.00  0.00     0.126 HD
HETATM   26  H   UNL     1     -45.614  56.057 -61.736  1.00  0.00     0.126 HD
ENDBRANCH  11  24
BRANCH   1  27
HETATM   27  C   UNL     1     -45.071  58.688 -55.094  1.00  0.00    -0.007 A 
HETATM   28  C   UNL     1     -44.686  60.024 -54.924  1.00  0.00     0.016 A 
HETATM   29  C   UNL     1     -44.217  60.486 -53.688  1.00  0.00     0.037 A 
HETATM   30  C   UNL     1     -44.134  59.616 -52.602  1.00  0.00     0.068 A 
HETATM   31  C   UNL     1     -44.503  58.280 -52.771  1.00  0.00     0.037 A 
HETATM   32  C   UNL     1     -44.966  57.816 -54.007  1.00  0.00     0.016 A 
BRANCH  30  33
HETATM   33  O   UNL     1     -43.723  59.945 -51.340  1.00  0.00    -0.351 OA
BRANCH  33  34
HETATM   34  C   UNL     1     -42.453  60.587 -51.220  1.00  0.00     0.175 C 
BRANCH  34  35
HETATM   35  C   UNL     1     -41.442  59.548 -50.743  1.00  0.00     0.022 C 
HETATM   36  C   UNL     1     -40.629  58.984 -51.894  1.00  0.00     0.007 C 
ENDBRANCH  34  35
ENDBRANCH  33  34
ENDBRANCH  30  33
ENDBRANCH   1  27
TORSDOF 7
ENDMDL
MODEL 8
REMARK VINA RESULT:      -7.0      2.935      7.869
REMARK  7 active torsions:
REMARK  status: ('A' for Active; 'I' for Inactive)
REMARK    1  A    between atoms: C_2  and  C_3 
REMARK    2  A    between atoms: C_3  and  O_4 
REMARK    3  A    between atoms: O_4  and  C_5 
REMARK    4  A    between atoms: C_8  and  C_9 
REMARK    5  A    between atoms: C_15  and  C_16 
REMARK    6  A    between atoms: C_19  and  N_20 
REMARK       I    between atoms: N_20  and  C_21 
REMARK    7  A    between atoms: C_29  and  N_30 
ROOT
HETATM    1  C   UNL     1     -41.501  59.046 -52.003  1.00  0.00     0.072 A 
HETATM    2  N   UNL     1     -40.345  59.461 -51.375  1.00  0.00    -0.274 N 
HETATM    3  H   UNL     1     -39.828  60.318 -51.539  1.00  0.00     0.189 HD
HETATM    4  N   UNL     1     -39.880  58.604 -50.445  1.00  0.00    -0.148 NA
HETATM    5  C   UNL     1     -40.781  57.631 -50.485  1.00  0.00     0.199 A 
HETATM    6  C   UNL     1     -41.809  57.831 -51.411  1.00  0.00     0.040 A 
HETATM    7  C   UNL     1     -42.887  56.815 -51.566  1.00  0.00     0.106 A 
HETATM    8  C   UNL     1     -42.670  55.631 -50.630  1.00  0.00     0.081 A 
HETATM    9  C   UNL     1     -43.667  54.612 -50.649  1.00  0.00     0.100 C 
HETATM   10  N   UNL     1     -44.483  53.787 -50.668  1.00  0.00    -0.191 NA
HETATM   11  C   UNL     1     -41.619  55.552 -49.773  1.00  0.00     0.140 A 
HETATM   12  O   UNL     1     -40.645  56.556 -49.689  1.00  0.00    -0.277 OA
ENDROOT
BRANCH   7  13
HETATM   13  C   UNL     1     -42.921  56.420 -53.037  1.00  0.00    -0.044 A 
HETATM   14  C   UNL     1     -41.877  55.720 -53.661  1.00  0.00     0.010 A 
HETATM   15  C   UNL     1     -41.953  55.368 -55.015  1.00  0.00     0.030 A 
HETATM   16  C   UNL     1     -43.079  55.692 -55.771  1.00  0.00     0.034 A 
HETATM   17  C   UNL     1     -44.132  56.371 -55.151  1.00  0.00     0.030 A 
HETATM   18  C   UNL     1     -44.058  56.727 -53.801  1.00  0.00     0.010 A 
BRANCH  16  19
HETATM   19  N   UNL     1     -43.236  55.376 -57.136  1.00  0.00    -0.328 N 
HETATM   20  C   UNL     1     -43.081  56.219 -58.221  1.00  0.00     0.218 C 
HETATM   21  C   UNL     1     -43.319  55.506 -59.530  1.00  0.00     0.117 C 
HETATM   22  O   UNL     1     -42.765  57.402 -58.200  1.00  0.00    -0.274 OA
HETATM   23  H   UNL     1     -43.493  54.418 -57.338  1.00  0.00     0.169 HD
ENDBRANCH  16  19
ENDBRANCH   7  13
BRANCH  11  24
HETATM   24  N   UNL     1     -41.382  54.511 -48.901  1.00  0.00    -0.282 NA
HETATM   25  H   UNL     1     -40.602  54.642 -48.261  1.00  0.00     0.126 HD
HETATM   26  H   UNL     1     -42.233  54.212 -48.430  1.00  0.00     0.126 HD
ENDBRANCH  11  24
BRANCH   1  27
HETATM   27  C   UNL     1     -42.127  59.802 -53.082  1.00  0.00    -0.007 A 
HETATM   28  C   UNL     1     -43.103  60.765 -52.795  1.00  0.00     0.016 A 
HETATM   29  C   UNL     1     -43.680  61.531 -53.815  1.00  0.00     0.037 A 
HETATM   30  C   UNL     1     -43.281  61.348 -55.138  1.00  0.00     0.068 A 
HETATM   31  C   UNL     1     -42.319  60.380 -55.430  1.00  0.00     0.037 A 
HETATM   32  C   UNL     1     -41.746  59.609 -54.413  1.00  0.00     0.016 A 
BRANCH  30  33
HETATM   33  O   UNL     1     -43.742  62.047 -56.218  1.00  0.00    -0.351 OA
BRANCH  33  34
HETATM   34  C   UNL     1     -45.088  61.794 -56.626  1.00  0.00     0.175 C 
BRANCH  34  35
HETATM   35  C   UNL     1     -45.075  60.610 -57.588  1.00  0.00     0.022 C 
HETATM   36  C   UNL     1     -45.723  59.381 -56.976  1.00  0.00     0.007 C 
ENDBRANCH  34  35
ENDBRANCH  33  34
ENDBRANCH  30  33
ENDBRANCH   1  27
TORSDOF 7
ENDMDL
MODEL 9
REMARK VINA RESULT:      -6.9      3.001      6.324
REMARK  7 active torsions:
REMARK  status: ('A' for Active; 'I' for Inactive)
REMARK    1  A    between atoms: C_2  and  C_3 
REMARK    2  A    between atoms: C_3  and  O_4 
REMARK    3  A    between atoms: O_4  and  C_5 
REMARK    4  A    between atoms: C_8  and  C_9 
REMARK    5  A    between atoms: C_15  and  C_16 
REMARK    6  A    between atoms: C_19  and  N_20 
REMARK       I    between atoms: N_20  and  C_21 
REMARK    7  A    between atoms: C_29  and  N_30 
ROOT
HETATM    1  C   UNL     1     -43.255  55.814 -54.139  1.00  0.00     0.072 A 
HETATM    2  N   UNL     1     -43.866  54.654 -53.709  1.00  0.00    -0.274 N 
HETATM    3  H   UNL     1     -44.463  54.036 -54.248  1.00  0.00     0.189 HD
HETATM    4  N   UNL     1     -43.617  54.340 -52.422  1.00  0.00    -0.148 NA
HETATM    5  C   UNL     1     -42.817  55.327 -52.042  1.00  0.00     0.199 A 
HETATM    6  C   UNL     1     -42.543  56.267 -53.039  1.00  0.00     0.040 A 
HETATM    7  C   UNL     1     -41.662  57.432 -52.750  1.00  0.00     0.106 A 
HETATM    8  C   UNL     1     -41.178  57.414 -51.304  1.00  0.00     0.081 A 
HETATM    9  C   UNL     1     -40.283  58.454 -50.917  1.00  0.00     0.100 C 
HETATM   10  N   UNL     1     -39.553  59.302 -50.609  1.00  0.00    -0.191 NA
HETATM   11  C   UNL     1     -41.522  56.438 -50.423  1.00  0.00     0.140 A 
HETATM   12  O   UNL     1     -42.359  55.372 -50.779  1.00  0.00    -0.277 OA
ENDROOT
BRANCH   7  13
HETATM   13  C   UNL     1     -42.449  58.688 -53.103  1.00  0.00    -0.044 A 
HETATM   14  C   UNL     1     -43.633  59.054 -52.445  1.00  0.00     0.010 A 
HETATM   15  C   UNL     1     -44.322  60.223 -52.796  1.00  0.00     0.030 A 
HETATM   16  C   UNL     1     -43.834  61.060 -53.799  1.00  0.00     0.034 A 
HETATM   17  C   UNL     1     -42.644  60.712 -54.446  1.00  0.00     0.030 A 
HETATM   18  C   UNL     1     -41.957  59.545 -54.100  1.00  0.00     0.010 A 
BRANCH  16  19
HETATM   19  N   UNL     1     -44.464  62.251 -54.214  1.00  0.00    -0.328 N 
HETATM   20  C   UNL     1     -44.126  63.548 -53.871  1.00  0.00     0.218 C 
HETATM   21  C   UNL     1     -45.029  64.561 -54.531  1.00  0.00     0.117 C 
HETATM   22  O   UNL     1     -43.205  63.906 -53.148  1.00  0.00    -0.274 OA
HETATM   23  H   UNL     1     -45.255  62.137 -54.835  1.00  0.00     0.169 HD
ENDBRANCH  16  19
ENDBRANCH   7  13
BRANCH  11  24
HETATM   24  N   UNL     1     -41.105  56.368 -49.111  1.00  0.00    -0.282 NA
HETATM   25  H   UNL     1     -40.574  55.537 -48.862  1.00  0.00     0.126 HD
HETATM   26  H   UNL     1     -40.654  57.230 -48.813  1.00  0.00     0.126 HD
ENDBRANCH  11  24
BRANCH   1  27
HETATM   27  C   UNL     1     -43.450  56.357 -55.478  1.00  0.00    -0.007 A 
HETATM   28  C   UNL     1     -44.419  57.343 -55.705  1.00  0.00     0.016 A 
HETATM   29  C   UNL     1     -44.587  57.907 -56.975  1.00  0.00     0.037 A 
HETATM   30  C   UNL     1     -43.780  57.498 -58.035  1.00  0.00     0.068 A 
HETATM   31  C   UNL     1     -42.822  56.505 -57.817  1.00  0.00     0.037 A 
HETATM   32  C   UNL     1     -42.658  55.936 -56.549  1.00  0.00     0.016 A 
BRANCH  30  33
HETATM   33  O   UNL     1     -43.822  57.986 -59.311  1.00  0.00    -0.351 OA
BRANCH  33  34
HETATM   34  C   UNL     1     -43.781  57.031 -60.372  1.00  0.00     0.175 C 
BRANCH  34  35
HETATM   35  C   UNL     1     -45.129  56.317 -60.418  1.00  0.00     0.022 C 
HETATM   36  C   UNL     1     -44.966  54.808 -60.443  1.00  0.00     0.007 C 
ENDBRANCH  34  35
ENDBRANCH  33  34
ENDBRANCH  30  33
ENDBRANCH   1  27
TORSDOF 7
ENDMDL
MODEL 10
REMARK VINA RESULT:      -6.5      2.754      6.970
REMARK  7 active torsions:
REMARK  status: ('A' for Active; 'I' for Inactive)
REMARK    1  A    between atoms: C_2  and  C_3 
REMARK    2  A    between atoms: C_3  and  O_4 
REMARK    3  A    between atoms: O_4  and  C_5 
REMARK    4  A    between atoms: C_8  and  C_9 
REMARK    5  A    between atoms: C_15  and  C_16 
REMARK    6  A    between atoms: C_19  and  N_20 
REMARK       I    between atoms: N_20  and  C_21 
REMARK    7  A    between atoms: C_29  and  N_30 
ROOT
HETATM    1  C   UNL     1     -42.998  56.063 -56.245  1.00  0.00     0.072 A 
HETATM    2  N   UNL     1     -43.325  54.783 -56.640  1.00  0.00    -0.274 N 
HETATM    3  H   UNL     1     -43.653  54.484 -57.553  1.00  0.00     0.189 HD
HETATM    4  N   UNL     1     -43.179  53.851 -55.678  1.00  0.00    -0.148 NA
HETATM    5  C   UNL     1     -42.737  54.570 -54.655  1.00  0.00     0.199 A 
HETATM    6  C   UNL     1     -42.594  55.934 -54.925  1.00  0.00     0.040 A 
HETATM    7  C   UNL     1     -42.110  56.862 -53.866  1.00  0.00     0.106 A 
HETATM    8  C   UNL     1     -41.841  56.120 -52.561  1.00  0.00     0.081 A 
HETATM    9  C   UNL     1     -41.323  56.894 -51.482  1.00  0.00     0.100 C 
HETATM   10  N   UNL     1     -40.900  57.529 -50.607  1.00  0.00    -0.191 NA
HETATM   11  C   UNL     1     -42.026  54.781 -52.423  1.00  0.00     0.140 A 
HETATM   12  O   UNL     1     -42.486  53.977 -53.475  1.00  0.00    -0.277 OA
ENDROOT
BRANCH   7  13
HETATM   13  C   UNL     1     -43.151  57.965 -53.726  1.00  0.00    -0.044 A 
HETATM   14  C   UNL     1     -42.876  59.311 -54.014  1.00  0.00     0.010 A 
HETATM   15  C   UNL     1     -43.866  60.294 -53.880  1.00  0.00     0.030 A 
HETATM   16  C   UNL     1     -45.155  59.952 -53.473  1.00  0.00     0.034 A 
HETATM   17  C   UNL     1     -45.442  58.610 -53.205  1.00  0.00     0.030 A 
HETATM   18  C   UNL     1     -44.455  57.628 -53.333  1.00  0.00     0.010 A 
BRANCH  16  19
HETATM   19  N   UNL     1     -46.208  60.876 -53.313  1.00  0.00    -0.328 N 
HETATM   20  C   UNL     1     -46.713  61.385 -52.131  1.00  0.00     0.218 C 
HETATM   21  C   UNL     1     -47.834  62.366 -52.370  1.00  0.00     0.117 C 
HETATM   22  O   UNL     1     -46.330  61.135 -50.994  1.00  0.00    -0.274 OA
HETATM   23  H   UNL     1     -46.641  61.200 -54.169  1.00  0.00     0.169 HD
ENDBRANCH  16  19
ENDBRANCH   7  13
BRANCH  11  24
HETATM   24  N   UNL     1     -41.789  54.061 -51.271  1.00  0.00    -0.282 NA
HETATM   25  H   UNL     1     -41.885  53.051 -51.356  1.00  0.00     0.126 HD
HETATM   26  H   UNL     1     -40.918  54.339 -50.825  1.00  0.00     0.126 HD
ENDBRANCH  11  24
BRANCH   1  27
HETATM   27  C   UNL     1     -43.147  57.220 -57.120  1.00  0.00    -0.007 A 
HETATM   28  C   UNL     1     -44.352  57.935 -57.145  1.00  0.00     0.016 A 
HETATM   29  C   UNL     1     -44.496  59.074 -57.946  1.00  0.00     0.037 A 
HETATM   30  C   UNL     1     -43.431  59.519 -58.727  1.00  0.00     0.068 A 
HETATM   31  C   UNL     1     -42.233  58.802 -58.716  1.00  0.00     0.037 A 
HETATM   32  C   UNL     1     -42.090  57.659 -57.922  1.00  0.00     0.016 A 
BRANCH  30  33
HETATM   33  O   UNL     1     -43.431  60.628 -59.527  1.00  0.00    -0.351 OA
BRANCH  33  34
HETATM   34  C   UNL     1     -43.044  61.863 -58.922  1.00  0.00     0.175 C 
BRANCH  34  35
HETATM   35  C   UNL     1     -41.735  62.313 -59.562  1.00  0.00     0.022 C 
HETATM   36  C   UNL     1     -40.551  62.093 -58.637  1.00  0.00     0.007 C 
ENDBRANCH  34  35
ENDBRANCH  33  34
ENDBRANCH  30  33
ENDBRANCH   1  27
TORSDOF 7
ENDMDL
