MODEL 1
REMARK VINA RESULT:      -7.2      0.000      0.000
REMARK  5 active torsions:
REMARK  status: ('A' for Active; 'I' for Inactive)
REMARK    1  A    between atoms: C_2  and  C_3 
REMARK    2  A    between atoms: C_7  and  C_8 
REMARK       I    between atoms: C_8  and  N_9 
REMARK    3  A    between atoms: N_9  and  C_10 
REMARK    4  A    between atoms: C_15  and  N_16 
REMARK       I    between atoms: N_16  and  C_17 
REMARK    5  A    between atoms: C_17  and  C_18 
ROOT
HETATM    1  C   UNL     1     -42.158  55.352 -55.238  1.00  0.00     0.059 A 
HETATM    2  C   UNL     1     -41.962  56.692 -54.863  1.00  0.00     0.060 A 
HETATM    3 CL   UNL     1     -40.864  57.196 -53.624  1.00  0.00    -0.082 Cl
HETATM    4  C   UNL     1     -42.535  57.716 -55.625  1.00  0.00     0.028 A 
HETATM    5  C   UNL     1     -43.264  57.428 -56.781  1.00  0.00     0.031 A 
HETATM    6  C   UNL     1     -43.413  56.111 -57.208  1.00  0.00     0.036 A 
HETATM    7  C   UNL     1     -42.857  55.082 -56.431  1.00  0.00     0.060 A 
ENDROOT
BRANCH   1   8
HETATM    8  N   UNL     1     -41.651  54.222 -54.549  1.00  0.00    -0.320 N 
HETATM    9  C   UNL     1     -40.371  53.713 -54.658  1.00  0.00     0.274 C 
HETATM   10  O   UNL     1     -39.441  54.274 -55.225  1.00  0.00    -0.266 OA
HETATM   11  H   UNL     1     -42.167  53.916 -53.737  1.00  0.00     0.169 HD
BRANCH   9  12
HETATM   12  C   UNL     1     -40.165  52.470 -53.955  1.00  0.00     0.120 A 
HETATM   13  N   UNL     1     -40.244  51.267 -54.606  1.00  0.00    -0.273 N 
HETATM   14  N   UNL     1     -40.024  50.202 -53.820  1.00  0.00    -0.179 NA
HETATM   15  H   UNL     1     -40.449  51.122 -55.591  1.00  0.00     0.189 HD
HETATM   16  C   UNL     1     -39.813  50.726 -52.608  1.00  0.00     0.056 A 
HETATM   17  C   UNL     1     -39.895  52.142 -52.640  1.00  0.00     0.065 A 
BRANCH  16  18
HETATM   18  C   UNL     1     -39.533  49.875 -51.409  1.00  0.00     0.056 C 
HETATM   19  C   UNL     1     -40.178  50.344 -50.113  1.00  0.00     0.011 C 
ENDBRANCH  16  18
ENDBRANCH   9  12
ENDBRANCH   1   8
BRANCH   6  20
HETATM   20  N   UNL     1     -44.085  55.738 -58.392  1.00  0.00    -0.327 N 
HETATM   21  C   UNL     1     -43.551  55.644 -59.667  1.00  0.00     0.221 C 
HETATM   22  O   UNL     1     -42.398  55.896 -60.000  1.00  0.00    -0.273 OA
HETATM   23  H   UNL     1     -45.059  55.482 -58.293  1.00  0.00     0.169 HD
BRANCH  21  24
HETATM   24  C   UNL     1     -44.564  55.166 -60.692  1.00  0.00     0.098 C 
HETATM   25  C   UNL     1     -45.961  55.660 -60.370  1.00  0.00     0.014 C 
ENDBRANCH  21  24
ENDBRANCH   6  20
TORSDOF 5
ENDMDL
MODEL 2
REMARK VINA RESULT:      -7.0      1.355      1.444
REMARK  5 active torsions:
REMARK  status: ('A' for Active; 'I' for Inactive)
REMARK    1  A    between atoms: C_2  and  C_3 
REMARK    2  A    between atoms: C_7  and  C_8 
REMARK       I    between atoms: C_8  and  N_9 
REMARK    3  A    between atoms: N_9  and  C_10 
REMARK    4  A    between atoms: C_15  and  N_16 
REMARK       I    between atoms: N_16  and  C_17 
REMARK    5  A    between atoms: C_17  and  C_18 
ROOT
HETATM    1  C   UNL     1     -42.126  56.228 -55.019  1.00  0.00     0.059 A 
HETATM    2  C   UNL     1     -41.951  57.621 -54.952  1.00  0.00     0.060 A 
HETATM    3 CL   UNL     1     -40.889  58.407 -53.832  1.00  0.00    -0.082 Cl
HETATM    4  C   UNL     1     -42.511  58.440 -55.938  1.00  0.00     0.028 A 
HETATM    5  C   UNL     1     -43.208  57.888 -57.016  1.00  0.00     0.031 A 
HETATM    6  C   UNL     1     -43.335  56.508 -57.138  1.00  0.00     0.036 A 
HETATM    7  C   UNL     1     -42.792  55.687 -56.136  1.00  0.00     0.060 A 
ENDROOT
BRANCH   1   8
HETATM    8  N   UNL     1     -41.629  55.290 -54.081  1.00  0.00    -0.320 N 
HETATM    9  C   UNL     1     -40.556  54.440 -54.276  1.00  0.00     0.274 C 
HETATM   10  O   UNL     1     -39.773  54.506 -55.215  1.00  0.00    -0.266 OA
HETATM   11  H   UNL     1     -41.905  55.419 -53.118  1.00  0.00     0.169 HD
BRANCH   9  12
HETATM   12  C   UNL     1     -40.354  53.487 -53.211  1.00  0.00     0.120 A 
HETATM   13  N   UNL     1     -40.605  53.819 -51.906  1.00  0.00    -0.273 N 
HETATM   14  N   UNL     1     -40.374  52.826 -51.033  1.00  0.00    -0.179 NA
HETATM   15  H   UNL     1     -40.935  54.716 -51.560  1.00  0.00     0.189 HD
HETATM   16  C   UNL     1     -39.938  51.816 -51.793  1.00  0.00     0.056 A 
HETATM   17  C   UNL     1     -39.904  52.182 -53.163  1.00  0.00     0.065 A 
BRANCH  16  18
HETATM   18  C   UNL     1     -39.550  50.493 -51.211  1.00  0.00     0.056 C 
HETATM   19  C   UNL     1     -39.602  49.318 -52.178  1.00  0.00     0.011 C 
ENDBRANCH  16  18
ENDBRANCH   9  12
ENDBRANCH   1   8
BRANCH   6  20
HETATM   20  N   UNL     1     -43.974  55.868 -58.223  1.00  0.00    -0.327 N 
HETATM   21  C   UNL     1     -43.461  55.655 -59.492  1.00  0.00     0.221 C 
HETATM   22  O   UNL     1     -42.364  56.010 -59.910  1.00  0.00    -0.273 OA
HETATM   23  H   UNL     1     -44.898  55.497 -58.045  1.00  0.00     0.169 HD
BRANCH  21  24
HETATM   24  C   UNL     1     -44.417  54.890 -60.389  1.00  0.00     0.098 C 
HETATM   25  C   UNL     1     -45.776  55.560 -60.459  1.00  0.00     0.014 C 
ENDBRANCH  21  24
ENDBRANCH   6  20
TORSDOF 5
ENDMDL
MODEL 3
REMARK VINA RESULT:      -6.9      2.515      7.803
REMARK  5 active torsions:
REMARK  status: ('A' for Active; 'I' for Inactive)
REMARK    1  A    between atoms: C_2  and  C_3 
REMARK    2  A    between atoms: C_7  and  C_8 
REMARK       I    between atoms: C_8  and  N_9 
REMARK    3  A    between atoms: N_9  and  C_10 
REMARK    4  A    between atoms: C_15  and  N_16 
REMARK       I    between atoms: N_16  and  C_17 
REMARK    5  A    between atoms: C_17  and  C_18 
ROOT
HETATM    1  C   UNL     1     -41.270  55.617 -54.735  1.00  0.00     0.059 A 
HETATM    2  C   UNL     1     -41.495  56.240 -53.496  1.00  0.00     0.060 A 
HETATM    3 CL   UNL     1     -42.208  57.808 -53.320  1.00  0.00    -0.082 Cl
HETATM    4  C   UNL     1     -41.310  55.518 -52.312  1.00  0.00     0.028 A 
HETATM    5  C   UNL     1     -40.945  54.169 -52.345  1.00  0.00     0.031 A 
HETATM    6  C   UNL     1     -40.783  53.515 -53.562  1.00  0.00     0.036 A 
HETATM    7  C   UNL     1     -40.947  54.246 -54.750  1.00  0.00     0.060 A 
ENDROOT
BRANCH   1   8
HETATM    8  N   UNL     1     -41.403  56.235 -56.003  1.00  0.00    -0.320 N 
HETATM    9  C   UNL     1     -42.590  56.454 -56.677  1.00  0.00     0.274 C 
HETATM   10  O   UNL     1     -43.706  56.311 -56.193  1.00  0.00    -0.266 OA
HETATM   11  H   UNL     1     -40.618  56.780 -56.328  1.00  0.00     0.169 HD
BRANCH   9  12
HETATM   12  C   UNL     1     -42.426  56.972 -58.014  1.00  0.00     0.120 A 
HETATM   13  N   UNL     1     -42.501  56.147 -59.106  1.00  0.00    -0.273 N 
HETATM   14  N   UNL     1     -42.332  56.775 -60.280  1.00  0.00    -0.179 NA
HETATM   15  H   UNL     1     -42.664  55.144 -59.100  1.00  0.00     0.189 HD
HETATM   16  C   UNL     1     -42.120  58.051 -59.942  1.00  0.00     0.056 A 
HETATM   17  C   UNL     1     -42.165  58.224 -58.535  1.00  0.00     0.065 A 
BRANCH  16  18
HETATM   18  C   UNL     1     -41.872  59.115 -60.966  1.00  0.00     0.056 C 
HETATM   19  C   UNL     1     -41.972  60.545 -60.454  1.00  0.00     0.011 C 
ENDBRANCH  16  18
ENDBRANCH   9  12
ENDBRANCH   1   8
BRANCH   6  20
HETATM   20  N   UNL     1     -40.470  52.143 -53.683  1.00  0.00    -0.327 N 
HETATM   21  C   UNL     1     -39.684  51.382 -52.834  1.00  0.00     0.221 C 
HETATM   22  O   UNL     1     -39.093  51.773 -51.834  1.00  0.00    -0.273 OA
HETATM   23  H   UNL     1     -40.894  51.654 -54.462  1.00  0.00     0.169 HD
BRANCH  21  24
HETATM   24  C   UNL     1     -39.608  49.926 -53.255  1.00  0.00     0.098 C 
HETATM   25  C   UNL     1     -39.871  49.757 -54.739  1.00  0.00     0.014 C 
ENDBRANCH  21  24
ENDBRANCH   6  20
TORSDOF 5
ENDMDL
MODEL 4
REMARK VINA RESULT:      -6.8      2.672      7.928
REMARK  5 active torsions:
REMARK  status: ('A' for Active; 'I' for Inactive)
REMARK    1  A    between atoms: C_2  and  C_3 
REMARK    2  A    between atoms: C_7  and  C_8 
REMARK       I    between atoms: C_8  and  N_9 
REMARK    3  A    between atoms: N_9  and  C_10 
REMARK    4  A    between atoms: C_15  and  N_16 
REMARK       I    between atoms: N_16  and  C_17 
REMARK    5  A    between atoms: C_17  and  C_18 
ROOT
HETATM    1  C   UNL     1     -41.174  55.282 -52.676  1.00  0.00     0.059 A 
HETATM    2  C   UNL     1     -41.324  55.955 -51.451  1.00  0.00     0.060 A 
HETATM    3 CL   UNL     1     -42.223  57.422 -51.262  1.00  0.00    -0.082 Cl
HETATM    4  C   UNL     1     -40.886  55.350 -50.268  1.00  0.00     0.028 A 
HETATM    5  C   UNL     1     -40.341  54.064 -50.280  1.00  0.00     0.031 A 
HETATM    6  C   UNL     1     -40.246  53.352 -51.472  1.00  0.00     0.036 A 
HETATM    7  C   UNL     1     -40.664  53.969 -52.663  1.00  0.00     0.060 A 
ENDROOT
BRANCH   1   8
HETATM    8  N   UNL     1     -41.555  55.784 -53.944  1.00  0.00    -0.320 N 
HETATM    9  C   UNL     1     -42.727  55.487 -54.615  1.00  0.00     0.274 C 
HETATM   10  O   UNL     1     -43.680  54.892 -54.128  1.00  0.00    -0.266 OA
HETATM   11  H   UNL     1     -41.070  56.607 -54.272  1.00  0.00     0.169 HD
BRANCH   9  12
HETATM   12  C   UNL     1     -42.797  56.022 -55.953  1.00  0.00     0.120 A 
HETATM   13  N   UNL     1     -43.278  55.270 -56.992  1.00  0.00    -0.273 N 
HETATM   14  N   UNL     1     -43.284  55.906 -58.173  1.00  0.00    -0.179 NA
HETATM   15  H   UNL     1     -43.612  54.311 -56.944  1.00  0.00     0.189 HD
HETATM   16  C   UNL     1     -42.772  57.111 -57.900  1.00  0.00     0.056 A 
HETATM   17  C   UNL     1     -42.447  57.230 -56.525  1.00  0.00     0.065 A 
BRANCH  16  18
HETATM   18  C   UNL     1     -42.588  58.156 -58.956  1.00  0.00     0.056 C 
HETATM   19  C   UNL     1     -42.028  57.652 -60.278  1.00  0.00     0.011 C 
ENDBRANCH  16  18
ENDBRANCH   9  12
ENDBRANCH   1   8
BRANCH   6  20
HETATM   20  N   UNL     1     -39.760  52.029 -51.563  1.00  0.00    -0.327 N 
HETATM   21  C   UNL     1     -39.978  50.991 -50.673  1.00  0.00     0.221 C 
HETATM   22  O   UNL     1     -40.615  51.044 -49.626  1.00  0.00    -0.273 OA
HETATM   23  H   UNL     1     -39.216  51.807 -52.387  1.00  0.00     0.169 HD
BRANCH  21  24
HETATM   24  C   UNL     1     -39.337  49.691 -51.121  1.00  0.00     0.098 C 
HETATM   25  C   UNL     1     -39.607  49.409 -52.586  1.00  0.00     0.014 C 
ENDBRANCH  21  24
ENDBRANCH   6  20
TORSDOF 5
ENDMDL
MODEL 5
REMARK VINA RESULT:      -6.7      2.899      3.364
REMARK  5 active torsions:
REMARK  status: ('A' for Active; 'I' for Inactive)
REMARK    1  A    between atoms: C_2  and  C_3 
REMARK    2  A    between atoms: C_7  and  C_8 
REMARK       I    between atoms: C_8  and  N_9 
REMARK    3  A    between atoms: N_9  and  C_10 
REMARK    4  A    between atoms: C_15  and  N_16 
REMARK       I    between atoms: N_16  and  C_17 
REMARK    5  A    between atoms: C_17  and  C_18 
ROOT
HETATM    1  C   UNL     1     -43.328  56.811 -53.601  1.00  0.00     0.059 A 
HETATM    2  C   UNL     1     -43.185  57.951 -52.792  1.00  0.00     0.060 A 
HETATM    3 CL   UNL     1     -41.854  58.209 -51.716  1.00  0.00    -0.082 Cl
HETATM    4  C   UNL     1     -44.051  59.036 -52.962  1.00  0.00     0.028 A 
HETATM    5  C   UNL     1     -45.030  59.022 -53.958  1.00  0.00     0.031 A 
HETATM    6  C   UNL     1     -45.145  57.931 -54.815  1.00  0.00     0.036 A 
HETATM    7  C   UNL     1     -44.291  56.832 -54.629  1.00  0.00     0.060 A 
ENDROOT
BRANCH   1   8
HETATM    8  N   UNL     1     -42.534  55.640 -53.522  1.00  0.00    -0.320 N 
HETATM    9  C   UNL     1     -42.598  54.684 -52.526  1.00  0.00     0.274 C 
HETATM   10  O   UNL     1     -43.472  54.621 -51.671  1.00  0.00    -0.266 OA
HETATM   11  H   UNL     1     -42.071  55.347 -54.370  1.00  0.00     0.169 HD
BRANCH   9  12
HETATM   12  C   UNL     1     -41.576  53.667 -52.614  1.00  0.00     0.120 A 
HETATM   13  N   UNL     1     -40.845  53.303 -51.515  1.00  0.00    -0.273 N 
HETATM   14  N   UNL     1     -39.938  52.343 -51.753  1.00  0.00    -0.179 NA
HETATM   15  H   UNL     1     -40.928  53.684 -50.576  1.00  0.00     0.189 HD
HETATM   16  C   UNL     1     -40.068  52.086 -53.059  1.00  0.00     0.056 A 
HETATM   17  C   UNL     1     -41.078  52.892 -53.642  1.00  0.00     0.065 A 
BRANCH  16  18
HETATM   18  C   UNL     1     -39.223  51.066 -53.757  1.00  0.00     0.056 C 
HETATM   19  C   UNL     1     -39.992  49.938 -54.431  1.00  0.00     0.011 C 
ENDBRANCH  16  18
ENDBRANCH   9  12
ENDBRANCH   1   8
BRANCH   6  20
HETATM   20  N   UNL     1     -46.069  57.861 -55.881  1.00  0.00    -0.327 N 
HETATM   21  C   UNL     1     -45.919  58.375 -57.159  1.00  0.00     0.221 C 
HETATM   22  O   UNL     1     -44.962  59.011 -57.586  1.00  0.00    -0.273 OA
HETATM   23  H   UNL     1     -46.924  57.351 -55.700  1.00  0.00     0.169 HD
BRANCH  21  24
HETATM   24  C   UNL     1     -47.103  58.067 -58.057  1.00  0.00     0.098 C 
HETATM   25  C   UNL     1     -46.702  57.194 -59.230  1.00  0.00     0.014 C 
ENDBRANCH  21  24
ENDBRANCH   6  20
TORSDOF 5
ENDMDL
MODEL 6
REMARK VINA RESULT:      -6.7      1.942      7.967
REMARK  5 active torsions:
REMARK  status: ('A' for Active; 'I' for Inactive)
REMARK    1  A    between atoms: C_2  and  C_3 
REMARK    2  A    between atoms: C_7  and  C_8 
REMARK       I    between atoms: C_8  and  N_9 
REMARK    3  A    between atoms: N_9  and  C_10 
REMARK    4  A    between atoms: C_15  and  N_16 
REMARK       I    between atoms: N_16  and  C_17 
REMARK    5  A    between atoms: C_17  and  C_18 
ROOT
HETATM    1  C   UNL     1     -42.560  55.807 -55.924  1.00  0.00     0.059 A 
HETATM    2  C   UNL     1     -42.402  56.904 -55.061  1.00  0.00     0.060 A 
HETATM    3 CL   UNL     1     -43.463  58.271 -55.035  1.00  0.00    -0.082 Cl
HETATM    4  C   UNL     1     -41.453  56.849 -54.034  1.00  0.00     0.028 A 
HETATM    5  C   UNL     1     -40.688  55.698 -53.826  1.00  0.00     0.031 A 
HETATM    6  C   UNL     1     -40.876  54.576 -54.627  1.00  0.00     0.036 A 
HETATM    7  C   UNL     1     -41.813  54.639 -55.672  1.00  0.00     0.060 A 
ENDROOT
BRANCH   1   8
HETATM    8  N   UNL     1     -43.467  55.737 -57.011  1.00  0.00    -0.320 N 
HETATM    9  C   UNL     1     -43.403  56.490 -58.169  1.00  0.00     0.274 C 
HETATM   10  O   UNL     1     -42.453  57.190 -58.497  1.00  0.00    -0.266 OA
HETATM   11  H   UNL     1     -44.049  54.915 -57.065  1.00  0.00     0.169 HD
BRANCH   9  12
HETATM   12  C   UNL     1     -44.535  56.322 -59.048  1.00  0.00     0.120 A 
HETATM   13  N   UNL     1     -44.816  55.108 -59.616  1.00  0.00    -0.273 N 
HETATM   14  N   UNL     1     -45.901  55.109 -60.405  1.00  0.00    -0.179 NA
HETATM   15  H   UNL     1     -44.292  54.245 -59.496  1.00  0.00     0.189 HD
HETATM   16  C   UNL     1     -46.334  56.373 -60.366  1.00  0.00     0.056 A 
HETATM   17  C   UNL     1     -45.509  57.172 -59.534  1.00  0.00     0.065 A 
BRANCH  16  18
HETATM   18  C   UNL     1     -47.540  56.826 -61.128  1.00  0.00     0.056 C 
HETATM   19  C   UNL     1     -47.679  58.333 -61.288  1.00  0.00     0.011 C 
ENDBRANCH  16  18
ENDBRANCH   9  12
ENDBRANCH   1   8
BRANCH   6  20
HETATM   20  N   UNL     1     -40.186  53.356 -54.449  1.00  0.00    -0.327 N 
HETATM   21  C   UNL     1     -40.195  52.542 -53.328  1.00  0.00     0.221 C 
HETATM   22  O   UNL     1     -40.786  52.751 -52.274  1.00  0.00    -0.273 OA
HETATM   23  H   UNL     1     -39.649  53.025 -55.240  1.00  0.00     0.169 HD
BRANCH  21  24
HETATM   24  C   UNL     1     -39.370  51.282 -53.514  1.00  0.00     0.098 C 
HETATM   25  C   UNL     1     -40.094  50.260 -54.369  1.00  0.00     0.014 C 
ENDBRANCH  21  24
ENDBRANCH   6  20
TORSDOF 5
ENDMDL
MODEL 7
REMARK VINA RESULT:      -6.5      2.215      2.652
REMARK  5 active torsions:
REMARK  status: ('A' for Active; 'I' for Inactive)
REMARK    1  A    between atoms: C_2  and  C_3 
REMARK    2  A    between atoms: C_7  and  C_8 
REMARK       I    between atoms: C_8  and  N_9 
REMARK    3  A    between atoms: N_9  and  C_10 
REMARK    4  A    between atoms: C_15  and  N_16 
REMARK       I    between atoms: N_16  and  C_17 
REMARK    5  A    between atoms: C_17  and  C_18 
ROOT
HETATM    1  C   UNL     1     -43.406  56.192 -54.497  1.00  0.00     0.059 A 
HETATM    2  C   UNL     1     -44.278  57.009 -53.758  1.00  0.00     0.060 A 
HETATM    3 CL   UNL     1     -44.410  56.966 -52.032  1.00  0.00    -0.082 Cl
HETATM    4  C   UNL     1     -44.967  58.046 -54.396  1.00  0.00     0.028 A 
HETATM    5  C   UNL     1     -44.766  58.311 -55.753  1.00  0.00     0.031 A 
HETATM    6  C   UNL     1     -43.856  57.557 -56.489  1.00  0.00     0.036 A 
HETATM    7  C   UNL     1     -43.182  56.502 -55.853  1.00  0.00     0.060 A 
ENDROOT
BRANCH   1   8
HETATM    8  N   UNL     1     -42.664  55.101 -53.981  1.00  0.00    -0.320 N 
HETATM    9  C   UNL     1     -41.469  55.188 -53.292  1.00  0.00     0.274 C 
HETATM   10  O   UNL     1     -40.976  56.229 -52.873  1.00  0.00    -0.266 OA
HETATM   11  H   UNL     1     -43.154  54.224 -53.881  1.00  0.00     0.169 HD
BRANCH   9  12
HETATM   12  C   UNL     1     -40.855  53.914 -53.006  1.00  0.00     0.120 A 
HETATM   13  N   UNL     1     -40.246  53.676 -51.802  1.00  0.00    -0.273 N 
HETATM   14  N   UNL     1     -39.726  52.444 -51.684  1.00  0.00    -0.179 NA
HETATM   15  H   UNL     1     -40.157  54.327 -51.027  1.00  0.00     0.189 HD
HETATM   16  C   UNL     1     -39.988  51.863 -52.859  1.00  0.00     0.056 A 
HETATM   17  C   UNL     1     -40.689  52.744 -53.722  1.00  0.00     0.065 A 
BRANCH  16  18
HETATM   18  C   UNL     1     -39.568  50.460 -53.165  1.00  0.00     0.056 C 
HETATM   19  C   UNL     1     -40.000  49.934 -54.527  1.00  0.00     0.011 C 
ENDBRANCH  16  18
ENDBRANCH   9  12
ENDBRANCH   1   8
BRANCH   6  20
HETATM   20  N   UNL     1     -43.553  57.794 -57.848  1.00  0.00    -0.327 N 
HETATM   21  C   UNL     1     -43.734  56.927 -58.913  1.00  0.00     0.221 C 
HETATM   22  O   UNL     1     -44.167  55.781 -58.860  1.00  0.00    -0.273 OA
HETATM   23  H   UNL     1     -43.192  58.712 -58.073  1.00  0.00     0.169 HD
BRANCH  21  24
HETATM   24  C   UNL     1     -43.338  57.542 -60.242  1.00  0.00     0.098 C 
HETATM   25  C   UNL     1     -41.869  57.916 -60.270  1.00  0.00     0.014 C 
ENDBRANCH  21  24
ENDBRANCH   6  20
TORSDOF 5
ENDMDL
MODEL 8
REMARK VINA RESULT:      -6.4      4.620      6.807
REMARK  5 active torsions:
REMARK  status: ('A' for Active; 'I' for Inactive)
REMARK    1  A    between atoms: C_2  and  C_3 
REMARK    2  A    between atoms: C_7  and  C_8 
REMARK       I    between atoms: C_8  and  N_9 
REMARK    3  A    between atoms: N_9  and  C_10 
REMARK    4  A    between atoms: C_15  and  N_16 
REMARK       I    between atoms: N_16  and  C_17 
REMARK    5  A    between atoms: C_17  and  C_18 
ROOT
HETATM    1  C   UNL     1     -43.396  55.687 -53.225  1.00  0.00     0.059 A 
HETATM    2  C   UNL     1     -42.597  54.669 -52.677  1.00  0.00     0.060 A 
HETATM    3 CL   UNL     1     -42.460  54.358 -50.980  1.00  0.00    -0.082 Cl
HETATM    4  C   UNL     1     -42.001  53.725 -53.520  1.00  0.00     0.028 A 
HETATM    5  C   UNL     1     -42.226  53.752 -54.898  1.00  0.00     0.031 A 
HETATM    6  C   UNL     1     -43.069  54.710 -55.454  1.00  0.00     0.036 A 
HETATM    7  C   UNL     1     -43.648  55.671 -54.610  1.00  0.00     0.060 A 
ENDROOT
BRANCH   1   8
HETATM    8  N   UNL     1     -44.041  56.713 -52.490  1.00  0.00    -0.320 N 
HETATM    9  C   UNL     1     -43.530  57.972 -52.239  1.00  0.00     0.274 C 
HETATM   10  O   UNL     1     -42.530  58.441 -52.768  1.00  0.00    -0.266 OA
HETATM   11  H   UNL     1     -45.037  56.618 -52.356  1.00  0.00     0.169 HD
BRANCH   9  12
HETATM   12  C   UNL     1     -44.333  58.770 -51.343  1.00  0.00     0.120 A 
HETATM   13  N   UNL     1     -45.541  58.316 -50.882  1.00  0.00    -0.273 N 
HETATM   14  N   UNL     1     -46.167  59.167 -50.055  1.00  0.00    -0.179 NA
HETATM   15  H   UNL     1     -45.983  57.429 -51.106  1.00  0.00     0.189 HD
HETATM   16  C   UNL     1     -45.349  60.223 -49.989  1.00  0.00     0.056 A 
HETATM   17  C   UNL     1     -44.190  60.023 -50.781  1.00  0.00     0.065 A 
BRANCH  16  18
HETATM   18  C   UNL     1     -45.672  61.431 -49.166  1.00  0.00     0.056 C 
HETATM   19  C   UNL     1     -44.820  61.614 -47.918  1.00  0.00     0.011 C 
ENDBRANCH  16  18
ENDBRANCH   9  12
ENDBRANCH   1   8
BRANCH   6  20
HETATM   20  N   UNL     1     -43.393  54.773 -56.827  1.00  0.00    -0.327 N 
HETATM   21  C   UNL     1     -43.069  55.779 -57.722  1.00  0.00     0.221 C 
HETATM   22  O   UNL     1     -42.462  56.815 -57.473  1.00  0.00    -0.273 OA
HETATM   23  H   UNL     1     -43.892  53.978 -57.207  1.00  0.00     0.169 HD
BRANCH  21  24
HETATM   24  C   UNL     1     -43.544  55.484 -59.133  1.00  0.00     0.098 C 
HETATM   25  C   UNL     1     -43.438  56.706 -60.026  1.00  0.00     0.014 C 
ENDBRANCH  21  24
ENDBRANCH   6  20
TORSDOF 5
ENDMDL
MODEL 9
REMARK VINA RESULT:      -6.3      3.247      8.045
REMARK  5 active torsions:
REMARK  status: ('A' for Active; 'I' for Inactive)
REMARK    1  A    between atoms: C_2  and  C_3 
REMARK    2  A    between atoms: C_7  and  C_8 
REMARK       I    between atoms: C_8  and  N_9 
REMARK    3  A    between atoms: N_9  and  C_10 
REMARK    4  A    between atoms: C_15  and  N_16 
REMARK       I    between atoms: N_16  and  C_17 
REMARK    5  A    between atoms: C_17  and  C_18 
ROOT
HETATM    1  C   UNL     1     -42.480  56.326 -54.009  1.00  0.00     0.059 A 
HETATM    2  C   UNL     1     -43.230  56.350 -52.821  1.00  0.00     0.060 A 
HETATM    3 CL   UNL     1     -44.265  57.660 -52.361  1.00  0.00    -0.082 Cl
HETATM    4  C   UNL     1     -43.309  55.202 -52.026  1.00  0.00     0.028 A 
HETATM    5  C   UNL     1     -42.687  54.015 -52.419  1.00  0.00     0.031 A 
HETATM    6  C   UNL     1     -41.996  53.949 -53.625  1.00  0.00     0.036 A 
HETATM    7  C   UNL     1     -41.898  55.108 -54.412  1.00  0.00     0.060 A 
ENDROOT
BRANCH   1   8
HETATM    8  N   UNL     1     -42.304  57.418 -54.894  1.00  0.00    -0.320 N 
HETATM    9  C   UNL     1     -42.874  57.546 -56.147  1.00  0.00     0.274 C 
HETATM   10  O   UNL     1     -43.754  56.820 -56.594  1.00  0.00    -0.266 OA
HETATM   11  H   UNL     1     -41.950  58.275 -54.495  1.00  0.00     0.169 HD
BRANCH   9  12
HETATM   12  C   UNL     1     -42.412  58.690 -56.895  1.00  0.00     0.120 A 
HETATM   13  N   UNL     1     -41.927  59.803 -56.259  1.00  0.00    -0.273 N 
HETATM   14  N   UNL     1     -41.532  60.781 -57.088  1.00  0.00    -0.179 NA
HETATM   15  H   UNL     1     -41.848  59.942 -55.255  1.00  0.00     0.189 HD
HETATM   16  C   UNL     1     -41.786  60.298 -58.309  1.00  0.00     0.056 A 
HETATM   17  C   UNL     1     -42.341  58.995 -58.240  1.00  0.00     0.065 A 
BRANCH  16  18
HETATM   18  C   UNL     1     -41.500  61.084 -59.551  1.00  0.00     0.056 C 
HETATM   19  C   UNL     1     -40.558  62.266 -59.369  1.00  0.00     0.011 C 
ENDBRANCH  16  18
ENDBRANCH   9  12
ENDBRANCH   1   8
BRANCH   6  20
HETATM   20  N   UNL     1     -41.388  52.775 -54.122  1.00  0.00    -0.327 N 
HETATM   21  C   UNL     1     -40.335  52.071 -53.560  1.00  0.00     0.221 C 
HETATM   22  O   UNL     1     -39.722  52.361 -52.538  1.00  0.00    -0.273 OA
HETATM   23  H   UNL     1     -41.786  52.387 -54.967  1.00  0.00     0.169 HD
BRANCH  21  24
HETATM   24  C   UNL     1     -39.975  50.827 -54.349  1.00  0.00     0.098 C 
HETATM   25  C   UNL     1     -39.645  49.661 -53.436  1.00  0.00     0.014 C 
ENDBRANCH  21  24
ENDBRANCH   6  20
TORSDOF 5
ENDMDL
MODEL 10
REMARK VINA RESULT:      -6.3      3.831      4.325
REMARK  5 active torsions:
REMARK  status: ('A' for Active; 'I' for Inactive)
REMARK    1  A    between atoms: C_2  and  C_3 
REMARK    2  A    between atoms: C_7  and  C_8 
REMARK       I    between atoms: C_8  and  N_9 
REMARK    3  A    between atoms: N_9  and  C_10 
REMARK    4  A    between atoms: C_15  and  N_16 
REMARK       I    between atoms: N_16  and  C_17 
REMARK    5  A    between atoms: C_17  and  C_18 
ROOT
HETATM    1  C   UNL     1     -41.437  57.606 -53.106  1.00  0.00     0.059 A 
HETATM    2  C   UNL     1     -41.615  58.228 -51.859  1.00  0.00     0.060 A 
HETATM    3 CL   UNL     1     -41.194  57.495 -50.348  1.00  0.00    -0.082 Cl
HETATM    4  C   UNL     1     -41.985  59.575 -51.801  1.00  0.00     0.028 A 
HETATM    5  C   UNL     1     -42.138  60.327 -52.969  1.00  0.00     0.031 A 
HETATM    6  C   UNL     1     -41.901  59.749 -54.213  1.00  0.00     0.036 A 
HETATM    7  C   UNL     1     -41.551  58.390 -54.271  1.00  0.00     0.060 A 
ENDROOT
BRANCH   1   8
HETATM    8  N   UNL     1     -41.081  56.249 -53.307  1.00  0.00    -0.320 N 
HETATM    9  C   UNL     1     -41.922  55.162 -53.165  1.00  0.00     0.274 C 
HETATM   10  O   UNL     1     -43.137  55.230 -53.024  1.00  0.00    -0.266 OA
HETATM   11  H   UNL     1     -40.237  56.073 -53.832  1.00  0.00     0.169 HD
BRANCH   9  12
HETATM   12  C   UNL     1     -41.264  53.883 -53.289  1.00  0.00     0.120 A 
HETATM   13  N   UNL     1     -40.419  53.424 -52.314  1.00  0.00    -0.273 N 
HETATM   14  N   UNL     1     -39.888  52.219 -52.570  1.00  0.00    -0.179 NA
HETATM   15  H   UNL     1     -40.171  53.902 -51.451  1.00  0.00     0.189 HD
HETATM   16  C   UNL     1     -40.389  51.887 -53.765  1.00  0.00     0.056 A 
HETATM   17  C   UNL     1     -41.252  52.899 -54.258  1.00  0.00     0.065 A 
BRANCH  16  18
HETATM   18  C   UNL     1     -40.042  50.599 -54.443  1.00  0.00     0.056 C 
HETATM   19  C   UNL     1     -39.498  49.509 -53.529  1.00  0.00     0.011 C 
ENDBRANCH  16  18
ENDBRANCH   9  12
ENDBRANCH   1   8
BRANCH   6  20
HETATM   20  N   UNL     1     -41.979  60.452 -55.435  1.00  0.00    -0.327 N 
HETATM   21  C   UNL     1     -43.055  60.507 -56.306  1.00  0.00     0.221 C 
HETATM   22  O   UNL     1     -44.130  59.929 -56.181  1.00  0.00    -0.273 OA
HETATM   23  H   UNL     1     -41.168  61.001 -55.689  1.00  0.00     0.169 HD
BRANCH  21  24
HETATM   24  C   UNL     1     -42.795  61.402 -57.503  1.00  0.00     0.098 C 
HETATM   25  C   UNL     1     -41.430  61.141 -58.110  1.00  0.00     0.014 C 
ENDBRANCH  21  24
ENDBRANCH   6  20
TORSDOF 5
ENDMDL
