MODEL 1
REMARK VINA RESULT:      -8.8      0.000      0.000
REMARK  7 active torsions:
REMARK  status: ('A' for Active; 'I' for Inactive)
REMARK    1  A    between atoms: O_2  and  C_3 
REMARK    2  A    between atoms: C_4  and  C_5 
REMARK    3  A    between atoms: C_5  and  N_6 
REMARK    4  A    between atoms: C_5  and  C_12 
REMARK    5  A    between atoms: C_12  and  N_13 
REMARK       I    between atoms: N_13  and  C_14 
REMARK       I    between atoms: C_14  and  N_15 
REMARK    6  A    between atoms: N_15  and  C_16 
REMARK    7  A    between atoms: C_17  and  O_18 
ROOT
HETATM    1  N   UNL     1     -42.603  55.310 -55.720  1.00  0.00    -0.341 N 
HETATM    2  C   UNL     1     -42.681  55.837 -56.983  1.00  0.00     0.316 C 
HETATM    3  N   UNL     1     -43.640  55.231 -57.735  1.00  0.00    -0.332 N 
HETATM    4  O   UNL     1     -42.040  56.817 -57.336  1.00  0.00    -0.247 OA
HETATM    5  H   UNL     1     -42.897  54.345 -55.647  1.00  0.00     0.164 HD
HETATM    6  H   UNL     1     -43.751  54.234 -57.620  1.00  0.00     0.165 HD
ENDROOT
BRANCH   1   7
HETATM    7  C   UNL     1     -41.584  55.772 -54.787  1.00  0.00     0.162 C 
BRANCH   7   8
HETATM    8  C   UNL     1     -41.642  55.204 -53.326  1.00  0.00     0.241 C 
BRANCH   8   9
HETATM    9  C   UNL     1     -40.927  53.861 -53.148  1.00  0.00     0.007 A 
HETATM   10  C   UNL     1     -40.288  53.585 -51.919  1.00  0.00     0.076 A 
HETATM   11  C   UNL     1     -39.653  52.359 -51.705  1.00  0.00     0.037 A 
HETATM   12  C   UNL     1     -39.632  51.398 -52.714  1.00  0.00     0.003 A 
HETATM   13  C   UNL     1     -40.256  51.652 -53.931  1.00  0.00     0.001 A 
HETATM   14  C   UNL     1     -40.903  52.871 -54.147  1.00  0.00     0.012 A 
BRANCH  10  15
HETATM   15  O   UNL     1     -40.404  54.550 -50.948  1.00  0.00    -0.355 OA
HETATM   16  C   UNL     1     -40.082  54.113 -49.624  1.00  0.00     0.210 C 
ENDBRANCH  10  15
ENDBRANCH   8   9
BRANCH   8  17
HETATM   17  N   UNL     1     -43.069  55.095 -52.766  1.00  0.00    -0.061 N 
HETATM   18  H   UNL     1     -43.616  54.893 -53.617  1.00  0.00     0.280 HD
HETATM   19  C   UNL     1     -43.663  56.321 -52.139  1.00  0.00     0.236 C 
HETATM   20  C   UNL     1     -43.682  56.002 -50.660  1.00  0.00     0.029 C 
HETATM   21  C   UNL     1     -44.012  54.523 -50.623  1.00  0.00     0.029 C 
HETATM   22  C   UNL     1     -43.337  53.927 -51.847  1.00  0.00     0.236 C 
ENDBRANCH   8  17
ENDBRANCH   7   8
ENDBRANCH   1   7
BRANCH   3  23
HETATM   23  C   UNL     1     -43.898  55.685 -59.091  1.00  0.00     0.149 C 
HETATM   24  C   UNL     1     -44.396  54.550 -60.035  1.00  0.00     0.149 C 
HETATM   25  C   UNL     1     -45.421  55.190 -60.992  1.00  0.00     0.073 C 
HETATM   26  C   UNL     1     -45.897  56.376 -60.205  1.00  0.00    -0.047 A 
HETATM   27  C   UNL     1     -45.038  56.663 -59.139  1.00  0.00    -0.026 A 
HETATM   28  C   UNL     1     -47.000  57.171 -60.470  1.00  0.00     0.008 A 
HETATM   29  C   UNL     1     -45.266  57.761 -58.321  1.00  0.00     0.010 A 
HETATM   30  C   UNL     1     -46.382  58.562 -58.574  1.00  0.00     0.001 A 
HETATM   31  C   UNL     1     -47.244  58.267 -59.641  1.00  0.00     0.001 A 
BRANCH  24  32
HETATM   32  O   UNL     1     -45.040  53.499 -59.289  1.00  0.00    -0.393 OA
HETATM   33  H   UNL     1     -44.804  52.668 -59.735  1.00  0.00     0.210 HD
ENDBRANCH  24  32
ENDBRANCH   3  23
TORSDOF 7
ENDMDL
MODEL 2
REMARK VINA RESULT:      -8.8      2.518      8.238
REMARK  7 active torsions:
REMARK  status: ('A' for Active; 'I' for Inactive)
REMARK    1  A    between atoms: O_2  and  C_3 
REMARK    2  A    between atoms: C_4  and  C_5 
REMARK    3  A    between atoms: C_5  and  N_6 
REMARK    4  A    between atoms: C_5  and  C_12 
REMARK    5  A    between atoms: C_12  and  N_13 
REMARK       I    between atoms: N_13  and  C_14 
REMARK       I    between atoms: C_14  and  N_15 
REMARK    6  A    between atoms: N_15  and  C_16 
REMARK    7  A    between atoms: C_17  and  O_18 
ROOT
HETATM    1  N   UNL     1     -42.820  54.749 -55.404  1.00  0.00    -0.341 N 
HETATM    2  C   UNL     1     -41.591  54.505 -54.849  1.00  0.00     0.316 C 
HETATM    3  N   UNL     1     -41.686  53.965 -53.605  1.00  0.00    -0.332 N 
HETATM    4  O   UNL     1     -40.543  54.650 -55.464  1.00  0.00    -0.247 OA
HETATM    5  H   UNL     1     -43.559  54.921 -54.734  1.00  0.00     0.164 HD
HETATM    6  H   UNL     1     -42.425  54.311 -53.008  1.00  0.00     0.165 HD
ENDROOT
BRANCH   1   7
HETATM    7  C   UNL     1     -42.931  55.400 -56.703  1.00  0.00     0.162 C 
BRANCH   7   8
HETATM    8  C   UNL     1     -42.708  56.952 -56.746  1.00  0.00     0.241 C 
BRANCH   8   9
HETATM    9  C   UNL     1     -43.457  57.721 -55.654  1.00  0.00     0.007 A 
HETATM   10  C   UNL     1     -42.768  58.073 -54.472  1.00  0.00     0.076 A 
HETATM   11  C   UNL     1     -43.406  58.804 -53.466  1.00  0.00     0.037 A 
HETATM   12  C   UNL     1     -44.740  59.181 -53.616  1.00  0.00     0.003 A 
HETATM   13  C   UNL     1     -45.433  58.844 -54.773  1.00  0.00     0.001 A 
HETATM   14  C   UNL     1     -44.798  58.124 -55.788  1.00  0.00     0.012 A 
BRANCH  10  15
HETATM   15  O   UNL     1     -41.440  57.726 -54.420  1.00  0.00    -0.355 OA
HETATM   16  C   UNL     1     -40.881  57.683 -53.104  1.00  0.00     0.210 C 
ENDBRANCH  10  15
ENDBRANCH   8   9
BRANCH   8  17
HETATM   17  N   UNL     1     -43.022  57.580 -58.114  1.00  0.00    -0.061 N 
HETATM   18  H   UNL     1     -43.740  58.277 -57.866  1.00  0.00     0.280 HD
HETATM   19  C   UNL     1     -43.613  56.689 -59.166  1.00  0.00     0.236 C 
HETATM   20  C   UNL     1     -42.489  56.503 -60.160  1.00  0.00     0.029 C 
HETATM   21  C   UNL     1     -41.803  57.855 -60.175  1.00  0.00     0.029 C 
HETATM   22  C   UNL     1     -41.910  58.377 -58.751  1.00  0.00     0.236 C 
ENDBRANCH   8  17
ENDBRANCH   7   8
ENDBRANCH   1   7
BRANCH   3  23
HETATM   23  C   UNL     1     -40.485  53.599 -52.874  1.00  0.00     0.149 C 
HETATM   24  C   UNL     1     -40.609  53.813 -51.336  1.00  0.00     0.149 C 
HETATM   25  C   UNL     1     -39.824  52.669 -50.666  1.00  0.00     0.073 C 
HETATM   26  C   UNL     1     -39.845  51.604 -51.722  1.00  0.00    -0.047 A 
HETATM   27  C   UNL     1     -40.208  52.124 -52.969  1.00  0.00    -0.026 A 
HETATM   28  C   UNL     1     -39.505  50.268 -51.575  1.00  0.00     0.008 A 
HETATM   29  C   UNL     1     -40.229  51.314 -54.096  1.00  0.00     0.010 A 
HETATM   30  C   UNL     1     -39.899  49.965 -53.955  1.00  0.00     0.001 A 
HETATM   31  C   UNL     1     -39.541  49.446 -52.702  1.00  0.00     0.001 A 
BRANCH  24  32
HETATM   32  O   UNL     1     -41.986  53.751 -50.914  1.00  0.00    -0.393 OA
HETATM   33  H   UNL     1     -42.509  53.602 -51.721  1.00  0.00     0.210 HD
ENDBRANCH  24  32
ENDBRANCH   3  23
TORSDOF 7
ENDMDL
MODEL 3
REMARK VINA RESULT:      -8.5      2.132      8.851
REMARK  7 active torsions:
REMARK  status: ('A' for Active; 'I' for Inactive)
REMARK    1  A    between atoms: O_2  and  C_3 
REMARK    2  A    between atoms: C_4  and  C_5 
REMARK    3  A    between atoms: C_5  and  N_6 
REMARK    4  A    between atoms: C_5  and  C_12 
REMARK    5  A    between atoms: C_12  and  N_13 
REMARK       I    between atoms: N_13  and  C_14 
REMARK       I    between atoms: C_14  and  N_15 
REMARK    6  A    between atoms: N_15  and  C_16 
REMARK    7  A    between atoms: C_17  and  O_18 
ROOT
HETATM    1  N   UNL     1     -42.707  55.015 -55.999  1.00  0.00    -0.341 N 
HETATM    2  C   UNL     1     -41.639  54.981 -55.140  1.00  0.00     0.316 C 
HETATM    3  N   UNL     1     -41.519  53.778 -54.517  1.00  0.00    -0.332 N 
HETATM    4  O   UNL     1     -40.830  55.893 -55.049  1.00  0.00    -0.247 OA
HETATM    5  H   UNL     1     -43.465  54.391 -55.755  1.00  0.00     0.164 HD
HETATM    6  H   UNL     1     -42.374  53.314 -54.243  1.00  0.00     0.165 HD
ENDROOT
BRANCH   1   7
HETATM    7  C   UNL     1     -43.052  56.243 -56.704  1.00  0.00     0.162 C 
BRANCH   7   8
HETATM    8  C   UNL     1     -43.168  56.162 -58.266  1.00  0.00     0.241 C 
BRANCH   8   9
HETATM    9  C   UNL     1     -42.833  57.471 -58.987  1.00  0.00     0.007 A 
HETATM   10  C   UNL     1     -43.218  58.694 -58.395  1.00  0.00     0.076 A 
HETATM   11  C   UNL     1     -42.902  59.912 -59.005  1.00  0.00     0.037 A 
HETATM   12  C   UNL     1     -42.213  59.927 -60.216  1.00  0.00     0.003 A 
HETATM   13  C   UNL     1     -41.826  58.733 -60.813  1.00  0.00     0.001 A 
HETATM   14  C   UNL     1     -42.128  57.513 -60.203  1.00  0.00     0.012 A 
BRANCH  10  15
HETATM   15  O   UNL     1     -43.836  58.606 -57.171  1.00  0.00    -0.355 OA
HETATM   16  C   UNL     1     -44.991  59.437 -57.019  1.00  0.00     0.210 C 
ENDBRANCH  10  15
ENDBRANCH   8   9
BRANCH   8  17
HETATM   17  N   UNL     1     -44.533  55.651 -58.754  1.00  0.00    -0.061 N 
HETATM   18  H   UNL     1     -44.997  55.406 -57.866  1.00  0.00     0.280 HD
HETATM   19  C   UNL     1     -44.546  54.423 -59.615  1.00  0.00     0.236 C 
HETATM   20  C   UNL     1     -44.902  54.944 -60.989  1.00  0.00     0.029 C 
HETATM   21  C   UNL     1     -45.898  56.050 -60.701  1.00  0.00     0.029 C 
HETATM   22  C   UNL     1     -45.438  56.677 -59.395  1.00  0.00     0.236 C 
ENDBRANCH   8  17
ENDBRANCH   7   8
ENDBRANCH   1   7
BRANCH   3  23
HETATM   23  C   UNL     1     -40.418  53.539 -53.599  1.00  0.00     0.149 C 
HETATM   24  C   UNL     1     -40.732  53.969 -52.134  1.00  0.00     0.149 C 
HETATM   25  C   UNL     1     -40.039  52.946 -51.215  1.00  0.00     0.073 C 
HETATM   26  C   UNL     1     -39.930  51.740 -52.101  1.00  0.00    -0.047 A 
HETATM   27  C   UNL     1     -40.134  52.071 -53.445  1.00  0.00    -0.026 A 
HETATM   28  C   UNL     1     -39.613  50.445 -51.723  1.00  0.00     0.008 A 
HETATM   29  C   UNL     1     -40.017  51.108 -54.438  1.00  0.00     0.010 A 
HETATM   30  C   UNL     1     -39.709  49.798 -54.065  1.00  0.00     0.001 A 
HETATM   31  C   UNL     1     -39.510  49.470 -52.716  1.00  0.00     0.001 A 
BRANCH  24  32
HETATM   32  O   UNL     1     -42.151  53.946 -51.881  1.00  0.00    -0.393 OA
HETATM   33  H   UNL     1     -42.578  54.197 -52.718  1.00  0.00     0.210 HD
ENDBRANCH  24  32
ENDBRANCH   3  23
TORSDOF 7
ENDMDL
MODEL 4
REMARK VINA RESULT:      -8.5      1.929      8.827
REMARK  7 active torsions:
REMARK  status: ('A' for Active; 'I' for Inactive)
REMARK    1  A    between atoms: O_2  and  C_3 
REMARK    2  A    between atoms: C_4  and  C_5 
REMARK    3  A    between atoms: C_5  and  N_6 
REMARK    4  A    between atoms: C_5  and  C_12 
REMARK    5  A    between atoms: C_12  and  N_13 
REMARK       I    between atoms: N_13  and  C_14 
REMARK       I    between atoms: C_14  and  N_15 
REMARK    6  A    between atoms: N_15  and  C_16 
REMARK    7  A    between atoms: C_17  and  O_18 
ROOT
HETATM    1  N   UNL     1     -43.239  54.685 -56.203  1.00  0.00    -0.341 N 
HETATM    2  C   UNL     1     -42.317  54.984 -55.233  1.00  0.00     0.316 C 
HETATM    3  N   UNL     1     -42.726  54.593 -53.996  1.00  0.00    -0.332 N 
HETATM    4  O   UNL     1     -41.210  55.439 -55.485  1.00  0.00    -0.247 OA
HETATM    5  H   UNL     1     -44.196  54.643 -55.876  1.00  0.00     0.164 HD
HETATM    6  H   UNL     1     -43.707  54.703 -53.780  1.00  0.00     0.165 HD
ENDROOT
BRANCH   1   7
HETATM    7  C   UNL     1     -43.020  55.095 -57.584  1.00  0.00     0.162 C 
BRANCH   7   8
HETATM    8  C   UNL     1     -43.400  56.569 -57.960  1.00  0.00     0.241 C 
BRANCH   8   9
HETATM    9  C   UNL     1     -44.658  56.690 -58.825  1.00  0.00     0.007 A 
HETATM   10  C   UNL     1     -45.585  57.717 -58.541  1.00  0.00     0.076 A 
HETATM   11  C   UNL     1     -46.729  57.881 -59.327  1.00  0.00     0.037 A 
HETATM   12  C   UNL     1     -46.973  57.019 -60.394  1.00  0.00     0.003 A 
HETATM   13  C   UNL     1     -46.072  56.002 -60.688  1.00  0.00     0.001 A 
HETATM   14  C   UNL     1     -44.920  55.840 -59.914  1.00  0.00     0.012 A 
BRANCH  10  15
HETATM   15  O   UNL     1     -45.249  58.569 -57.517  1.00  0.00    -0.355 OA
HETATM   16  C   UNL     1     -45.854  59.864 -57.588  1.00  0.00     0.210 C 
ENDBRANCH  10  15
ENDBRANCH   8   9
BRANCH   8  17
HETATM   17  N   UNL     1     -42.253  57.348 -58.625  1.00  0.00    -0.061 N 
HETATM   18  H   UNL     1     -41.432  56.782 -58.361  1.00  0.00     0.280 HD
HETATM   19  C   UNL     1     -41.998  58.747 -58.148  1.00  0.00     0.236 C 
HETATM   20  C   UNL     1     -42.473  59.614 -59.292  1.00  0.00     0.029 C 
HETATM   21  C   UNL     1     -42.079  58.822 -60.524  1.00  0.00     0.029 C 
HETATM   22  C   UNL     1     -42.245  57.362 -60.135  1.00  0.00     0.236 C 
ENDBRANCH   8  17
ENDBRANCH   7   8
ENDBRANCH   1   7
BRANCH   3  23
HETATM   23  C   UNL     1     -41.861  54.788 -52.846  1.00  0.00     0.149 C 
HETATM   24  C   UNL     1     -42.643  55.010 -51.516  1.00  0.00     0.149 C 
HETATM   25  C   UNL     1     -41.827  54.324 -50.404  1.00  0.00     0.073 C 
HETATM   26  C   UNL     1     -41.050  53.292 -51.166  1.00  0.00    -0.047 A 
HETATM   27  C   UNL     1     -41.059  53.554 -52.541  1.00  0.00    -0.026 A 
HETATM   28  C   UNL     1     -40.338  52.223 -50.647  1.00  0.00     0.008 A 
HETATM   29  C   UNL     1     -40.346  52.751 -53.420  1.00  0.00     0.010 A 
HETATM   30  C   UNL     1     -39.635  51.664 -52.906  1.00  0.00     0.001 A 
HETATM   31  C   UNL     1     -39.633  51.402 -51.528  1.00  0.00     0.001 A 
BRANCH  24  32
HETATM   32  O   UNL     1     -43.952  54.411 -51.579  1.00  0.00    -0.393 OA
HETATM   33  H   UNL     1     -43.952  53.694 -50.921  1.00  0.00     0.210 HD
ENDBRANCH  24  32
ENDBRANCH   3  23
TORSDOF 7
ENDMDL
MODEL 5
REMARK VINA RESULT:      -8.3      2.261      8.617
REMARK  7 active torsions:
REMARK  status: ('A' for Active; 'I' for Inactive)
REMARK    1  A    between atoms: O_2  and  C_3 
REMARK    2  A    between atoms: C_4  and  C_5 
REMARK    3  A    between atoms: C_5  and  N_6 
REMARK    4  A    between atoms: C_5  and  C_12 
REMARK    5  A    between atoms: C_12  and  N_13 
REMARK       I    between atoms: N_13  and  C_14 
REMARK       I    between atoms: C_14  and  N_15 
REMARK    6  A    between atoms: N_15  and  C_16 
REMARK    7  A    between atoms: C_17  and  O_18 
ROOT
HETATM    1  N   UNL     1     -42.265  55.462 -55.315  1.00  0.00    -0.341 N 
HETATM    2  C   UNL     1     -41.248  55.245 -54.422  1.00  0.00     0.316 C 
HETATM    3  N   UNL     1     -41.304  54.003 -53.870  1.00  0.00    -0.332 N 
HETATM    4  O   UNL     1     -40.336  56.041 -54.246  1.00  0.00    -0.247 OA
HETATM    5  H   UNL     1     -43.105  54.926 -55.136  1.00  0.00     0.164 HD
HETATM    6  H   UNL     1     -42.221  53.636 -53.656  1.00  0.00     0.165 HD
ENDROOT
BRANCH   1   7
HETATM    7  C   UNL     1     -42.425  56.762 -55.954  1.00  0.00     0.162 C 
BRANCH   7   8
HETATM    8  C   UNL     1     -43.683  56.959 -56.868  1.00  0.00     0.241 C 
BRANCH   8   9
HETATM    9  C   UNL     1     -43.400  57.720 -58.167  1.00  0.00     0.007 A 
HETATM   10  C   UNL     1     -44.257  57.527 -59.272  1.00  0.00     0.076 A 
HETATM   11  C   UNL     1     -44.052  58.227 -60.464  1.00  0.00     0.037 A 
HETATM   12  C   UNL     1     -42.985  59.117 -60.577  1.00  0.00     0.003 A 
HETATM   13  C   UNL     1     -42.131  59.320 -59.499  1.00  0.00     0.001 A 
HETATM   14  C   UNL     1     -42.338  58.632 -58.300  1.00  0.00     0.012 A 
BRANCH  10  15
HETATM   15  O   UNL     1     -45.325  56.686 -59.070  1.00  0.00    -0.355 OA
HETATM   16  C   UNL     1     -45.563  55.751 -60.127  1.00  0.00     0.210 C 
ENDBRANCH  10  15
ENDBRANCH   8   9
BRANCH   8  17
HETATM   17  N   UNL     1     -44.870  57.616 -56.146  1.00  0.00    -0.061 N 
HETATM   18  H   UNL     1     -45.668  57.081 -56.520  1.00  0.00     0.280 HD
HETATM   19  C   UNL     1     -45.137  59.065 -56.427  1.00  0.00     0.236 C 
HETATM   20  C   UNL     1     -44.724  59.767 -55.153  1.00  0.00     0.029 C 
HETATM   21  C   UNL     1     -45.146  58.800 -54.064  1.00  0.00     0.029 C 
HETATM   22  C   UNL     1     -44.934  57.414 -54.650  1.00  0.00     0.236 C 
ENDBRANCH   8  17
ENDBRANCH   7   8
ENDBRANCH   1   7
BRANCH   3  23
HETATM   23  C   UNL     1     -40.282  53.575 -52.931  1.00  0.00     0.149 C 
HETATM   24  C   UNL     1     -40.698  53.762 -51.440  1.00  0.00     0.149 C 
HETATM   25  C   UNL     1     -40.099  52.575 -50.662  1.00  0.00     0.073 C 
HETATM   26  C   UNL     1     -39.949  51.533 -51.731  1.00  0.00    -0.047 A 
HETATM   27  C   UNL     1     -40.044  52.093 -53.010  1.00  0.00    -0.026 A 
HETATM   28  C   UNL     1     -39.691  50.183 -51.558  1.00  0.00     0.008 A 
HETATM   29  C   UNL     1     -39.872  51.307 -54.142  1.00  0.00     0.010 A 
HETATM   30  C   UNL     1     -39.623  49.943 -53.977  1.00  0.00     0.001 A 
HETATM   31  C   UNL     1     -39.534  49.386 -52.693  1.00  0.00     0.001 A 
BRANCH  24  32
HETATM   32  O   UNL     1     -42.132  53.746 -51.296  1.00  0.00    -0.393 OA
HETATM   33  H   UNL     1     -42.306  53.512 -50.368  1.00  0.00     0.210 HD
ENDBRANCH  24  32
ENDBRANCH   3  23
TORSDOF 7
ENDMDL
MODEL 6
REMARK VINA RESULT:      -8.3      2.269      8.604
REMARK  7 active torsions:
REMARK  status: ('A' for Active; 'I' for Inactive)
REMARK    1  A    between atoms: O_2  and  C_3 
REMARK    2  A    between atoms: C_4  and  C_5 
REMARK    3  A    between atoms: C_5  and  N_6 
REMARK    4  A    between atoms: C_5  and  C_12 
REMARK    5  A    between atoms: C_12  and  N_13 
REMARK       I    between atoms: N_13  and  C_14 
REMARK       I    between atoms: C_14  and  N_15 
REMARK    6  A    between atoms: N_15  and  C_16 
REMARK    7  A    between atoms: C_17  and  O_18 
ROOT
HETATM    1  N   UNL     1     -43.918  56.803 -55.957  1.00  0.00    -0.341 N 
HETATM    2  C   UNL     1     -42.984  56.858 -54.955  1.00  0.00     0.316 C 
HETATM    3  N   UNL     1     -42.699  55.627 -54.450  1.00  0.00    -0.332 N 
HETATM    4  O   UNL     1     -42.397  57.886 -54.648  1.00  0.00    -0.247 OA
HETATM    5  H   UNL     1     -44.557  56.021 -55.895  1.00  0.00     0.164 HD
HETATM    6  H   UNL     1     -43.469  54.979 -54.358  1.00  0.00     0.165 HD
ENDROOT
BRANCH   1   7
HETATM    7  C   UNL     1     -44.416  58.027 -56.573  1.00  0.00     0.162 C 
BRANCH   7   8
HETATM    8  C   UNL     1     -44.188  58.194 -58.115  1.00  0.00     0.241 C 
BRANCH   8   9
HETATM    9  C   UNL     1     -44.556  56.957 -58.940  1.00  0.00     0.007 A 
HETATM   10  C   UNL     1     -45.793  56.933 -59.621  1.00  0.00     0.076 A 
HETATM   11  C   UNL     1     -46.151  55.836 -60.410  1.00  0.00     0.037 A 
HETATM   12  C   UNL     1     -45.291  54.745 -60.521  1.00  0.00     0.003 A 
HETATM   13  C   UNL     1     -44.069  54.752 -59.858  1.00  0.00     0.001 A 
HETATM   14  C   UNL     1     -43.700  55.850 -59.077  1.00  0.00     0.012 A 
BRANCH  10  15
HETATM   15  O   UNL     1     -46.561  58.067 -59.519  1.00  0.00    -0.355 OA
HETATM   16  C   UNL     1     -47.305  58.398 -60.696  1.00  0.00     0.210 C 
ENDBRANCH  10  15
ENDBRANCH   8   9
BRANCH   8  17
HETATM   17  N   UNL     1     -42.764  58.641 -58.481  1.00  0.00    -0.061 N 
HETATM   18  H   UNL     1     -42.248  57.748 -58.452  1.00  0.00     0.280 HD
HETATM   19  C   UNL     1     -42.071  59.584 -57.543  1.00  0.00     0.236 C 
HETATM   20  C   UNL     1     -42.050  60.897 -58.294  1.00  0.00     0.029 C 
HETATM   21  C   UNL     1     -41.829  60.476 -59.734  1.00  0.00     0.029 C 
HETATM   22  C   UNL     1     -42.568  59.156 -59.887  1.00  0.00     0.236 C 
ENDBRANCH   8  17
ENDBRANCH   7   8
ENDBRANCH   1   7
BRANCH   3  23
HETATM   23  C   UNL     1     -41.698  55.481 -53.408  1.00  0.00     0.149 C 
HETATM   24  C   UNL     1     -42.300  55.479 -51.970  1.00  0.00     0.149 C 
HETATM   25  C   UNL     1     -41.460  54.489 -51.141  1.00  0.00     0.073 C 
HETATM   26  C   UNL     1     -40.901  53.580 -52.195  1.00  0.00    -0.047 A 
HETATM   27  C   UNL     1     -41.025  54.138 -53.472  1.00  0.00    -0.026 A 
HETATM   28  C   UNL     1     -40.274  52.360 -52.005  1.00  0.00     0.008 A 
HETATM   29  C   UNL     1     -40.514  53.483 -54.584  1.00  0.00     0.010 A 
HETATM   30  C   UNL     1     -39.891  52.247 -54.403  1.00  0.00     0.001 A 
HETATM   31  C   UNL     1     -39.773  51.689 -53.122  1.00  0.00     0.001 A 
BRANCH  24  32
HETATM   32  O   UNL     1     -43.672  55.037 -51.984  1.00  0.00    -0.393 OA
HETATM   33  H   UNL     1     -43.813  54.622 -52.853  1.00  0.00     0.210 HD
ENDBRANCH  24  32
ENDBRANCH   3  23
TORSDOF 7
ENDMDL
MODEL 7
REMARK VINA RESULT:      -8.2      1.769      2.389
REMARK  7 active torsions:
REMARK  status: ('A' for Active; 'I' for Inactive)
REMARK    1  A    between atoms: O_2  and  C_3 
REMARK    2  A    between atoms: C_4  and  C_5 
REMARK    3  A    between atoms: C_5  and  N_6 
REMARK    4  A    between atoms: C_5  and  C_12 
REMARK    5  A    between atoms: C_12  and  N_13 
REMARK       I    between atoms: N_13  and  C_14 
REMARK       I    between atoms: C_14  and  N_15 
REMARK    6  A    between atoms: N_15  and  C_16 
REMARK    7  A    between atoms: C_17  and  O_18 
ROOT
HETATM    1  N   UNL     1     -43.391  56.859 -55.476  1.00  0.00    -0.341 N 
HETATM    2  C   UNL     1     -43.291  57.008 -56.835  1.00  0.00     0.316 C 
HETATM    3  N   UNL     1     -43.932  56.016 -57.509  1.00  0.00    -0.332 N 
HETATM    4  O   UNL     1     -42.786  57.990 -57.361  1.00  0.00    -0.247 OA
HETATM    5  H   UNL     1     -43.506  55.904 -55.164  1.00  0.00     0.164 HD
HETATM    6  H   UNL     1     -43.875  55.085 -57.121  1.00  0.00     0.165 HD
ENDROOT
BRANCH   1   7
HETATM    7  C   UNL     1     -42.703  57.779 -54.578  1.00  0.00     0.162 C 
BRANCH   7   8
HETATM    8  C   UNL     1     -41.593  57.174 -53.650  1.00  0.00     0.241 C 
BRANCH   8   9
HETATM    9  C   UNL     1     -41.286  55.699 -53.920  1.00  0.00     0.007 A 
HETATM   10  C   UNL     1     -42.111  54.712 -53.335  1.00  0.00     0.076 A 
HETATM   11  C   UNL     1     -41.885  53.355 -53.583  1.00  0.00     0.037 A 
HETATM   12  C   UNL     1     -40.828  52.962 -54.403  1.00  0.00     0.003 A 
HETATM   13  C   UNL     1     -40.007  53.919 -54.987  1.00  0.00     0.001 A 
HETATM   14  C   UNL     1     -40.235  55.278 -54.753  1.00  0.00     0.012 A 
BRANCH  10  15
HETATM   15  O   UNL     1     -43.170  55.173 -52.592  1.00  0.00    -0.355 OA
HETATM   16  C   UNL     1     -43.530  54.346 -51.480  1.00  0.00     0.210 C 
ENDBRANCH  10  15
ENDBRANCH   8   9
BRANCH   8  17
HETATM   17  N   UNL     1     -41.873  57.367 -52.151  1.00  0.00    -0.061 N 
HETATM   18  H   UNL     1     -42.274  56.453 -51.892  1.00  0.00     0.280 HD
HETATM   19  C   UNL     1     -42.873  58.416 -51.762  1.00  0.00     0.236 C 
HETATM   20  C   UNL     1     -42.031  59.514 -51.151  1.00  0.00     0.029 C 
HETATM   21  C   UNL     1     -40.943  58.756 -50.415  1.00  0.00     0.029 C 
HETATM   22  C   UNL     1     -40.663  57.526 -51.262  1.00  0.00     0.236 C 
ENDBRANCH   8  17
ENDBRANCH   7   8
ENDBRANCH   1   7
BRANCH   3  23
HETATM   23  C   UNL     1     -43.971  56.029 -58.962  1.00  0.00     0.149 C 
HETATM   24  C   UNL     1     -44.063  54.605 -59.588  1.00  0.00     0.149 C 
HETATM   25  C   UNL     1     -44.955  54.729 -60.838  1.00  0.00     0.073 C 
HETATM   26  C   UNL     1     -45.778  55.944 -60.526  1.00  0.00    -0.047 A 
HETATM   27  C   UNL     1     -45.223  56.683 -59.475  1.00  0.00    -0.026 A 
HETATM   28  C   UNL     1     -46.918  56.379 -61.183  1.00  0.00     0.008 A 
HETATM   29  C   UNL     1     -45.798  57.880 -59.069  1.00  0.00     0.010 A 
HETATM   30  C   UNL     1     -46.954  58.319 -59.718  1.00  0.00     0.001 A 
HETATM   31  C   UNL     1     -47.510  57.572 -60.767  1.00  0.00     0.001 A 
BRANCH  24  32
HETATM   32  O   UNL     1     -44.664  53.672 -58.670  1.00  0.00    -0.393 OA
HETATM   33  H   UNL     1     -45.378  53.231 -59.163  1.00  0.00     0.210 HD
ENDBRANCH  24  32
ENDBRANCH   3  23
TORSDOF 7
ENDMDL
MODEL 8
REMARK VINA RESULT:      -8.2      2.543      4.346
REMARK  7 active torsions:
REMARK  status: ('A' for Active; 'I' for Inactive)
REMARK    1  A    between atoms: O_2  and  C_3 
REMARK    2  A    between atoms: C_4  and  C_5 
REMARK    3  A    between atoms: C_5  and  N_6 
REMARK    4  A    between atoms: C_5  and  C_12 
REMARK    5  A    between atoms: C_12  and  N_13 
REMARK       I    between atoms: N_13  and  C_14 
REMARK       I    between atoms: C_14  and  N_15 
REMARK    6  A    between atoms: N_15  and  C_16 
REMARK    7  A    between atoms: C_17  and  O_18 
ROOT
HETATM    1  N   UNL     1     -43.760  55.375 -54.682  1.00  0.00    -0.341 N 
HETATM    2  C   UNL     1     -42.994  55.457 -55.815  1.00  0.00     0.316 C 
HETATM    3  N   UNL     1     -43.687  55.966 -56.869  1.00  0.00    -0.332 N 
HETATM    4  O   UNL     1     -41.796  55.210 -55.828  1.00  0.00    -0.247 OA
HETATM    5  H   UNL     1     -44.753  55.270 -54.850  1.00  0.00     0.164 HD
HETATM    6  H   UNL     1     -44.655  55.690 -56.960  1.00  0.00     0.165 HD
ENDROOT
BRANCH   1   7
HETATM    7  C   UNL     1     -43.222  54.781 -53.465  1.00  0.00     0.162 C 
BRANCH   7   8
HETATM    8  C   UNL     1     -42.548  55.752 -52.434  1.00  0.00     0.241 C 
BRANCH   8   9
HETATM    9  C   UNL     1     -42.434  57.200 -52.919  1.00  0.00     0.007 A 
HETATM   10  C   UNL     1     -43.563  58.043 -52.825  1.00  0.00     0.076 A 
HETATM   11  C   UNL     1     -43.491  59.379 -53.227  1.00  0.00     0.037 A 
HETATM   12  C   UNL     1     -42.300  59.890 -53.740  1.00  0.00     0.003 A 
HETATM   13  C   UNL     1     -41.178  59.075 -53.839  1.00  0.00     0.001 A 
HETATM   14  C   UNL     1     -41.240  57.742 -53.428  1.00  0.00     0.012 A 
BRANCH  10  15
HETATM   15  O   UNL     1     -44.683  57.491 -52.251  1.00  0.00    -0.355 OA
HETATM   16  C   UNL     1     -45.182  58.193 -51.108  1.00  0.00     0.210 C 
ENDBRANCH  10  15
ENDBRANCH   8   9
BRANCH   8  17
HETATM   17  N   UNL     1     -41.171  55.271 -51.947  1.00  0.00    -0.061 N 
HETATM   18  H   UNL     1     -40.543  55.977 -52.360  1.00  0.00     0.280 HD
HETATM   19  C   UNL     1     -40.699  53.928 -52.420  1.00  0.00     0.236 C 
HETATM   20  C   UNL     1     -40.792  53.055 -51.188  1.00  0.00     0.029 C 
HETATM   21  C   UNL     1     -40.390  53.987 -50.063  1.00  0.00     0.029 C 
HETATM   22  C   UNL     1     -40.924  55.354 -50.459  1.00  0.00     0.236 C 
ENDBRANCH   8  17
ENDBRANCH   7   8
ENDBRANCH   1   7
BRANCH   3  23
HETATM   23  C   UNL     1     -43.027  56.168 -58.148  1.00  0.00     0.149 C 
HETATM   24  C   UNL     1     -43.950  55.880 -59.370  1.00  0.00     0.149 C 
HETATM   25  C   UNL     1     -43.568  56.899 -60.461  1.00  0.00     0.073 C 
HETATM   26  C   UNL     1     -42.973  58.019 -59.660  1.00  0.00    -0.047 A 
HETATM   27  C   UNL     1     -42.660  57.610 -58.359  1.00  0.00    -0.026 A 
HETATM   28  C   UNL     1     -42.686  59.303 -60.095  1.00  0.00     0.008 A 
HETATM   29  C   UNL     1     -42.042  58.481 -57.472  1.00  0.00     0.010 A 
HETATM   30  C   UNL     1     -41.760  59.780 -57.898  1.00  0.00     0.001 A 
HETATM   31  C   UNL     1     -42.081  60.188 -59.201  1.00  0.00     0.001 A 
BRANCH  24  32
HETATM   32  O   UNL     1     -45.337  56.056 -59.024  1.00  0.00    -0.393 OA
HETATM   33  H   UNL     1     -45.418  55.793 -58.091  1.00  0.00     0.210 HD
ENDBRANCH  24  32
ENDBRANCH   3  23
TORSDOF 7
ENDMDL
MODEL 9
REMARK VINA RESULT:      -8.0      2.055      8.842
REMARK  7 active torsions:
REMARK  status: ('A' for Active; 'I' for Inactive)
REMARK    1  A    between atoms: O_2  and  C_3 
REMARK    2  A    between atoms: C_4  and  C_5 
REMARK    3  A    between atoms: C_5  and  N_6 
REMARK    4  A    between atoms: C_5  and  C_12 
REMARK    5  A    between atoms: C_12  and  N_13 
REMARK       I    between atoms: N_13  and  C_14 
REMARK       I    between atoms: C_14  and  N_15 
REMARK    6  A    between atoms: N_15  and  C_16 
REMARK    7  A    between atoms: C_17  and  O_18 
ROOT
HETATM    1  N   UNL     1     -44.054  56.176 -54.819  1.00  0.00    -0.341 N 
HETATM    2  C   UNL     1     -42.824  56.187 -54.215  1.00  0.00     0.316 C 
HETATM    3  N   UNL     1     -42.526  54.994 -53.632  1.00  0.00    -0.332 N 
HETATM    4  O   UNL     1     -42.047  57.127 -54.305  1.00  0.00    -0.247 OA
HETATM    5  H   UNL     1     -44.717  55.528 -54.413  1.00  0.00     0.164 HD
HETATM    6  H   UNL     1     -43.283  54.504 -53.176  1.00  0.00     0.165 HD
ENDROOT
BRANCH   1   7
HETATM    7  C   UNL     1     -44.589  57.385 -55.432  1.00  0.00     0.162 C 
BRANCH   7   8
HETATM    8  C   UNL     1     -44.109  57.722 -56.886  1.00  0.00     0.241 C 
BRANCH   8   9
HETATM    9  C   UNL     1     -44.732  58.991 -57.473  1.00  0.00     0.007 A 
HETATM   10  C   UNL     1     -43.936  59.833 -58.279  1.00  0.00     0.076 A 
HETATM   11  C   UNL     1     -44.476  60.984 -58.860  1.00  0.00     0.037 A 
HETATM   12  C   UNL     1     -45.810  61.319 -58.635  1.00  0.00     0.003 A 
HETATM   13  C   UNL     1     -46.610  60.501 -57.844  1.00  0.00     0.001 A 
HETATM   14  C   UNL     1     -46.079  59.343 -57.271  1.00  0.00     0.012 A 
BRANCH  10  15
HETATM   15  O   UNL     1     -42.650  59.409 -58.511  1.00  0.00    -0.355 OA
HETATM   16  C   UNL     1     -41.629  60.278 -58.010  1.00  0.00     0.210 C 
ENDBRANCH  10  15
ENDBRANCH   8   9
BRANCH   8  17
HETATM   17  N   UNL     1     -44.294  56.562 -57.878  1.00  0.00    -0.061 N 
HETATM   18  H   UNL     1     -44.946  55.948 -57.366  1.00  0.00     0.280 HD
HETATM   19  C   UNL     1     -43.085  55.741 -58.217  1.00  0.00     0.236 C 
HETATM   20  C   UNL     1     -42.761  56.138 -59.640  1.00  0.00     0.029 C 
HETATM   21  C   UNL     1     -44.126  56.332 -60.272  1.00  0.00     0.029 C 
HETATM   22  C   UNL     1     -45.006  56.896 -59.167  1.00  0.00     0.236 C 
ENDBRANCH   8  17
ENDBRANCH   7   8
ENDBRANCH   1   7
BRANCH   3  23
HETATM   23  C   UNL     1     -41.243  54.803 -52.978  1.00  0.00     0.149 C 
HETATM   24  C   UNL     1     -41.319  54.918 -51.426  1.00  0.00     0.149 C 
HETATM   25  C   UNL     1     -40.319  53.893 -50.857  1.00  0.00     0.073 C 
HETATM   26  C   UNL     1     -40.218  52.892 -51.970  1.00  0.00    -0.047 A 
HETATM   27  C   UNL     1     -40.730  53.403 -53.168  1.00  0.00    -0.026 A 
HETATM   28  C   UNL     1     -39.652  51.628 -51.915  1.00  0.00     0.008 A 
HETATM   29  C   UNL     1     -40.675  52.656 -54.337  1.00  0.00     0.010 A 
HETATM   30  C   UNL     1     -40.118  51.377 -54.288  1.00  0.00     0.001 A 
HETATM   31  C   UNL     1     -39.611  50.867 -53.084  1.00  0.00     0.001 A 
BRANCH  24  32
HETATM   32  O   UNL     1     -42.641  54.603 -50.947  1.00  0.00    -0.393 OA
HETATM   33  H   UNL     1     -42.853  55.279 -50.279  1.00  0.00     0.210 HD
ENDBRANCH  24  32
ENDBRANCH   3  23
TORSDOF 7
ENDMDL
MODEL 10
REMARK VINA RESULT:      -8.0      2.448      8.551
REMARK  7 active torsions:
REMARK  status: ('A' for Active; 'I' for Inactive)
REMARK    1  A    between atoms: O_2  and  C_3 
REMARK    2  A    between atoms: C_4  and  C_5 
REMARK    3  A    between atoms: C_5  and  N_6 
REMARK    4  A    between atoms: C_5  and  C_12 
REMARK    5  A    between atoms: C_12  and  N_13 
REMARK       I    between atoms: N_13  and  C_14 
REMARK       I    between atoms: C_14  and  N_15 
REMARK    6  A    between atoms: N_15  and  C_16 
REMARK    7  A    between atoms: C_17  and  O_18 
ROOT
HETATM    1  N   UNL     1     -42.764  57.235 -55.670  1.00  0.00    -0.341 N 
HETATM    2  C   UNL     1     -42.991  56.106 -54.928  1.00  0.00     0.316 C 
HETATM    3  N   UNL     1     -41.835  55.492 -54.558  1.00  0.00    -0.332 N 
HETATM    4  O   UNL     1     -44.105  55.772 -54.548  1.00  0.00    -0.247 OA
HETATM    5  H   UNL     1     -41.899  57.228 -56.194  1.00  0.00     0.164 HD
HETATM    6  H   UNL     1     -41.083  55.483 -55.234  1.00  0.00     0.165 HD
ENDROOT
BRANCH   1   7
HETATM    7  C   UNL     1     -43.879  57.991 -56.229  1.00  0.00     0.162 C 
BRANCH   7   8
HETATM    8  C   UNL     1     -43.872  58.234 -57.778  1.00  0.00     0.241 C 
BRANCH   8   9
HETATM    9  C   UNL     1     -44.333  57.028 -58.602  1.00  0.00     0.007 A 
HETATM   10  C   UNL     1     -45.541  57.120 -59.329  1.00  0.00     0.076 A 
HETATM   11  C   UNL     1     -45.980  56.054 -60.119  1.00  0.00     0.037 A 
HETATM   12  C   UNL     1     -45.232  54.879 -60.185  1.00  0.00     0.003 A 
HETATM   13  C   UNL     1     -44.041  54.771 -59.476  1.00  0.00     0.001 A 
HETATM   14  C   UNL     1     -43.591  55.838 -58.694  1.00  0.00     0.012 A 
BRANCH  10  15
HETATM   15  O   UNL     1     -46.192  58.328 -59.270  1.00  0.00    -0.355 OA
HETATM   16  C   UNL     1     -46.213  59.061 -60.499  1.00  0.00     0.210 C 
ENDBRANCH  10  15
ENDBRANCH   8   9
BRANCH   8  17
HETATM   17  N   UNL     1     -42.520  58.727 -58.317  1.00  0.00    -0.061 N 
HETATM   18  H   UNL     1     -41.922  57.898 -58.180  1.00  0.00     0.280 HD
HETATM   19  C   UNL     1     -41.863  59.869 -57.599  1.00  0.00     0.236 C 
HETATM   20  C   UNL     1     -42.010  61.033 -58.554  1.00  0.00     0.029 C 
HETATM   21  C   UNL     1     -41.837  60.394 -59.918  1.00  0.00     0.029 C 
HETATM   22  C   UNL     1     -42.457  59.012 -59.798  1.00  0.00     0.236 C 
ENDBRANCH   8  17
ENDBRANCH   7   8
ENDBRANCH   1   7
BRANCH   3  23
HETATM   23  C   UNL     1     -41.875  54.300 -53.729  1.00  0.00     0.149 C 
HETATM   24  C   UNL     1     -40.976  53.145 -54.265  1.00  0.00     0.149 C 
HETATM   25  C   UNL     1     -40.391  52.431 -53.032  1.00  0.00     0.073 C 
HETATM   26  C   UNL     1     -40.448  53.503 -51.983  1.00  0.00    -0.047 A 
HETATM   27  C   UNL     1     -41.288  54.553 -52.368  1.00  0.00    -0.026 A 
HETATM   28  C   UNL     1     -39.825  53.501 -50.746  1.00  0.00     0.008 A 
HETATM   29  C   UNL     1     -41.527  55.620 -51.512  1.00  0.00     0.010 A 
HETATM   30  C   UNL     1     -40.895  55.631 -50.267  1.00  0.00     0.001 A 
HETATM   31  C   UNL     1     -40.049  54.579 -49.888  1.00  0.00     0.001 A 
BRANCH  24  32
HETATM   32  O   UNL     1     -39.896  53.660 -55.069  1.00  0.00    -0.393 OA
HETATM   33  H   UNL     1     -39.076  53.334 -54.658  1.00  0.00     0.210 HD
ENDBRANCH  24  32
ENDBRANCH   3  23
TORSDOF 7
ENDMDL
