MODEL 1
REMARK VINA RESULT:      -9.9      0.000      0.000
REMARK  5 active torsions:
REMARK  status: ('A' for Active; 'I' for Inactive)
REMARK    1  A    between atoms: C_7  and  C_8 
REMARK    2  A    between atoms: C_16  and  C_17 
REMARK    3  A    between atoms: C_19  and  O_20 
REMARK    4  A    between atoms: C_24  and  C_25 
REMARK       I    between atoms: C_25  and  N_26 
REMARK    5  A    between atoms: N_26  and  C_27 
ROOT
HETATM    1  C   UNL     1     -45.466  57.731 -55.567  1.00  0.00     0.070 C 
HETATM    2  C   UNL     1     -44.165  57.269 -54.961  1.00  0.00     0.037 C 
HETATM    3  N   UNL     1     -44.201  56.018 -54.340  1.00  0.00    -0.192 N 
HETATM    4  C   UNL     1     -43.075  55.342 -54.026  1.00  0.00     0.726 A 
HETATM    5  N   UNL     1     -41.883  56.000 -54.038  1.00  0.00    -0.083 N 
HETATM    6  N   UNL     1     -40.847  55.169 -53.823  1.00  0.00    -0.135 NA
HETATM    7  C   UNL     1     -41.490  53.993 -53.665  1.00  0.00     0.200 A 
HETATM    8  N   UNL     1     -42.867  54.084 -53.747  1.00  0.00    -0.041 NA
HETATM    9  C   UNL     1     -41.745  57.427 -54.331  1.00  0.00     0.202 C 
HETATM   10  C   UNL     1     -43.003  57.973 -55.003  1.00  0.00     0.062 C 
HETATM   11  H   UNL     1     -45.051  55.472 -54.469  1.00  0.00     0.184 HD
ENDROOT
BRANCH  10  12
HETATM   12  C   UNL     1     -42.853  59.164 -55.899  1.00  0.00     0.256 C 
HETATM   13  N   UNL     1     -42.108  58.942 -57.036  1.00  0.00    -0.323 N 
HETATM   14  H   UNL     1     -41.628  58.058 -57.137  1.00  0.00     0.169 HD
HETATM   15  O   UNL     1     -43.434  60.204 -55.607  1.00  0.00    -0.267 OA
BRANCH  13  16
HETATM   16  C   UNL     1     -41.931  59.825 -58.126  1.00  0.00     0.035 A 
HETATM   17  C   UNL     1     -41.335  61.084 -58.028  1.00  0.00     0.029 A 
HETATM   18  C   UNL     1     -41.219  61.904 -59.155  1.00  0.00     0.002 A 
HETATM   19  C   UNL     1     -41.707  61.478 -60.387  1.00  0.00     0.000 A 
HETATM   20  C   UNL     1     -42.303  60.224 -60.497  1.00  0.00     0.002 A 
HETATM   21  C   UNL     1     -42.407  59.399 -59.373  1.00  0.00     0.029 A 
ENDBRANCH  13  16
ENDBRANCH  10  12
BRANCH   9  22
HETATM   22  C   UNL     1     -41.370  58.158 -53.039  1.00  0.00    -0.025 A 
HETATM   23  C   UNL     1     -40.042  58.574 -52.837  1.00  0.00     0.046 A 
HETATM   24  C   UNL     1     -39.692  59.246 -51.670  1.00  0.00     0.066 A 
HETATM   25  C   UNL     1     -40.638  59.521 -50.691  1.00  0.00     0.036 A 
HETATM   26  C   UNL     1     -41.952  59.096 -50.865  1.00  0.00     0.003 A 
HETATM   27  C   UNL     1     -42.316  58.411 -52.026  1.00  0.00     0.010 A 
BRANCH  24  28
HETATM   28  O   UNL     1     -38.411  59.655 -51.443  1.00  0.00    -0.361 OA
HETATM   29  H   UNL     1     -38.431  60.539 -51.039  1.00  0.00     0.217 HD
ENDBRANCH  24  28
ENDBRANCH   9  22
BRANCH   7  30
HETATM   30  C   UNL     1     -40.788  52.743 -53.401  1.00  0.00     0.036 A 
HETATM   31  C   UNL     1     -40.173  52.455 -52.173  1.00  0.00     0.048 A 
HETATM   32 CL   UNL     1     -40.219  53.524 -50.812  1.00  0.00    -0.083 Cl
HETATM   33  C   UNL     1     -39.522  51.228 -51.982  1.00  0.00     0.025 A 
HETATM   34  C   UNL     1     -39.480  50.280 -53.005  1.00  0.00     0.002 A 
HETATM   35  C   UNL     1     -40.094  50.551 -54.224  1.00  0.00     0.001 A 
HETATM   36  C   UNL     1     -40.744  51.772 -54.419  1.00  0.00     0.017 A 
ENDBRANCH   7  30
TORSDOF 5
ENDMDL
MODEL 2
REMARK VINA RESULT:      -9.5      3.508      9.054
REMARK  5 active torsions:
REMARK  status: ('A' for Active; 'I' for Inactive)
REMARK    1  A    between atoms: C_7  and  C_8 
REMARK    2  A    between atoms: C_16  and  C_17 
REMARK    3  A    between atoms: C_19  and  O_20 
REMARK    4  A    between atoms: C_24  and  C_25 
REMARK       I    between atoms: C_25  and  N_26 
REMARK    5  A    between atoms: N_26  and  C_27 
ROOT
HETATM    1  C   UNL     1     -43.646  57.789 -53.529  1.00  0.00     0.070 C 
HETATM    2  C   UNL     1     -43.299  57.950 -54.988  1.00  0.00     0.037 C 
HETATM    3  N   UNL     1     -43.308  59.261 -55.469  1.00  0.00    -0.192 N 
HETATM    4  C   UNL     1     -42.736  59.596 -56.644  1.00  0.00     0.726 A 
HETATM    5  N   UNL     1     -42.401  58.611 -57.522  1.00  0.00    -0.083 N 
HETATM    6  N   UNL     1     -41.735  59.091 -58.589  1.00  0.00    -0.135 NA
HETATM    7  C   UNL     1     -41.711  60.409 -58.303  1.00  0.00     0.200 A 
HETATM    8  N   UNL     1     -42.357  60.748 -57.128  1.00  0.00    -0.041 NA
HETATM    9  C   UNL     1     -42.667  57.191 -57.290  1.00  0.00     0.202 C 
HETATM   10  C   UNL     1     -42.974  56.923 -55.819  1.00  0.00     0.062 C 
HETATM   11  H   UNL     1     -43.409  59.998 -54.774  1.00  0.00     0.184 HD
ENDROOT
BRANCH  10  12
HETATM   12  C   UNL     1     -42.671  55.560 -55.280  1.00  0.00     0.256 C 
HETATM   13  N   UNL     1     -41.383  55.391 -54.823  1.00  0.00    -0.323 N 
HETATM   14  H   UNL     1     -40.712  56.131 -54.978  1.00  0.00     0.169 HD
HETATM   15  O   UNL     1     -43.572  54.729 -55.223  1.00  0.00    -0.267 OA
BRANCH  13  16
HETATM   16  C   UNL     1     -40.863  54.276 -54.127  1.00  0.00     0.035 A 
HETATM   17  C   UNL     1     -40.338  53.139 -54.747  1.00  0.00     0.029 A 
HETATM   18  C   UNL     1     -39.864  52.069 -53.981  1.00  0.00     0.002 A 
HETATM   19  C   UNL     1     -39.919  52.121 -52.591  1.00  0.00     0.000 A 
HETATM   20  C   UNL     1     -40.440  53.248 -51.962  1.00  0.00     0.002 A 
HETATM   21  C   UNL     1     -40.903  54.324 -52.727  1.00  0.00     0.029 A 
ENDBRANCH  13  16
ENDBRANCH  10  12
BRANCH   9  22
HETATM   22  C   UNL     1     -43.776  56.737 -58.243  1.00  0.00    -0.025 A 
HETATM   23  C   UNL     1     -43.664  55.499 -58.900  1.00  0.00     0.046 A 
HETATM   24  C   UNL     1     -44.671  55.073 -59.762  1.00  0.00     0.066 A 
HETATM   25  C   UNL     1     -45.797  55.854 -59.988  1.00  0.00     0.036 A 
HETATM   26  C   UNL     1     -45.912  57.093 -59.364  1.00  0.00     0.003 A 
HETATM   27  C   UNL     1     -44.905  57.537 -58.505  1.00  0.00     0.010 A 
BRANCH  24  28
HETATM   28  O   UNL     1     -44.587  53.881 -60.417  1.00  0.00    -0.361 OA
HETATM   29  H   UNL     1     -43.805  53.893 -60.994  1.00  0.00     0.217 HD
ENDBRANCH  24  28
ENDBRANCH   9  22
BRANCH   7  30
HETATM   30  C   UNL     1     -41.081  61.391 -59.178  1.00  0.00     0.036 A 
HETATM   31  C   UNL     1     -41.391  61.512 -60.542  1.00  0.00     0.048 A 
HETATM   32 CL   UNL     1     -42.590  60.546 -61.333  1.00  0.00    -0.083 Cl
HETATM   33  C   UNL     1     -40.754  62.485 -61.325  1.00  0.00     0.025 A 
HETATM   34  C   UNL     1     -39.812  63.345 -60.761  1.00  0.00     0.002 A 
HETATM   35  C   UNL     1     -39.503  63.241 -59.408  1.00  0.00     0.001 A 
HETATM   36  C   UNL     1     -40.135  62.273 -58.623  1.00  0.00     0.017 A 
ENDBRANCH   7  30
TORSDOF 5
ENDMDL
MODEL 3
REMARK VINA RESULT:      -9.1      2.179      3.091
REMARK  5 active torsions:
REMARK  status: ('A' for Active; 'I' for Inactive)
REMARK    1  A    between atoms: C_7  and  C_8 
REMARK    2  A    between atoms: C_16  and  C_17 
REMARK    3  A    between atoms: C_19  and  O_20 
REMARK    4  A    between atoms: C_24  and  C_25 
REMARK       I    between atoms: C_25  and  N_26 
REMARK    5  A    between atoms: N_26  and  C_27 
ROOT
HETATM    1  C   UNL     1     -43.941  55.801 -59.659  1.00  0.00     0.070 C 
HETATM    2  C   UNL     1     -43.358  56.048 -58.290  1.00  0.00     0.037 C 
HETATM    3  N   UNL     1     -43.595  55.048 -57.345  1.00  0.00    -0.192 N 
HETATM    4  C   UNL     1     -42.898  54.973 -56.191  1.00  0.00     0.726 A 
HETATM    5  N   UNL     1     -42.159  56.046 -55.794  1.00  0.00    -0.083 N 
HETATM    6  N   UNL     1     -41.431  55.777 -54.695  1.00  0.00    -0.135 NA
HETATM    7  C   UNL     1     -41.794  54.500 -54.453  1.00  0.00     0.200 A 
HETATM    8  N   UNL     1     -42.728  53.997 -55.341  1.00  0.00    -0.041 NA
HETATM    9  C   UNL     1     -42.104  57.311 -56.527  1.00  0.00     0.202 C 
HETATM   10  C   UNL     1     -42.626  57.143 -57.952  1.00  0.00     0.062 C 
HETATM   11  H   UNL     1     -44.014  54.186 -57.691  1.00  0.00     0.184 HD
ENDROOT
BRANCH  10  12
HETATM   12  C   UNL     1     -42.110  58.081 -58.998  1.00  0.00     0.256 C 
HETATM   13  N   UNL     1     -42.310  59.417 -58.727  1.00  0.00    -0.323 N 
HETATM   14  H   UNL     1     -42.872  59.671 -57.927  1.00  0.00     0.169 HD
HETATM   15  O   UNL     1     -41.509  57.622 -59.964  1.00  0.00    -0.267 OA
BRANCH  13  16
HETATM   16  C   UNL     1     -41.798  60.519 -59.448  1.00  0.00     0.035 A 
HETATM   17  C   UNL     1     -42.038  60.750 -60.805  1.00  0.00     0.029 A 
HETATM   18  C   UNL     1     -41.473  61.857 -61.447  1.00  0.00     0.002 A 
HETATM   19  C   UNL     1     -40.656  62.737 -60.742  1.00  0.00     0.000 A 
HETATM   20  C   UNL     1     -40.410  62.517 -59.390  1.00  0.00     0.002 A 
HETATM   21  C   UNL     1     -40.985  61.418 -58.744  1.00  0.00     0.029 A 
ENDBRANCH  13  16
ENDBRANCH  10  12
BRANCH   9  22
HETATM   22  C   UNL     1     -42.850  58.377 -55.719  1.00  0.00    -0.025 A 
HETATM   23  C   UNL     1     -42.121  59.372 -55.044  1.00  0.00     0.046 A 
HETATM   24  C   UNL     1     -42.789  60.351 -54.313  1.00  0.00     0.066 A 
HETATM   25  C   UNL     1     -44.176  60.367 -54.239  1.00  0.00     0.036 A 
HETATM   26  C   UNL     1     -44.911  59.376 -54.883  1.00  0.00     0.003 A 
HETATM   27  C   UNL     1     -44.254  58.382 -55.611  1.00  0.00     0.010 A 
BRANCH  24  28
HETATM   28  O   UNL     1     -42.110  61.324 -53.642  1.00  0.00    -0.361 OA
HETATM   29  H   UNL     1     -42.654  61.631 -52.898  1.00  0.00     0.217 HD
ENDBRANCH  24  28
ENDBRANCH   9  22
BRANCH   7  30
HETATM   30  C   UNL     1     -41.265  53.731 -53.333  1.00  0.00     0.036 A 
HETATM   31  C   UNL     1     -41.665  53.940 -52.004  1.00  0.00     0.048 A 
HETATM   32 CL   UNL     1     -42.868  55.096 -51.544  1.00  0.00    -0.083 Cl
HETATM   33  C   UNL     1     -41.123  53.157 -50.975  1.00  0.00     0.025 A 
HETATM   34  C   UNL     1     -40.185  52.164 -51.257  1.00  0.00     0.002 A 
HETATM   35  C   UNL     1     -39.788  51.941 -52.571  1.00  0.00     0.001 A 
HETATM   36  C   UNL     1     -40.325  52.718 -53.601  1.00  0.00     0.017 A 
ENDBRANCH   7  30
TORSDOF 5
ENDMDL
MODEL 4
REMARK VINA RESULT:      -8.8      3.706      8.076
REMARK  5 active torsions:
REMARK  status: ('A' for Active; 'I' for Inactive)
REMARK    1  A    between atoms: C_7  and  C_8 
REMARK    2  A    between atoms: C_16  and  C_17 
REMARK    3  A    between atoms: C_19  and  O_20 
REMARK    4  A    between atoms: C_24  and  C_25 
REMARK       I    between atoms: C_25  and  N_26 
REMARK    5  A    between atoms: N_26  and  C_27 
ROOT
HETATM    1  C   UNL     1     -42.608  56.486 -56.300  1.00  0.00     0.070 C 
HETATM    2  C   UNL     1     -42.859  57.351 -55.090  1.00  0.00     0.037 C 
HETATM    3  N   UNL     1     -43.334  58.636 -55.356  1.00  0.00    -0.192 N 
HETATM    4  C   UNL     1     -43.886  59.409 -54.397  1.00  0.00     0.726 A 
HETATM    5  N   UNL     1     -43.718  59.063 -53.091  1.00  0.00    -0.083 N 
HETATM    6  N   UNL     1     -44.424  59.857 -52.265  1.00  0.00    -0.135 NA
HETATM    7  C   UNL     1     -45.000  60.699 -53.148  1.00  0.00     0.200 A 
HETATM    8  N   UNL     1     -44.651  60.465 -54.466  1.00  0.00    -0.041 NA
HETATM    9  C   UNL     1     -42.927  57.914 -52.650  1.00  0.00     0.202 C 
HETATM   10  C   UNL     1     -42.670  56.949 -53.805  1.00  0.00     0.062 C 
HETATM   11  H   UNL     1     -43.599  58.831 -56.320  1.00  0.00     0.184 HD
ENDROOT
BRANCH  10  12
HETATM   12  C   UNL     1     -42.447  55.507 -53.471  1.00  0.00     0.256 C 
HETATM   13  N   UNL     1     -41.131  55.101 -53.512  1.00  0.00    -0.323 N 
HETATM   14  H   UNL     1     -40.435  55.745 -53.863  1.00  0.00     0.169 HD
HETATM   15  O   UNL     1     -43.404  54.819 -53.134  1.00  0.00    -0.267 OA
BRANCH  13  16
HETATM   16  C   UNL     1     -40.609  53.854 -53.099  1.00  0.00     0.035 A 
HETATM   17  C   UNL     1     -40.330  53.520 -51.771  1.00  0.00     0.029 A 
HETATM   18  C   UNL     1     -39.794  52.269 -51.452  1.00  0.00     0.002 A 
HETATM   19  C   UNL     1     -39.521  51.344 -52.456  1.00  0.00     0.000 A 
HETATM   20  C   UNL     1     -39.795  51.665 -53.782  1.00  0.00     0.002 A 
HETATM   21  C   UNL     1     -40.344  52.911 -54.101  1.00  0.00     0.029 A 
ENDBRANCH  13  16
ENDBRANCH  10  12
BRANCH   9  22
HETATM   22  C   UNL     1     -41.650  58.427 -51.980  1.00  0.00    -0.025 A 
HETATM   23  C   UNL     1     -40.493  58.630 -52.754  1.00  0.00     0.046 A 
HETATM   24  C   UNL     1     -39.328  59.103 -52.157  1.00  0.00     0.066 A 
HETATM   25  C   UNL     1     -39.285  59.386 -50.797  1.00  0.00     0.036 A 
HETATM   26  C   UNL     1     -40.414  59.169 -50.013  1.00  0.00     0.003 A 
HETATM   27  C   UNL     1     -41.586  58.684 -50.596  1.00  0.00     0.010 A 
BRANCH  24  28
HETATM   28  O   UNL     1     -38.190  59.303 -52.880  1.00  0.00    -0.361 OA
HETATM   29  H   UNL     1     -38.360  59.060 -53.806  1.00  0.00     0.217 HD
ENDBRANCH  24  28
ENDBRANCH   9  22
BRANCH   7  30
HETATM   30  C   UNL     1     -45.890  61.778 -52.740  1.00  0.00     0.036 A 
HETATM   31  C   UNL     1     -45.427  63.031 -52.309  1.00  0.00     0.048 A 
HETATM   32 CL   UNL     1     -43.751  63.460 -52.262  1.00  0.00    -0.083 Cl
HETATM   33  C   UNL     1     -46.339  64.030 -51.939  1.00  0.00     0.025 A 
HETATM   34  C   UNL     1     -47.712  63.793 -51.996  1.00  0.00     0.002 A 
HETATM   35  C   UNL     1     -48.184  62.558 -52.429  1.00  0.00     0.001 A 
HETATM   36  C   UNL     1     -47.280  61.560 -52.799  1.00  0.00     0.017 A 
ENDBRANCH   7  30
TORSDOF 5
ENDMDL
MODEL 5
REMARK VINA RESULT:      -8.3      3.701      6.074
REMARK  5 active torsions:
REMARK  status: ('A' for Active; 'I' for Inactive)
REMARK    1  A    between atoms: C_7  and  C_8 
REMARK    2  A    between atoms: C_16  and  C_17 
REMARK    3  A    between atoms: C_19  and  O_20 
REMARK    4  A    between atoms: C_24  and  C_25 
REMARK       I    between atoms: C_25  and  N_26 
REMARK    5  A    between atoms: N_26  and  C_27 
ROOT
HETATM    1  C   UNL     1     -42.858  61.099 -50.191  1.00  0.00     0.070 C 
HETATM    2  C   UNL     1     -42.973  59.831 -50.999  1.00  0.00     0.037 C 
HETATM    3  N   UNL     1     -41.801  59.080 -51.113  1.00  0.00    -0.192 N 
HETATM    4  C   UNL     1     -41.810  57.798 -51.534  1.00  0.00     0.726 A 
HETATM    5  N   UNL     1     -42.927  57.308 -52.139  1.00  0.00    -0.083 N 
HETATM    6  N   UNL     1     -42.826  55.990 -52.391  1.00  0.00    -0.135 NA
HETATM    7  C   UNL     1     -41.587  55.733 -51.921  1.00  0.00     0.200 A 
HETATM    8  N   UNL     1     -40.927  56.842 -51.424  1.00  0.00    -0.041 NA
HETATM    9  C   UNL     1     -44.123  58.107 -52.408  1.00  0.00     0.202 C 
HETATM   10  C   UNL     1     -44.120  59.392 -51.584  1.00  0.00     0.062 C 
HETATM   11  H   UNL     1     -41.017  59.374 -50.533  1.00  0.00     0.184 HD
ENDROOT
BRANCH  10  12
HETATM   12  C   UNL     1     -45.443  60.006 -51.245  1.00  0.00     0.256 C 
HETATM   13  N   UNL     1     -45.683  61.226 -51.838  1.00  0.00    -0.323 N 
HETATM   14  H   UNL     1     -44.935  61.671 -52.353  1.00  0.00     0.169 HD
HETATM   15  O   UNL     1     -46.226  59.380 -50.540  1.00  0.00    -0.267 OA
BRANCH  13  16
HETATM   16  C   UNL     1     -46.893  61.958 -51.826  1.00  0.00     0.035 A 
HETATM   17  C   UNL     1     -47.897  61.829 -52.788  1.00  0.00     0.029 A 
HETATM   18  C   UNL     1     -49.056  62.609 -52.713  1.00  0.00     0.002 A 
HETATM   19  C   UNL     1     -49.217  63.530 -51.682  1.00  0.00     0.000 A 
HETATM   20  C   UNL     1     -48.223  63.667 -50.717  1.00  0.00     0.002 A 
HETATM   21  C   UNL     1     -47.070  62.878 -50.785  1.00  0.00     0.029 A 
ENDBRANCH  13  16
ENDBRANCH  10  12
BRANCH   9  22
HETATM   22  C   UNL     1     -44.225  58.343 -53.917  1.00  0.00    -0.025 A 
HETATM   23  C   UNL     1     -45.396  57.970 -54.601  1.00  0.00     0.046 A 
HETATM   24  C   UNL     1     -45.503  58.188 -55.971  1.00  0.00     0.066 A 
HETATM   25  C   UNL     1     -44.466  58.775 -56.686  1.00  0.00     0.036 A 
HETATM   26  C   UNL     1     -43.292  59.128 -56.028  1.00  0.00     0.003 A 
HETATM   27  C   UNL     1     -43.166  58.906 -54.656  1.00  0.00     0.010 A 
BRANCH  24  28
HETATM   28  O   UNL     1     -46.623  57.831 -56.662  1.00  0.00    -0.361 OA
HETATM   29  H   UNL     1     -46.667  56.861 -56.709  1.00  0.00     0.217 HD
ENDBRANCH  24  28
ENDBRANCH   9  22
BRANCH   7  30
HETATM   30  C   UNL     1     -40.990  54.404 -51.965  1.00  0.00     0.036 A 
HETATM   31  C   UNL     1     -40.658  53.676 -50.811  1.00  0.00     0.048 A 
HETATM   32 CL   UNL     1     -40.964  54.247 -49.206  1.00  0.00    -0.083 Cl
HETATM   33  C   UNL     1     -40.094  52.397 -50.924  1.00  0.00     0.025 A 
HETATM   34  C   UNL     1     -39.861  51.832 -52.178  1.00  0.00     0.002 A 
HETATM   35  C   UNL     1     -40.194  52.540 -53.328  1.00  0.00     0.001 A 
HETATM   36  C   UNL     1     -40.756  53.815 -53.221  1.00  0.00     0.017 A 
ENDBRANCH   7  30
TORSDOF 5
ENDMDL
MODEL 6
REMARK VINA RESULT:      -8.3      3.621      8.155
REMARK  5 active torsions:
REMARK  status: ('A' for Active; 'I' for Inactive)
REMARK    1  A    between atoms: C_7  and  C_8 
REMARK    2  A    between atoms: C_16  and  C_17 
REMARK    3  A    between atoms: C_19  and  O_20 
REMARK    4  A    between atoms: C_24  and  C_25 
REMARK       I    between atoms: C_25  and  N_26 
REMARK    5  A    between atoms: N_26  and  C_27 
ROOT
HETATM    1  C   UNL     1     -40.567  54.396 -55.432  1.00  0.00     0.070 C 
HETATM    2  C   UNL     1     -41.666  55.429 -55.435  1.00  0.00     0.037 C 
HETATM    3  N   UNL     1     -41.902  56.053 -56.662  1.00  0.00    -0.192 N 
HETATM    4  C   UNL     1     -43.027  56.761 -56.901  1.00  0.00     0.726 A 
HETATM    5  N   UNL     1     -43.814  57.127 -55.851  1.00  0.00    -0.083 N 
HETATM    6  N   UNL     1     -44.952  57.718 -56.258  1.00  0.00    -0.135 NA
HETATM    7  C   UNL     1     -44.787  57.698 -57.597  1.00  0.00     0.200 A 
HETATM    8  N   UNL     1     -43.589  57.148 -58.014  1.00  0.00    -0.041 NA
HETATM    9  C   UNL     1     -43.491  56.838 -54.454  1.00  0.00     0.202 C 
HETATM   10  C   UNL     1     -42.420  55.755 -54.351  1.00  0.00     0.062 C 
HETATM   11  H   UNL     1     -41.416  55.666 -57.469  1.00  0.00     0.184 HD
ENDROOT
BRANCH  10  12
HETATM   12  C   UNL     1     -42.396  54.913 -53.113  1.00  0.00     0.256 C 
HETATM   13  N   UNL     1     -41.248  55.025 -52.360  1.00  0.00    -0.323 N 
HETATM   14  H   UNL     1     -40.473  55.558 -52.732  1.00  0.00     0.169 HD
HETATM   15  O   UNL     1     -43.386  54.250 -52.825  1.00  0.00    -0.267 OA
BRANCH  13  16
HETATM   16  C   UNL     1     -41.011  54.477 -51.078  1.00  0.00     0.035 A 
HETATM   17  C   UNL     1     -40.626  53.154 -50.849  1.00  0.00     0.029 A 
HETATM   18  C   UNL     1     -40.434  52.687 -49.545  1.00  0.00     0.002 A 
HETATM   19  C   UNL     1     -40.634  53.534 -48.458  1.00  0.00     0.000 A 
HETATM   20  C   UNL     1     -41.017  54.855 -48.675  1.00  0.00     0.002 A 
HETATM   21  C   UNL     1     -41.197  55.326 -49.979  1.00  0.00     0.029 A 
ENDBRANCH  13  16
ENDBRANCH  10  12
BRANCH   9  22
HETATM   22  C   UNL     1     -43.112  58.147 -53.757  1.00  0.00    -0.025 A 
HETATM   23  C   UNL     1     -43.502  58.363 -52.424  1.00  0.00     0.046 A 
HETATM   24  C   UNL     1     -43.156  59.546 -51.778  1.00  0.00     0.066 A 
HETATM   25  C   UNL     1     -42.422  60.529 -52.430  1.00  0.00     0.036 A 
HETATM   26  C   UNL     1     -42.048  60.340 -53.758  1.00  0.00     0.003 A 
HETATM   27  C   UNL     1     -42.397  59.163 -54.421  1.00  0.00     0.010 A 
BRANCH  24  28
HETATM   28  O   UNL     1     -43.526  59.786 -50.488  1.00  0.00    -0.361 OA
HETATM   29  H   UNL     1     -44.494  59.863 -50.448  1.00  0.00     0.217 HD
ENDBRANCH  24  28
ENDBRANCH   9  22
BRANCH   7  30
HETATM   30  C   UNL     1     -45.779  58.239 -58.519  1.00  0.00     0.036 A 
HETATM   31  C   UNL     1     -46.300  57.508 -59.597  1.00  0.00     0.048 A 
HETATM   32 CL   UNL     1     -45.869  55.865 -59.930  1.00  0.00    -0.083 Cl
HETATM   33  C   UNL     1     -47.260  58.086 -60.441  1.00  0.00     0.025 A 
HETATM   34  C   UNL     1     -47.709  59.387 -60.219  1.00  0.00     0.002 A 
HETATM   35  C   UNL     1     -47.206  60.119 -59.148  1.00  0.00     0.001 A 
HETATM   36  C   UNL     1     -46.250  59.548 -58.304  1.00  0.00     0.017 A 
ENDBRANCH   7  30
TORSDOF 5
ENDMDL
MODEL 7
REMARK VINA RESULT:      -8.3      3.824      8.736
REMARK  5 active torsions:
REMARK  status: ('A' for Active; 'I' for Inactive)
REMARK    1  A    between atoms: C_7  and  C_8 
REMARK    2  A    between atoms: C_16  and  C_17 
REMARK    3  A    between atoms: C_19  and  O_20 
REMARK    4  A    between atoms: C_24  and  C_25 
REMARK       I    between atoms: C_25  and  N_26 
REMARK    5  A    between atoms: N_26  and  C_27 
ROOT
HETATM    1  C   UNL     1     -44.322  54.669 -50.251  1.00  0.00     0.070 C 
HETATM    2  C   UNL     1     -44.135  56.015 -50.904  1.00  0.00     0.037 C 
HETATM    3  N   UNL     1     -45.095  56.978 -50.587  1.00  0.00    -0.192 N 
HETATM    4  C   UNL     1     -44.905  58.290 -50.839  1.00  0.00     0.726 A 
HETATM    5  N   UNL     1     -43.900  58.664 -51.678  1.00  0.00    -0.083 N 
HETATM    6  N   UNL     1     -43.761  60.001 -51.734  1.00  0.00    -0.135 NA
HETATM    7  C   UNL     1     -44.747  60.396 -50.901  1.00  0.00     0.200 A 
HETATM    8  N   UNL     1     -45.491  59.359 -50.368  1.00  0.00    -0.041 NA
HETATM    9  C   UNL     1     -43.026  57.717 -52.371  1.00  0.00     0.202 C 
HETATM   10  C   UNL     1     -43.108  56.330 -51.738  1.00  0.00     0.062 C 
HETATM   11  H   UNL     1     -45.751  56.737 -49.845  1.00  0.00     0.184 HD
ENDROOT
BRANCH  10  12
HETATM   12  C   UNL     1     -41.916  55.433 -51.868  1.00  0.00     0.256 C 
HETATM   13  N   UNL     1     -42.168  54.221 -52.474  1.00  0.00    -0.323 N 
HETATM   14  H   UNL     1     -43.126  53.972 -52.681  1.00  0.00     0.169 HD
HETATM   15  O   UNL     1     -40.821  55.841 -51.500  1.00  0.00    -0.267 OA
BRANCH  13  16
HETATM   16  C   UNL     1     -41.220  53.250 -52.867  1.00  0.00     0.035 A 
HETATM   17  C   UNL     1     -41.036  52.819 -54.183  1.00  0.00     0.029 A 
HETATM   18  C   UNL     1     -40.088  51.836 -54.482  1.00  0.00     0.002 A 
HETATM   19  C   UNL     1     -39.321  51.267 -53.468  1.00  0.00     0.000 A 
HETATM   20  C   UNL     1     -39.495  51.689 -52.153  1.00  0.00     0.002 A 
HETATM   21  C   UNL     1     -40.434  52.681 -51.855  1.00  0.00     0.029 A 
ENDBRANCH  13  16
ENDBRANCH  10  12
BRANCH   9  22
HETATM   22  C   UNL     1     -43.370  57.734 -53.863  1.00  0.00    -0.025 A 
HETATM   23  C   UNL     1     -44.718  57.743 -54.264  1.00  0.00     0.046 A 
HETATM   24  C   UNL     1     -45.042  57.767 -55.618  1.00  0.00     0.066 A 
HETATM   25  C   UNL     1     -44.051  57.786 -56.591  1.00  0.00     0.036 A 
HETATM   26  C   UNL     1     -42.712  57.754 -56.210  1.00  0.00     0.003 A 
HETATM   27  C   UNL     1     -42.372  57.719 -54.857  1.00  0.00     0.010 A 
BRANCH  24  28
HETATM   28  O   UNL     1     -46.339  57.768 -56.037  1.00  0.00    -0.361 OA
HETATM   29  H   UNL     1     -46.453  57.074 -56.708  1.00  0.00     0.217 HD
ENDBRANCH  24  28
ENDBRANCH   9  22
BRANCH   7  30
HETATM   30  C   UNL     1     -45.018  61.799 -50.614  1.00  0.00     0.036 A 
HETATM   31  C   UNL     1     -46.089  62.504 -51.186  1.00  0.00     0.048 A 
HETATM   32 CL   UNL     1     -47.242  61.780 -52.255  1.00  0.00    -0.083 Cl
HETATM   33  C   UNL     1     -46.299  63.851 -50.859  1.00  0.00     0.025 A 
HETATM   34  C   UNL     1     -45.453  64.505 -49.964  1.00  0.00     0.002 A 
HETATM   35  C   UNL     1     -44.393  63.815 -49.385  1.00  0.00     0.001 A 
HETATM   36  C   UNL     1     -44.179  62.472 -49.706  1.00  0.00     0.017 A 
ENDBRANCH   7  30
TORSDOF 5
ENDMDL
MODEL 8
REMARK VINA RESULT:      -8.0      3.514      8.400
REMARK  5 active torsions:
REMARK  status: ('A' for Active; 'I' for Inactive)
REMARK    1  A    between atoms: C_7  and  C_8 
REMARK    2  A    between atoms: C_16  and  C_17 
REMARK    3  A    between atoms: C_19  and  O_20 
REMARK    4  A    between atoms: C_24  and  C_25 
REMARK       I    between atoms: C_25  and  N_26 
REMARK    5  A    between atoms: N_26  and  C_27 
ROOT
HETATM    1  C   UNL     1     -44.382  54.861 -50.315  1.00  0.00     0.070 C 
HETATM    2  C   UNL     1     -43.870  56.157 -50.892  1.00  0.00     0.037 C 
HETATM    3  N   UNL     1     -44.678  57.275 -50.674  1.00  0.00    -0.192 N 
HETATM    4  C   UNL     1     -44.225  58.533 -50.855  1.00  0.00     0.726 A 
HETATM    5  N   UNL     1     -43.064  58.725 -51.540  1.00  0.00    -0.083 N 
HETATM    6  N   UNL     1     -42.683  60.016 -51.533  1.00  0.00    -0.135 NA
HETATM    7  C   UNL     1     -43.687  60.576 -50.826  1.00  0.00     0.200 A 
HETATM    8  N   UNL     1     -44.669  59.686 -50.432  1.00  0.00    -0.041 NA
HETATM    9  C   UNL     1     -42.286  57.642 -52.141  1.00  0.00     0.202 C 
HETATM   10  C   UNL     1     -42.699  56.288 -51.571  1.00  0.00     0.062 C 
HETATM   11  H   UNL     1     -45.462  57.150 -50.035  1.00  0.00     0.184 HD
ENDROOT
BRANCH  10  12
HETATM   12  C   UNL     1     -41.680  55.191 -51.571  1.00  0.00     0.256 C 
HETATM   13  N   UNL     1     -41.926  54.174 -52.468  1.00  0.00    -0.323 N 
HETATM   14  H   UNL     1     -42.803  54.171 -52.970  1.00  0.00     0.169 HD
HETATM   15  O   UNL     1     -40.697  55.292 -50.846  1.00  0.00    -0.267 OA
BRANCH  13  16
HETATM   16  C   UNL     1     -41.067  53.099 -52.795  1.00  0.00     0.035 A 
HETATM   17  C   UNL     1     -40.155  52.525 -51.908  1.00  0.00     0.029 A 
HETATM   18  C   UNL     1     -39.326  51.477 -52.322  1.00  0.00     0.002 A 
HETATM   19  C   UNL     1     -39.395  51.001 -53.628  1.00  0.00     0.000 A 
HETATM   20  C   UNL     1     -40.300  51.565 -54.521  1.00  0.00     0.002 A 
HETATM   21  C   UNL     1     -41.138  52.605 -54.104  1.00  0.00     0.029 A 
ENDBRANCH  13  16
ENDBRANCH  10  12
BRANCH   9  22
HETATM   22  C   UNL     1     -42.413  57.734 -53.664  1.00  0.00    -0.025 A 
HETATM   23  C   UNL     1     -41.910  58.862 -54.336  1.00  0.00     0.046 A 
HETATM   24  C   UNL     1     -42.014  58.953 -55.722  1.00  0.00     0.066 A 
HETATM   25  C   UNL     1     -42.608  57.939 -56.463  1.00  0.00     0.036 A 
HETATM   26  C   UNL     1     -43.131  56.827 -55.810  1.00  0.00     0.003 A 
HETATM   27  C   UNL     1     -43.044  56.727 -54.420  1.00  0.00     0.010 A 
BRANCH  24  28
HETATM   28  O   UNL     1     -41.542  60.037 -56.400  1.00  0.00    -0.361 OA
HETATM   29  H   UNL     1     -41.153  59.738 -57.239  1.00  0.00     0.217 HD
ENDBRANCH  24  28
ENDBRANCH   9  22
BRANCH   7  30
HETATM   30  C   UNL     1     -43.741  62.003 -50.532  1.00  0.00     0.036 A 
HETATM   31  C   UNL     1     -44.155  62.514 -49.292  1.00  0.00     0.048 A 
HETATM   32 CL   UNL     1     -44.601  61.513 -47.952  1.00  0.00    -0.083 Cl
HETATM   33  C   UNL     1     -44.175  63.898 -49.073  1.00  0.00     0.025 A 
HETATM   34  C   UNL     1     -43.780  64.782 -50.077  1.00  0.00     0.002 A 
HETATM   35  C   UNL     1     -43.359  64.287 -51.307  1.00  0.00     0.001 A 
HETATM   36  C   UNL     1     -43.338  62.908 -51.531  1.00  0.00     0.017 A 
ENDBRANCH   7  30
TORSDOF 5
ENDMDL
MODEL 9
REMARK VINA RESULT:      -7.9      3.676      9.125
REMARK  5 active torsions:
REMARK  status: ('A' for Active; 'I' for Inactive)
REMARK    1  A    between atoms: C_7  and  C_8 
REMARK    2  A    between atoms: C_16  and  C_17 
REMARK    3  A    between atoms: C_19  and  O_20 
REMARK    4  A    between atoms: C_24  and  C_25 
REMARK       I    between atoms: C_25  and  N_26 
REMARK    5  A    between atoms: N_26  and  C_27 
ROOT
HETATM    1  C   UNL     1     -43.533  61.318 -53.559  1.00  0.00     0.070 C 
HETATM    2  C   UNL     1     -42.965  60.926 -54.900  1.00  0.00     0.037 C 
HETATM    3  N   UNL     1     -42.920  61.943 -55.856  1.00  0.00    -0.192 N 
HETATM    4  C   UNL     1     -42.177  61.839 -56.978  1.00  0.00     0.726 A 
HETATM    5  N   UNL     1     -41.692  60.619 -57.340  1.00  0.00    -0.083 N 
HETATM    6  N   UNL     1     -40.875  60.698 -58.407  1.00  0.00    -0.135 NA
HETATM    7  C   UNL     1     -40.918  62.021 -58.666  1.00  0.00     0.200 A 
HETATM    8  N   UNL     1     -41.746  62.739 -57.821  1.00  0.00    -0.041 NA
HETATM    9  C   UNL     1     -41.966  59.384 -56.605  1.00  0.00     0.202 C 
HETATM   10  C   UNL     1     -42.496  59.686 -55.205  1.00  0.00     0.062 C 
HETATM   11  H   UNL     1     -43.141  62.882 -55.530  1.00  0.00     0.184 HD
ENDROOT
BRANCH  10  12
HETATM   12  C   UNL     1     -42.258  58.666 -54.135  1.00  0.00     0.256 C 
HETATM   13  N   UNL     1     -43.343  57.867 -53.847  1.00  0.00    -0.323 N 
HETATM   14  H   UNL     1     -44.233  58.084 -54.275  1.00  0.00     0.169 HD
HETATM   15  O   UNL     1     -41.139  58.567 -53.645  1.00  0.00    -0.267 OA
BRANCH  13  16
HETATM   16  C   UNL     1     -43.367  56.732 -53.004  1.00  0.00     0.035 A 
HETATM   17  C   UNL     1     -43.642  56.776 -51.636  1.00  0.00     0.029 A 
HETATM   18  C   UNL     1     -43.623  55.605 -50.871  1.00  0.00     0.002 A 
HETATM   19  C   UNL     1     -43.321  54.383 -51.464  1.00  0.00     0.000 A 
HETATM   20  C   UNL     1     -43.047  54.327 -52.827  1.00  0.00     0.002 A 
HETATM   21  C   UNL     1     -43.077  55.495 -53.595  1.00  0.00     0.029 A 
ENDBRANCH  13  16
ENDBRANCH  10  12
BRANCH   9  22
HETATM   22  C   UNL     1     -42.905  58.513 -57.443  1.00  0.00    -0.025 A 
HETATM   23  C   UNL     1     -42.364  57.589 -58.355  1.00  0.00     0.046 A 
HETATM   24  C   UNL     1     -43.208  56.786 -59.117  1.00  0.00     0.066 A 
HETATM   25  C   UNL     1     -44.589  56.876 -58.992  1.00  0.00     0.036 A 
HETATM   26  C   UNL     1     -45.139  57.802 -58.110  1.00  0.00     0.003 A 
HETATM   27  C   UNL     1     -44.306  58.622 -57.347  1.00  0.00     0.010 A 
BRANCH  24  28
HETATM   28  O   UNL     1     -42.713  55.886 -60.014  1.00  0.00    -0.361 OA
HETATM   29  H   UNL     1     -42.809  54.991 -59.646  1.00  0.00     0.217 HD
ENDBRANCH  24  28
ENDBRANCH   9  22
BRANCH   7  30
HETATM   30  C   UNL     1     -40.176  62.633 -59.761  1.00  0.00     0.036 A 
HETATM   31  C   UNL     1     -40.438  62.355 -61.112  1.00  0.00     0.048 A 
HETATM   32 CL   UNL     1     -41.703  61.296 -61.637  1.00  0.00    -0.083 Cl
HETATM   33  C   UNL     1     -39.692  62.985 -62.118  1.00  0.00     0.025 A 
HETATM   34  C   UNL     1     -38.687  63.895 -61.792  1.00  0.00     0.002 A 
HETATM   35  C   UNL     1     -38.424  64.186 -60.457  1.00  0.00     0.001 A 
HETATM   36  C   UNL     1     -39.164  63.560 -59.450  1.00  0.00     0.017 A 
ENDBRANCH   7  30
TORSDOF 5
ENDMDL
MODEL 10
REMARK VINA RESULT:      -7.7      3.588      9.392
REMARK  5 active torsions:
REMARK  status: ('A' for Active; 'I' for Inactive)
REMARK    1  A    between atoms: C_7  and  C_8 
REMARK    2  A    between atoms: C_16  and  C_17 
REMARK    3  A    between atoms: C_19  and  O_20 
REMARK    4  A    between atoms: C_24  and  C_25 
REMARK       I    between atoms: C_25  and  N_26 
REMARK    5  A    between atoms: N_26  and  C_27 
ROOT
HETATM    1  C   UNL     1     -44.469  60.582 -54.981  1.00  0.00     0.070 C 
HETATM    2  C   UNL     1     -43.875  60.161 -56.301  1.00  0.00     0.037 C 
HETATM    3  N   UNL     1     -44.058  61.056 -57.357  1.00  0.00    -0.192 N 
HETATM    4  C   UNL     1     -43.342  60.974 -58.498  1.00  0.00     0.726 A 
HETATM    5  N   UNL     1     -42.640  59.837 -58.758  1.00  0.00    -0.083 N 
HETATM    6  N   UNL     1     -41.886  59.953 -59.867  1.00  0.00    -0.135 NA
HETATM    7  C   UNL     1     -42.194  61.207 -60.257  1.00  0.00     0.200 A 
HETATM    8  N   UNL     1     -43.120  61.841 -59.449  1.00  0.00    -0.041 NA
HETATM    9  C   UNL     1     -42.646  58.660 -57.888  1.00  0.00     0.202 C 
HETATM   10  C   UNL     1     -43.182  59.007 -56.501  1.00  0.00     0.062 C 
HETATM   11  H   UNL     1     -44.448  61.966 -57.117  1.00  0.00     0.184 HD
ENDROOT
BRANCH  10  12
HETATM   12  C   UNL     1     -42.719  58.175 -55.346  1.00  0.00     0.256 C 
HETATM   13  N   UNL     1     -43.453  57.029 -55.128  1.00  0.00    -0.323 N 
HETATM   14  H   UNL     1     -44.297  56.884 -55.666  1.00  0.00     0.169 HD
HETATM   15  O   UNL     1     -41.716  58.518 -54.730  1.00  0.00    -0.267 OA
BRANCH  13  16
HETATM   16  C   UNL     1     -43.158  55.987 -54.220  1.00  0.00     0.035 A 
HETATM   17  C   UNL     1     -43.488  56.010 -52.863  1.00  0.00     0.029 A 
HETATM   18  C   UNL     1     -43.138  54.943 -52.030  1.00  0.00     0.002 A 
HETATM   19  C   UNL     1     -42.446  53.849 -52.541  1.00  0.00     0.000 A 
HETATM   20  C   UNL     1     -42.112  53.814 -53.892  1.00  0.00     0.002 A 
HETATM   21  C   UNL     1     -42.473  54.875 -54.729  1.00  0.00     0.029 A 
ENDBRANCH  13  16
ENDBRANCH  10  12
BRANCH   9  22
HETATM   22  C   UNL     1     -43.421  57.539 -58.585  1.00  0.00    -0.025 A 
HETATM   23  C   UNL     1     -44.827  57.556 -58.575  1.00  0.00     0.046 A 
HETATM   24  C   UNL     1     -45.542  56.546 -59.212  1.00  0.00     0.066 A 
HETATM   25  C   UNL     1     -44.887  55.512 -59.869  1.00  0.00     0.036 A 
HETATM   26  C   UNL     1     -43.496  55.468 -59.869  1.00  0.00     0.003 A 
HETATM   27  C   UNL     1     -42.766  56.468 -59.225  1.00  0.00     0.010 A 
BRANCH  24  28
HETATM   28  O   UNL     1     -46.905  56.533 -59.213  1.00  0.00    -0.361 OA
HETATM   29  H   UNL     1     -47.219  56.545 -58.293  1.00  0.00     0.217 HD
ENDBRANCH  24  28
ENDBRANCH   9  22
BRANCH   7  30
HETATM   30  C   UNL     1     -41.619  61.825 -61.445  1.00  0.00     0.036 A 
HETATM   31  C   UNL     1     -40.459  62.615 -61.412  1.00  0.00     0.048 A 
HETATM   32 CL   UNL     1     -39.549  62.907 -59.969  1.00  0.00    -0.083 Cl
HETATM   33  C   UNL     1     -39.953  63.173 -62.595  1.00  0.00     0.025 A 
HETATM   34  C   UNL     1     -40.590  62.947 -63.815  1.00  0.00     0.002 A 
HETATM   35  C   UNL     1     -41.735  62.158 -63.862  1.00  0.00     0.001 A 
HETATM   36  C   UNL     1     -42.243  61.600 -62.686  1.00  0.00     0.017 A 
ENDBRANCH   7  30
TORSDOF 5
ENDMDL
