MODEL 1
REMARK VINA RESULT:      -7.4      0.000      0.000
REMARK  4 active torsions:
REMARK  status: ('A' for Active; 'I' for Inactive)
REMARK    1  A    between atoms: C_2  and  N_3 
REMARK       I    between atoms: N_3  and  C_4 
REMARK    2  A    between atoms: C_4  and  C_5 
REMARK    3  A    between atoms: C_5  and  N_6 
REMARK    4  A    between atoms: N_6  and  C_7 
ROOT
HETATM    1  C   UNL     1     -41.216  54.627 -53.863  1.00  0.00     0.022 A 
HETATM    2  C   UNL     1     -40.671  53.462 -53.241  1.00  0.00     0.012 A 
HETATM    3  C   UNL     1     -40.500  53.455 -51.830  1.00  0.00     0.045 A 
HETATM    4  C   UNL     1     -40.014  52.325 -51.156  1.00  0.00     0.054 A 
HETATM    5  C   UNL     1     -39.675  51.183 -51.875  1.00  0.00     0.036 A 
HETATM    6 CL   UNL     1     -39.089  49.800 -51.043  1.00  0.00    -0.084 Cl
HETATM    7  C   UNL     1     -39.804  51.160 -53.257  1.00  0.00     0.025 A 
HETATM    8  C   UNL     1     -40.291  52.285 -53.932  1.00  0.00     0.017 A 
HETATM    9  N   UNL     1     -40.808  54.560 -51.125  1.00  0.00    -0.365 N 
HETATM   10  H   UNL     1     -40.676  54.548 -50.113  1.00  0.00     0.165 HD
HETATM   11  C   UNL     1     -41.258  55.684 -51.689  1.00  0.00     0.090 A 
HETATM   12  C   UNL     1     -41.460  55.746 -53.057  1.00  0.00     0.041 A 
ENDROOT
BRANCH   1  13
HETATM   13  N   UNL     1     -41.368  54.691 -55.263  1.00  0.00    -0.283 NA
HETATM   14  H   UNL     1     -40.858  53.950 -55.741  1.00  0.00     0.128 HD
BRANCH  13  15
HETATM   15  C   UNL     1     -42.738  54.759 -55.835  1.00  0.00     0.195 C 
BRANCH  15  16
HETATM   16  C   UNL     1     -42.857  55.759 -56.989  1.00  0.00     0.231 C 
HETATM   17  N   UNL     1     -43.516  55.263 -58.092  1.00  0.00    -0.352 N 
HETATM   18  H   UNL     1     -43.744  54.274 -58.059  1.00  0.00     0.163 HD
HETATM   19  O   UNL     1     -42.413  56.898 -56.894  1.00  0.00    -0.272 OA
BRANCH  17  20
HETATM   20  C   UNL     1     -43.876  56.037 -59.290  1.00  0.00     0.022 C 
HETATM   21  C   UNL     1     -42.629  56.636 -59.959  1.00  0.00     0.037 C 
HETATM   22  C   UNL     1     -44.869  57.154 -58.930  1.00  0.00     0.037 C 
HETATM   23  C   UNL     1     -44.554  55.085 -60.290  1.00  0.00     0.037 C 
ENDBRANCH  17  20
ENDBRANCH  15  16
ENDBRANCH  13  15
ENDBRANCH   1  13
TORSDOF 4
ENDMDL
MODEL 2
REMARK VINA RESULT:      -7.3      1.139      1.677
REMARK  4 active torsions:
REMARK  status: ('A' for Active; 'I' for Inactive)
REMARK    1  A    between atoms: C_2  and  N_3 
REMARK       I    between atoms: N_3  and  C_4 
REMARK    2  A    between atoms: C_4  and  C_5 
REMARK    3  A    between atoms: C_5  and  N_6 
REMARK    4  A    between atoms: N_6  and  C_7 
ROOT
HETATM    1  C   UNL     1     -41.075  54.895 -54.104  1.00  0.00     0.022 A 
HETATM    2  C   UNL     1     -40.593  53.711 -53.464  1.00  0.00     0.012 A 
HETATM    3  C   UNL     1     -40.548  53.671 -52.045  1.00  0.00     0.045 A 
HETATM    4  C   UNL     1     -40.130  52.521 -51.357  1.00  0.00     0.054 A 
HETATM    5  C   UNL     1     -39.736  51.394 -52.070  1.00  0.00     0.036 A 
HETATM    6 CL   UNL     1     -39.233  49.988 -51.223  1.00  0.00    -0.084 Cl
HETATM    7  C   UNL     1     -39.743  51.404 -53.458  1.00  0.00     0.025 A 
HETATM    8  C   UNL     1     -40.161  52.547 -54.147  1.00  0.00     0.017 A 
HETATM    9  N   UNL     1     -40.910  54.761 -51.343  1.00  0.00    -0.365 N 
HETATM   10  H   UNL     1     -40.868  54.725 -50.324  1.00  0.00     0.165 HD
HETATM   11  C   UNL     1     -41.303  55.901 -51.918  1.00  0.00     0.090 A 
HETATM   12  C   UNL     1     -41.383  55.997 -53.297  1.00  0.00     0.041 A 
ENDROOT
BRANCH   1  13
HETATM   13  N   UNL     1     -41.102  54.992 -55.510  1.00  0.00    -0.283 NA
HETATM   14  H   UNL     1     -40.521  54.285 -55.958  1.00  0.00     0.128 HD
BRANCH  13  15
HETATM   15  C   UNL     1     -42.417  55.024 -56.204  1.00  0.00     0.195 C 
BRANCH  15  16
HETATM   16  C   UNL     1     -42.771  56.407 -56.756  1.00  0.00     0.231 C 
HETATM   17  N   UNL     1     -42.259  56.656 -58.010  1.00  0.00    -0.352 N 
HETATM   18  H   UNL     1     -41.623  55.951 -58.372  1.00  0.00     0.163 HD
HETATM   19  O   UNL     1     -43.469  57.189 -56.118  1.00  0.00    -0.272 OA
BRANCH  17  20
HETATM   20  C   UNL     1     -42.539  57.848 -58.825  1.00  0.00     0.022 C 
HETATM   21  C   UNL     1     -44.051  58.066 -58.987  1.00  0.00     0.037 C 
HETATM   22  C   UNL     1     -41.874  57.725 -60.205  1.00  0.00     0.037 C 
HETATM   23  C   UNL     1     -41.946  59.072 -58.105  1.00  0.00     0.037 C 
ENDBRANCH  17  20
ENDBRANCH  15  16
ENDBRANCH  13  15
ENDBRANCH   1  13
TORSDOF 4
ENDMDL
MODEL 3
REMARK VINA RESULT:      -7.3      1.615      2.546
REMARK  4 active torsions:
REMARK  status: ('A' for Active; 'I' for Inactive)
REMARK    1  A    between atoms: C_2  and  N_3 
REMARK       I    between atoms: N_3  and  C_4 
REMARK    2  A    between atoms: C_4  and  C_5 
REMARK    3  A    between atoms: C_5  and  N_6 
REMARK    4  A    between atoms: N_6  and  C_7 
ROOT
HETATM    1  C   UNL     1     -41.119  54.080 -53.851  1.00  0.00     0.022 A 
HETATM    2  C   UNL     1     -40.995  54.083 -52.427  1.00  0.00     0.012 A 
HETATM    3  C   UNL     1     -40.298  53.014 -51.800  1.00  0.00     0.045 A 
HETATM    4  C   UNL     1     -40.102  52.984 -50.411  1.00  0.00     0.054 A 
HETATM    5  C   UNL     1     -40.606  54.009 -49.618  1.00  0.00     0.036 A 
HETATM    6 CL   UNL     1     -40.356  53.969 -47.920  1.00  0.00    -0.084 Cl
HETATM    7  C   UNL     1     -41.314  55.056 -50.192  1.00  0.00     0.025 A 
HETATM    8  C   UNL     1     -41.510  55.092 -51.577  1.00  0.00     0.017 A 
HETATM    9  N   UNL     1     -39.820  52.008 -52.554  1.00  0.00    -0.365 N 
HETATM   10  H   UNL     1     -39.327  51.242 -52.094  1.00  0.00     0.165 HD
HETATM   11  C   UNL     1     -39.978  51.949 -53.879  1.00  0.00     0.090 A 
HETATM   12  C   UNL     1     -40.634  52.968 -54.549  1.00  0.00     0.041 A 
ENDROOT
BRANCH   1  13
HETATM   13  N   UNL     1     -41.833  55.100 -54.512  1.00  0.00    -0.283 NA
HETATM   14  H   UNL     1     -41.216  55.785 -54.945  1.00  0.00     0.128 HD
BRANCH  13  15
HETATM   15  C   UNL     1     -42.878  54.723 -55.500  1.00  0.00     0.195 C 
BRANCH  15  16
HETATM   16  C   UNL     1     -42.878  55.614 -56.744  1.00  0.00     0.231 C 
HETATM   17  N   UNL     1     -43.560  55.081 -57.814  1.00  0.00    -0.352 N 
HETATM   18  H   UNL     1     -43.884  54.126 -57.696  1.00  0.00     0.163 HD
HETATM   19  O   UNL     1     -42.326  56.710 -56.743  1.00  0.00    -0.272 OA
BRANCH  17  20
HETATM   20  C   UNL     1     -43.820  55.768 -59.089  1.00  0.00     0.022 C 
HETATM   21  C   UNL     1     -42.508  56.172 -59.779  1.00  0.00     0.037 C 
HETATM   22  C   UNL     1     -44.700  57.008 -58.862  1.00  0.00     0.037 C 
HETATM   23  C   UNL     1     -44.575  54.796 -60.013  1.00  0.00     0.037 C 
ENDBRANCH  17  20
ENDBRANCH  15  16
ENDBRANCH  13  15
ENDBRANCH   1  13
TORSDOF 4
ENDMDL
MODEL 4
REMARK VINA RESULT:      -7.2      3.805      4.979
REMARK  4 active torsions:
REMARK  status: ('A' for Active; 'I' for Inactive)
REMARK    1  A    between atoms: C_2  and  N_3 
REMARK       I    between atoms: N_3  and  C_4 
REMARK    2  A    between atoms: C_4  and  C_5 
REMARK    3  A    between atoms: C_5  and  N_6 
REMARK    4  A    between atoms: N_6  and  C_7 
ROOT
HETATM    1  C   UNL     1     -41.228  55.103 -52.059  1.00  0.00     0.022 A 
HETATM    2  C   UNL     1     -40.753  53.869 -52.601  1.00  0.00     0.012 A 
HETATM    3  C   UNL     1     -40.118  52.940 -51.733  1.00  0.00     0.045 A 
HETATM    4  C   UNL     1     -39.672  51.692 -52.194  1.00  0.00     0.054 A 
HETATM    5  C   UNL     1     -39.838  51.350 -53.532  1.00  0.00     0.036 A 
HETATM    6 CL   UNL     1     -39.297  49.818 -54.089  1.00  0.00    -0.084 Cl
HETATM    7  C   UNL     1     -40.431  52.242 -54.416  1.00  0.00     0.025 A 
HETATM    8  C   UNL     1     -40.879  53.486 -53.959  1.00  0.00     0.017 A 
HETATM    9  N   UNL     1     -39.937  53.266 -50.439  1.00  0.00    -0.365 N 
HETATM   10  H   UNL     1     -39.474  52.595 -49.825  1.00  0.00     0.165 HD
HETATM   11  C   UNL     1     -40.314  54.438 -49.922  1.00  0.00     0.090 A 
HETATM   12  C   UNL     1     -40.952  55.378 -50.714  1.00  0.00     0.041 A 
ENDROOT
BRANCH   1  13
HETATM   13  N   UNL     1     -41.831  56.069 -52.891  1.00  0.00    -0.283 NA
HETATM   14  H   UNL     1     -42.577  56.575 -52.417  1.00  0.00     0.128 HD
BRANCH  13  15
HETATM   15  C   UNL     1     -40.967  57.056 -53.590  1.00  0.00     0.195 C 
BRANCH  15  16
HETATM   16  C   UNL     1     -41.197  58.494 -53.119  1.00  0.00     0.231 C 
HETATM   17  N   UNL     1     -42.327  58.657 -52.350  1.00  0.00    -0.352 N 
HETATM   18  H   UNL     1     -42.930  57.842 -52.278  1.00  0.00     0.163 HD
HETATM   19  O   UNL     1     -40.410  59.392 -53.403  1.00  0.00    -0.272 OA
BRANCH  17  20
HETATM   20  C   UNL     1     -42.725  59.899 -51.669  1.00  0.00     0.022 C 
HETATM   21  C   UNL     1     -42.824  61.068 -52.662  1.00  0.00     0.037 C 
HETATM   22  C   UNL     1     -41.730  60.241 -50.549  1.00  0.00     0.037 C 
HETATM   23  C   UNL     1     -44.112  59.678 -51.040  1.00  0.00     0.037 C 
ENDBRANCH  17  20
ENDBRANCH  15  16
ENDBRANCH  13  15
ENDBRANCH   1  13
TORSDOF 4
ENDMDL
MODEL 5
REMARK VINA RESULT:      -6.9      2.985      4.374
REMARK  4 active torsions:
REMARK  status: ('A' for Active; 'I' for Inactive)
REMARK    1  A    between atoms: C_2  and  N_3 
REMARK       I    between atoms: N_3  and  C_4 
REMARK    2  A    between atoms: C_4  and  C_5 
REMARK    3  A    between atoms: C_5  and  N_6 
REMARK    4  A    between atoms: N_6  and  C_7 
ROOT
HETATM    1  C   UNL     1     -41.282  53.121 -53.868  1.00  0.00     0.022 A 
HETATM    2  C   UNL     1     -41.193  53.428 -52.475  1.00  0.00     0.012 A 
HETATM    3  C   UNL     1     -40.223  52.751 -51.686  1.00  0.00     0.045 A 
HETATM    4  C   UNL     1     -40.055  53.041 -50.324  1.00  0.00     0.054 A 
HETATM    5  C   UNL     1     -40.858  54.001 -49.716  1.00  0.00     0.036 A 
HETATM    6 CL   UNL     1     -40.641  54.357 -48.051  1.00  0.00    -0.084 Cl
HETATM    7  C   UNL     1     -41.833  54.664 -50.448  1.00  0.00     0.025 A 
HETATM    8  C   UNL     1     -42.002  54.380 -51.807  1.00  0.00     0.017 A 
HETATM    9  N   UNL     1     -39.451  51.808 -52.258  1.00  0.00    -0.365 N 
HETATM   10  H   UNL     1     -38.762  51.323 -51.682  1.00  0.00     0.165 HD
HETATM   11  C   UNL     1     -39.558  51.457 -53.542  1.00  0.00     0.090 A 
HETATM   12  C   UNL     1     -40.473  52.092 -54.365  1.00  0.00     0.041 A 
ENDROOT
BRANCH   1  13
HETATM   13  N   UNL     1     -42.253  53.741 -54.680  1.00  0.00    -0.283 NA
HETATM   14  H   UNL     1     -43.085  54.004 -54.154  1.00  0.00     0.128 HD
BRANCH  13  15
HETATM   15  C   UNL     1     -41.852  54.895 -55.527  1.00  0.00     0.195 C 
BRANCH  15  16
HETATM   16  C   UNL     1     -42.356  56.237 -54.990  1.00  0.00     0.231 C 
HETATM   17  N   UNL     1     -41.423  56.929 -54.251  1.00  0.00    -0.352 N 
HETATM   18  H   UNL     1     -40.561  56.429 -54.054  1.00  0.00     0.163 HD
HETATM   19  O   UNL     1     -43.489  56.638 -55.237  1.00  0.00    -0.272 OA
BRANCH  17  20
HETATM   20  C   UNL     1     -41.594  58.289 -53.719  1.00  0.00     0.022 C 
HETATM   21  C   UNL     1     -42.722  58.340 -52.677  1.00  0.00     0.037 C 
HETATM   22  C   UNL     1     -41.884  59.280 -54.858  1.00  0.00     0.037 C 
HETATM   23  C   UNL     1     -40.280  58.705 -53.033  1.00  0.00     0.037 C 
ENDBRANCH  17  20
ENDBRANCH  15  16
ENDBRANCH  13  15
ENDBRANCH   1  13
TORSDOF 4
ENDMDL
MODEL 6
REMARK VINA RESULT:      -6.9      2.361      3.079
REMARK  4 active torsions:
REMARK  status: ('A' for Active; 'I' for Inactive)
REMARK    1  A    between atoms: C_2  and  N_3 
REMARK       I    between atoms: N_3  and  C_4 
REMARK    2  A    between atoms: C_4  and  C_5 
REMARK    3  A    between atoms: C_5  and  N_6 
REMARK    4  A    between atoms: N_6  and  C_7 
ROOT
HETATM    1  C   UNL     1     -41.057  54.774 -51.475  1.00  0.00     0.022 A 
HETATM    2  C   UNL     1     -40.629  53.652 -52.250  1.00  0.00     0.012 A 
HETATM    3  C   UNL     1     -40.213  52.472 -51.575  1.00  0.00     0.045 A 
HETATM    4  C   UNL     1     -39.825  51.323 -52.280  1.00  0.00     0.054 A 
HETATM    5  C   UNL     1     -39.831  51.329 -53.671  1.00  0.00     0.036 A 
HETATM    6 CL   UNL     1     -39.364  49.916 -54.527  1.00  0.00    -0.084 Cl
HETATM    7  C   UNL     1     -40.207  52.471 -54.365  1.00  0.00     0.025 A 
HETATM    8  C   UNL     1     -40.596  53.618 -53.666  1.00  0.00     0.017 A 
HETATM    9  N   UNL     1     -40.186  52.459 -50.229  1.00  0.00    -0.365 N 
HETATM   10  H   UNL     1     -39.879  51.610 -49.754  1.00  0.00     0.165 HD
HETATM   11  C   UNL     1     -40.520  53.515 -49.482  1.00  0.00     0.090 A 
HETATM   12  C   UNL     1     -40.949  54.687 -50.082  1.00  0.00     0.041 A 
ENDROOT
BRANCH   1  13
HETATM   13  N   UNL     1     -41.443  55.976 -52.102  1.00  0.00    -0.283 NA
HETATM   14  H   UNL     1     -40.980  56.109 -52.999  1.00  0.00     0.128 HD
BRANCH  13  15
HETATM   15  C   UNL     1     -42.891  56.263 -52.277  1.00  0.00     0.195 C 
BRANCH  15  16
HETATM   16  C   UNL     1     -43.333  56.250 -53.743  1.00  0.00     0.231 C 
HETATM   17  N   UNL     1     -42.963  57.372 -54.449  1.00  0.00    -0.352 N 
HETATM   18  H   UNL     1     -42.546  58.118 -53.899  1.00  0.00     0.163 HD
HETATM   19  O   UNL     1     -43.942  55.295 -54.216  1.00  0.00    -0.272 OA
BRANCH  17  20
HETATM   20  C   UNL     1     -43.151  57.572 -55.894  1.00  0.00     0.022 C 
HETATM   21  C   UNL     1     -42.707  56.333 -56.687  1.00  0.00     0.037 C 
HETATM   22  C   UNL     1     -42.374  58.809 -56.371  1.00  0.00     0.037 C 
HETATM   23  C   UNL     1     -44.649  57.805 -56.156  1.00  0.00     0.037 C 
ENDBRANCH  17  20
ENDBRANCH  15  16
ENDBRANCH  13  15
ENDBRANCH   1  13
TORSDOF 4
ENDMDL
MODEL 7
REMARK VINA RESULT:      -6.9      1.795      2.376
REMARK  4 active torsions:
REMARK  status: ('A' for Active; 'I' for Inactive)
REMARK    1  A    between atoms: C_2  and  N_3 
REMARK       I    between atoms: N_3  and  C_4 
REMARK    2  A    between atoms: C_4  and  C_5 
REMARK    3  A    between atoms: C_5  and  N_6 
REMARK    4  A    between atoms: N_6  and  C_7 
ROOT
HETATM    1  C   UNL     1     -42.389  55.885 -55.237  1.00  0.00     0.022 A 
HETATM    2  C   UNL     1     -41.672  54.844 -54.570  1.00  0.00     0.012 A 
HETATM    3  C   UNL     1     -41.976  54.567 -53.210  1.00  0.00     0.045 A 
HETATM    4  C   UNL     1     -41.340  53.528 -52.514  1.00  0.00     0.054 A 
HETATM    5  C   UNL     1     -40.379  52.753 -53.154  1.00  0.00     0.036 A 
HETATM    6 CL   UNL     1     -39.610  51.478 -52.298  1.00  0.00    -0.084 Cl
HETATM    7  C   UNL     1     -40.037  53.010 -54.474  1.00  0.00     0.025 A 
HETATM    8  C   UNL     1     -40.670  54.044 -55.172  1.00  0.00     0.017 A 
HETATM    9  N   UNL     1     -42.892  55.321 -52.573  1.00  0.00    -0.365 N 
HETATM   10  H   UNL     1     -43.100  55.118 -51.595  1.00  0.00     0.165 HD
HETATM   11  C   UNL     1     -43.531  56.340 -53.155  1.00  0.00     0.090 A 
HETATM   12  C   UNL     1     -43.288  56.648 -54.483  1.00  0.00     0.041 A 
ENDROOT
BRANCH   1  13
HETATM   13  N   UNL     1     -42.094  56.218 -56.575  1.00  0.00    -0.283 NA
HETATM   14  H   UNL     1     -41.148  55.949 -56.840  1.00  0.00     0.128 HD
BRANCH  13  15
HETATM   15  C   UNL     1     -43.024  55.777 -57.648  1.00  0.00     0.195 C 
BRANCH  15  16
HETATM   16  C   UNL     1     -43.949  56.895 -58.137  1.00  0.00     0.231 C 
HETATM   17  N   UNL     1     -45.016  56.451 -58.885  1.00  0.00    -0.352 N 
HETATM   18  H   UNL     1     -45.006  55.462 -59.119  1.00  0.00     0.163 HD
HETATM   19  O   UNL     1     -43.738  58.069 -57.848  1.00  0.00    -0.272 OA
BRANCH  17  20
HETATM   20  C   UNL     1     -46.120  57.288 -59.378  1.00  0.00     0.022 C 
HETATM   21  C   UNL     1     -45.597  58.433 -60.259  1.00  0.00     0.037 C 
HETATM   22  C   UNL     1     -46.931  57.856 -58.202  1.00  0.00     0.037 C 
HETATM   23  C   UNL     1     -47.049  56.405 -60.230  1.00  0.00     0.037 C 
ENDBRANCH  17  20
ENDBRANCH  15  16
ENDBRANCH  13  15
ENDBRANCH   1  13
TORSDOF 4
ENDMDL
MODEL 8
REMARK VINA RESULT:      -6.7      4.121      5.200
REMARK  4 active torsions:
REMARK  status: ('A' for Active; 'I' for Inactive)
REMARK    1  A    between atoms: C_2  and  N_3 
REMARK       I    between atoms: N_3  and  C_4 
REMARK    2  A    between atoms: C_4  and  C_5 
REMARK    3  A    between atoms: C_5  and  N_6 
REMARK    4  A    between atoms: N_6  and  C_7 
ROOT
HETATM    1  C   UNL     1     -41.107  54.761 -51.509  1.00  0.00     0.022 A 
HETATM    2  C   UNL     1     -40.666  53.640 -52.279  1.00  0.00     0.012 A 
HETATM    3  C   UNL     1     -40.173  52.494 -51.598  1.00  0.00     0.045 A 
HETATM    4  C   UNL     1     -39.770  51.345 -52.295  1.00  0.00     0.054 A 
HETATM    5  C   UNL     1     -39.838  51.318 -53.684  1.00  0.00     0.036 A 
HETATM    6 CL   UNL     1     -39.350  49.906 -54.530  1.00  0.00    -0.084 Cl
HETATM    7  C   UNL     1     -40.290  52.428 -54.385  1.00  0.00     0.025 A 
HETATM    8  C   UNL     1     -40.695  53.575 -53.694  1.00  0.00     0.017 A 
HETATM    9  N   UNL     1     -40.087  52.513 -50.255  1.00  0.00    -0.365 N 
HETATM   10  H   UNL     1     -39.725  51.688 -49.775  1.00  0.00     0.165 HD
HETATM   11  C   UNL     1     -40.431  53.571 -49.516  1.00  0.00     0.090 A 
HETATM   12  C   UNL     1     -40.933  54.711 -50.121  1.00  0.00     0.041 A 
ENDROOT
BRANCH   1  13
HETATM   13  N   UNL     1     -41.569  55.932 -52.144  1.00  0.00    -0.283 NA
HETATM   14  H   UNL     1     -42.448  55.783 -52.636  1.00  0.00     0.128 HD
BRANCH  13  15
HETATM   15  C   UNL     1     -41.683  57.183 -51.350  1.00  0.00     0.195 C 
BRANCH  15  16
HETATM   16  C   UNL     1     -43.093  57.779 -51.368  1.00  0.00     0.231 C 
HETATM   17  N   UNL     1     -43.131  59.118 -51.684  1.00  0.00    -0.352 N 
HETATM   18  H   UNL     1     -42.228  59.577 -51.757  1.00  0.00     0.163 HD
HETATM   19  O   UNL     1     -44.080  57.087 -51.138  1.00  0.00    -0.272 OA
BRANCH  17  20
HETATM   20  C   UNL     1     -44.352  59.913 -51.889  1.00  0.00     0.022 C 
HETATM   21  C   UNL     1     -45.205  59.957 -50.612  1.00  0.00     0.037 C 
HETATM   22  C   UNL     1     -45.176  59.342 -53.054  1.00  0.00     0.037 C 
HETATM   23  C   UNL     1     -43.934  61.351 -52.244  1.00  0.00     0.037 C 
ENDBRANCH  17  20
ENDBRANCH  15  16
ENDBRANCH  13  15
ENDBRANCH   1  13
TORSDOF 4
ENDMDL
MODEL 9
REMARK VINA RESULT:      -6.6      2.031      2.557
REMARK  4 active torsions:
REMARK  status: ('A' for Active; 'I' for Inactive)
REMARK    1  A    between atoms: C_2  and  N_3 
REMARK       I    between atoms: N_3  and  C_4 
REMARK    2  A    between atoms: C_4  and  C_5 
REMARK    3  A    between atoms: C_5  and  N_6 
REMARK    4  A    between atoms: N_6  and  C_7 
ROOT
HETATM    1  C   UNL     1     -41.159  56.679 -52.986  1.00  0.00     0.022 A 
HETATM    2  C   UNL     1     -40.857  55.340 -53.386  1.00  0.00     0.012 A 
HETATM    3  C   UNL     1     -40.911  54.307 -52.412  1.00  0.00     0.045 A 
HETATM    4  C   UNL     1     -40.671  52.967 -52.752  1.00  0.00     0.054 A 
HETATM    5  C   UNL     1     -40.360  52.631 -54.065  1.00  0.00     0.036 A 
HETATM    6 CL   UNL     1     -40.075  50.988 -54.475  1.00  0.00    -0.084 Cl
HETATM    7  C   UNL     1     -40.272  53.616 -55.039  1.00  0.00     0.025 A 
HETATM    8  C   UNL     1     -40.513  54.953 -54.705  1.00  0.00     0.017 A 
HETATM    9  N   UNL     1     -41.195  54.620 -51.134  1.00  0.00    -0.365 N 
HETATM   10  H   UNL     1     -41.225  53.872 -50.441  1.00  0.00     0.165 HD
HETATM   11  C   UNL     1     -41.418  55.871 -50.722  1.00  0.00     0.090 A 
HETATM   12  C   UNL     1     -41.395  56.919 -51.627  1.00  0.00     0.041 A 
ENDROOT
BRANCH   1  13
HETATM   13  N   UNL     1     -41.082  57.740 -53.911  1.00  0.00    -0.283 NA
HETATM   14  H   UNL     1     -40.705  57.443 -54.809  1.00  0.00     0.128 HD
BRANCH  13  15
HETATM   15  C   UNL     1     -42.292  58.565 -54.161  1.00  0.00     0.195 C 
BRANCH  15  16
HETATM   16  C   UNL     1     -42.653  58.665 -55.646  1.00  0.00     0.231 C 
HETATM   17  N   UNL     1     -42.661  57.455 -56.303  1.00  0.00    -0.352 N 
HETATM   18  H   UNL     1     -42.323  56.663 -55.765  1.00  0.00     0.163 HD
HETATM   19  O   UNL     1     -42.927  59.744 -56.164  1.00  0.00    -0.272 OA
BRANCH  17  20
HETATM   20  C   UNL     1     -43.086  57.243 -57.695  1.00  0.00     0.022 C 
HETATM   21  C   UNL     1     -42.121  57.922 -58.679  1.00  0.00     0.037 C 
HETATM   22  C   UNL     1     -44.514  57.769 -57.908  1.00  0.00     0.037 C 
HETATM   23  C   UNL     1     -43.077  55.729 -57.973  1.00  0.00     0.037 C 
ENDBRANCH  17  20
ENDBRANCH  15  16
ENDBRANCH  13  15
ENDBRANCH   1  13
TORSDOF 4
ENDMDL
MODEL 10
REMARK VINA RESULT:      -6.5      3.423      5.305
REMARK  4 active torsions:
REMARK  status: ('A' for Active; 'I' for Inactive)
REMARK    1  A    between atoms: C_2  and  N_3 
REMARK       I    between atoms: N_3  and  C_4 
REMARK    2  A    between atoms: C_4  and  C_5 
REMARK    3  A    between atoms: C_5  and  N_6 
REMARK    4  A    between atoms: N_6  and  C_7 
ROOT
HETATM    1  C   UNL     1     -41.104  55.087 -52.823  1.00  0.00     0.022 A 
HETATM    2  C   UNL     1     -40.698  53.812 -52.319  1.00  0.00     0.012 A 
HETATM    3  C   UNL     1     -40.177  52.852 -53.228  1.00  0.00     0.045 A 
HETATM    4  C   UNL     1     -39.719  51.601 -52.788  1.00  0.00     0.054 A 
HETATM    5  C   UNL     1     -39.783  51.276 -51.437  1.00  0.00     0.036 A 
HETATM    6 CL   UNL     1     -39.212  49.747 -50.905  1.00  0.00    -0.084 Cl
HETATM    7  C   UNL     1     -40.309  52.179 -50.523  1.00  0.00     0.025 A 
HETATM    8  C   UNL     1     -40.765  53.428 -50.957  1.00  0.00     0.017 A 
HETATM    9  N   UNL     1     -40.126  53.147 -54.540  1.00  0.00    -0.365 N 
HETATM   10  H   UNL     1     -39.756  52.448 -55.186  1.00  0.00     0.165 HD
HETATM   11  C   UNL     1     -40.558  54.305 -55.045  1.00  0.00     0.090 A 
HETATM   12  C   UNL     1     -41.061  55.287 -54.208  1.00  0.00     0.041 A 
ENDROOT
BRANCH   1  13
HETATM   13  N   UNL     1     -41.661  56.056 -51.964  1.00  0.00    -0.283 NA
HETATM   14  H   UNL     1     -41.403  57.004 -52.232  1.00  0.00     0.128 HD
BRANCH  13  15
HETATM   15  C   UNL     1     -43.123  56.027 -51.698  1.00  0.00     0.195 C 
BRANCH  15  16
HETATM   16  C   UNL     1     -43.785  57.400 -51.838  1.00  0.00     0.231 C 
HETATM   17  N   UNL     1     -43.174  58.393 -51.106  1.00  0.00    -0.352 N 
HETATM   18  H   UNL     1     -42.436  58.085 -50.480  1.00  0.00     0.163 HD
HETATM   19  O   UNL     1     -44.760  57.567 -52.566  1.00  0.00    -0.272 OA
BRANCH  17  20
HETATM   20  C   UNL     1     -43.524  59.821 -51.146  1.00  0.00     0.022 C 
HETATM   21  C   UNL     1     -43.553  60.345 -52.590  1.00  0.00     0.037 C 
HETATM   22  C   UNL     1     -42.532  60.642 -50.307  1.00  0.00     0.037 C 
HETATM   23  C   UNL     1     -44.930  59.988 -50.541  1.00  0.00     0.037 C 
ENDBRANCH  17  20
ENDBRANCH  15  16
ENDBRANCH  13  15
ENDBRANCH   1  13
TORSDOF 4
ENDMDL
