MODEL 1
REMARK VINA RESULT:      -7.4      0.000      0.000
REMARK  8 active torsions:
REMARK  status: ('A' for Active; 'I' for Inactive)
REMARK    1  A    between atoms: N_4  and  C_5 
REMARK    2  A    between atoms: C_5  and  C_6 
REMARK    3  A    between atoms: C_6  and  C_7 
REMARK    4  A    between atoms: C_7  and  N_8 
REMARK       I    between atoms: N_8  and  C_9 
REMARK       I    between atoms: C_9  and  N_10 
REMARK    5  A    between atoms: N_10  and  N_11 
REMARK       I    between atoms: N_11  and  C_12 
REMARK    6  A    between atoms: C_12  and  C_13 
REMARK    7  A    between atoms: C_13  and  O_14 
REMARK    8  A    between atoms: O_14  and  C_15 
ROOT
HETATM    1  N   UNL     1     -41.599  58.204 -52.355  1.00  0.00    -0.341 N 
HETATM    2  C   UNL     1     -41.444  58.359 -51.010  1.00  0.00     0.334 C 
HETATM    3  N   UNL     1     -41.961  57.341 -50.244  1.00  0.00    -0.249 N 
HETATM    4  O   UNL     1     -40.867  59.302 -50.478  1.00  0.00    -0.246 OA
HETATM    5  H   UNL     1     -41.870  57.281 -52.669  1.00  0.00     0.164 HD
HETATM    6  H   UNL     1     -41.919  57.524 -49.245  1.00  0.00     0.192 HD
ENDROOT
BRANCH   1   7
HETATM    7  C   UNL     1     -40.939  59.057 -53.326  1.00  0.00     0.130 C 
BRANCH   7   8
HETATM    8  C   UNL     1     -41.938  59.832 -54.209  1.00  0.00     0.019 C 
HETATM    9  C   UNL     1     -42.484  61.077 -53.499  1.00  0.00     0.013 C 
BRANCH   8  10
HETATM   10  C   UNL     1     -43.124  58.931 -54.610  1.00  0.00     0.156 C 
BRANCH  10  11
HETATM   11  N   UNL     1     -42.914  58.053 -55.752  1.00  0.00    -0.274 N 
HETATM   12  N   UNL     1     -42.584  58.562 -56.953  1.00  0.00    -0.177 NA
HETATM   13  C   UNL     1     -42.530  57.502 -57.765  1.00  0.00     0.053 A 
HETATM   14  C   UNL     1     -42.193  57.667 -59.198  1.00  0.00     0.072 C 
HETATM   15  C   UNL     1     -42.836  56.309 -57.078  1.00  0.00     0.055 A 
HETATM   16  C   UNL     1     -43.092  56.690 -55.776  1.00  0.00     0.028 A 
HETATM   17  C   UNL     1     -43.485  55.883 -54.597  1.00  0.00     0.070 C 
ENDBRANCH  10  11
ENDBRANCH   8  10
ENDBRANCH   7   8
ENDBRANCH   1   7
BRANCH   3  18
HETATM   18  N   UNL     1     -43.012  56.528 -50.697  1.00  0.00    -0.264 N 
HETATM   19  C   UNL     1     -43.094  55.204 -50.328  1.00  0.00     0.260 C 
HETATM   20  O   UNL     1     -44.198  54.673 -50.208  1.00  0.00    -0.269 OA
HETATM   21  H   UNL     1     -43.913  56.991 -50.788  1.00  0.00     0.190 HD
BRANCH  19  22
HETATM   22  C   UNL     1     -41.790  54.426 -50.163  1.00  0.00     0.280 C 
BRANCH  22  23
HETATM   23  O   UNL     1     -40.847  54.757 -51.186  1.00  0.00    -0.342 OA
BRANCH  23  24
HETATM   24  C   UNL     1     -40.521  53.658 -51.934  1.00  0.00     0.069 A 
HETATM   25  C   UNL     1     -39.867  52.578 -51.341  1.00  0.00     0.038 A 
HETATM   26  C   UNL     1     -39.549  51.457 -52.109  1.00  0.00     0.022 A 
HETATM   27  C   UNL     1     -39.912  51.416 -53.455  1.00  0.00     0.011 A 
HETATM   28 BR   UNL     1     -39.476  49.900 -54.496  1.00  0.00    -0.051 Br
HETATM   29  C   UNL     1     -40.598  52.482 -54.038  1.00  0.00     0.022 A 
HETATM   30  C   UNL     1     -40.912  53.606 -53.271  1.00  0.00     0.038 A 
ENDBRANCH  23  24
ENDBRANCH  22  23
ENDBRANCH  19  22
ENDBRANCH   3  18
TORSDOF 8
ENDMDL
MODEL 2
REMARK VINA RESULT:      -7.4      1.630      2.369
REMARK  8 active torsions:
REMARK  status: ('A' for Active; 'I' for Inactive)
REMARK    1  A    between atoms: N_4  and  C_5 
REMARK    2  A    between atoms: C_5  and  C_6 
REMARK    3  A    between atoms: C_6  and  C_7 
REMARK    4  A    between atoms: C_7  and  N_8 
REMARK       I    between atoms: N_8  and  C_9 
REMARK       I    between atoms: C_9  and  N_10 
REMARK    5  A    between atoms: N_10  and  N_11 
REMARK       I    between atoms: N_11  and  C_12 
REMARK    6  A    between atoms: C_12  and  C_13 
REMARK    7  A    between atoms: C_13  and  O_14 
REMARK    8  A    between atoms: O_14  and  C_15 
ROOT
HETATM    1  N   UNL     1     -42.985  57.665 -53.145  1.00  0.00    -0.341 N 
HETATM    2  C   UNL     1     -43.303  58.337 -52.003  1.00  0.00     0.334 C 
HETATM    3  N   UNL     1     -43.687  57.544 -50.949  1.00  0.00    -0.249 N 
HETATM    4  O   UNL     1     -43.236  59.555 -51.869  1.00  0.00    -0.246 OA
HETATM    5  H   UNL     1     -42.848  56.666 -53.052  1.00  0.00     0.164 HD
HETATM    6  H   UNL     1     -44.009  58.071 -50.142  1.00  0.00     0.192 HD
ENDROOT
BRANCH   1   7
HETATM    7  C   UNL     1     -42.359  58.305 -54.287  1.00  0.00     0.130 C 
BRANCH   7   8
HETATM    8  C   UNL     1     -43.094  58.008 -55.610  1.00  0.00     0.019 C 
HETATM    9  C   UNL     1     -44.555  57.604 -55.375  1.00  0.00     0.013 C 
BRANCH   8  10
HETATM   10  C   UNL     1     -42.386  56.878 -56.385  1.00  0.00     0.156 C 
BRANCH  10  11
HETATM   11  N   UNL     1     -42.845  56.638 -57.745  1.00  0.00    -0.274 N 
HETATM   12  N   UNL     1     -43.509  55.508 -58.052  1.00  0.00    -0.177 NA
HETATM   13  C   UNL     1     -43.721  55.589 -59.368  1.00  0.00     0.053 A 
HETATM   14  C   UNL     1     -44.435  54.506 -60.084  1.00  0.00     0.072 C 
HETATM   15  C   UNL     1     -43.180  56.775 -59.907  1.00  0.00     0.055 A 
HETATM   16  C   UNL     1     -42.608  57.436 -58.839  1.00  0.00     0.028 A 
HETATM   17  C   UNL     1     -41.875  58.723 -58.784  1.00  0.00     0.070 C 
ENDBRANCH  10  11
ENDBRANCH   8  10
ENDBRANCH   7   8
ENDBRANCH   1   7
BRANCH   3  18
HETATM   18  N   UNL     1     -44.245  56.270 -51.140  1.00  0.00    -0.264 N 
HETATM   19  C   UNL     1     -43.655  55.149 -50.599  1.00  0.00     0.260 C 
HETATM   20  O   UNL     1     -44.357  54.198 -50.256  1.00  0.00    -0.269 OA
HETATM   21  H   UNL     1     -45.261  56.237 -51.158  1.00  0.00     0.190 HD
BRANCH  19  22
HETATM   22  C   UNL     1     -42.130  55.108 -50.526  1.00  0.00     0.280 C 
BRANCH  22  23
HETATM   23  O   UNL     1     -41.536  55.342 -51.807  1.00  0.00    -0.342 OA
BRANCH  23  24
HETATM   24  C   UNL     1     -41.095  54.175 -52.370  1.00  0.00     0.069 A 
HETATM   25  C   UNL     1     -40.318  53.290 -51.625  1.00  0.00     0.038 A 
HETATM   26  C   UNL     1     -39.883  52.097 -52.204  1.00  0.00     0.022 A 
HETATM   27  C   UNL     1     -40.253  51.790 -53.514  1.00  0.00     0.011 A 
HETATM   28 BR   UNL     1     -39.659  50.176 -54.300  1.00  0.00    -0.051 Br
HETATM   29  C   UNL     1     -41.060  52.660 -54.246  1.00  0.00     0.022 A 
HETATM   30  C   UNL     1     -41.492  53.856 -53.667  1.00  0.00     0.038 A 
ENDBRANCH  23  24
ENDBRANCH  22  23
ENDBRANCH  19  22
ENDBRANCH   3  18
TORSDOF 8
ENDMDL
MODEL 3
REMARK VINA RESULT:      -7.2      2.361      3.067
REMARK  8 active torsions:
REMARK  status: ('A' for Active; 'I' for Inactive)
REMARK    1  A    between atoms: N_4  and  C_5 
REMARK    2  A    between atoms: C_5  and  C_6 
REMARK    3  A    between atoms: C_6  and  C_7 
REMARK    4  A    between atoms: C_7  and  N_8 
REMARK       I    between atoms: N_8  and  C_9 
REMARK       I    between atoms: C_9  and  N_10 
REMARK    5  A    between atoms: N_10  and  N_11 
REMARK       I    between atoms: N_11  and  C_12 
REMARK    6  A    between atoms: C_12  and  C_13 
REMARK    7  A    between atoms: C_13  and  O_14 
REMARK    8  A    between atoms: O_14  and  C_15 
ROOT
HETATM    1  N   UNL     1     -41.771  59.550 -50.166  1.00  0.00    -0.341 N 
HETATM    2  C   UNL     1     -40.807  58.925 -50.900  1.00  0.00     0.334 C 
HETATM    3  N   UNL     1     -40.805  57.554 -50.812  1.00  0.00    -0.249 N 
HETATM    4  O   UNL     1     -40.001  59.500 -51.624  1.00  0.00    -0.246 OA
HETATM    5  H   UNL     1     -42.514  58.960 -49.812  1.00  0.00     0.164 HD
HETATM    6  H   UNL     1     -40.021  57.118 -51.289  1.00  0.00     0.192 HD
ENDROOT
BRANCH   1   7
HETATM    7  C   UNL     1     -42.066  60.964 -50.296  1.00  0.00     0.130 C 
BRANCH   7   8
HETATM    8  C   UNL     1     -43.428  61.225 -50.972  1.00  0.00     0.019 C 
HETATM    9  C   UNL     1     -44.166  62.410 -50.335  1.00  0.00     0.013 C 
BRANCH   8  10
HETATM   10  C   UNL     1     -44.328  59.976 -50.884  1.00  0.00     0.156 C 
BRANCH  10  11
HETATM   11  N   UNL     1     -44.497  59.211 -52.111  1.00  0.00    -0.274 N 
HETATM   12  N   UNL     1     -43.851  58.043 -52.280  1.00  0.00    -0.177 NA
HETATM   13  C   UNL     1     -44.182  57.652 -53.515  1.00  0.00     0.053 A 
HETATM   14  C   UNL     1     -43.651  56.385 -54.071  1.00  0.00     0.072 C 
HETATM   15  C   UNL     1     -45.038  58.582 -54.140  1.00  0.00     0.055 A 
HETATM   16  C   UNL     1     -45.221  59.591 -53.216  1.00  0.00     0.028 A 
HETATM   17  C   UNL     1     -46.003  60.847 -53.304  1.00  0.00     0.070 C 
ENDBRANCH  10  11
ENDBRANCH   8  10
ENDBRANCH   7   8
ENDBRANCH   1   7
BRANCH   3  18
HETATM   18  N   UNL     1     -41.323  56.879 -49.694  1.00  0.00    -0.264 N 
HETATM   19  C   UNL     1     -41.558  55.522 -49.732  1.00  0.00     0.260 C 
HETATM   20  O   UNL     1     -41.441  54.857 -48.703  1.00  0.00    -0.269 OA
HETATM   21  H   UNL     1     -41.004  57.221 -48.792  1.00  0.00     0.190 HD
BRANCH  19  22
HETATM   22  C   UNL     1     -42.038  54.916 -51.049  1.00  0.00     0.280 C 
BRANCH  22  23
HETATM   23  O   UNL     1     -41.067  55.078 -52.087  1.00  0.00    -0.342 OA
BRANCH  23  24
HETATM   24  C   UNL     1     -40.693  53.870 -52.610  1.00  0.00     0.069 A 
HETATM   25  C   UNL     1     -40.077  52.918 -51.798  1.00  0.00     0.038 A 
HETATM   26  C   UNL     1     -39.709  51.684 -52.338  1.00  0.00     0.022 A 
HETATM   27  C   UNL     1     -39.986  51.406 -53.676  1.00  0.00     0.011 A 
HETATM   28 BR   UNL     1     -39.484  49.737 -54.408  1.00  0.00    -0.051 Br
HETATM   29  C   UNL     1     -40.635  52.346 -54.478  1.00  0.00     0.022 A 
HETATM   30  C   UNL     1     -40.998  53.582 -53.939  1.00  0.00     0.038 A 
ENDBRANCH  23  24
ENDBRANCH  22  23
ENDBRANCH  19  22
ENDBRANCH   3  18
TORSDOF 8
ENDMDL
MODEL 4
REMARK VINA RESULT:      -7.2      3.289      5.241
REMARK  8 active torsions:
REMARK  status: ('A' for Active; 'I' for Inactive)
REMARK    1  A    between atoms: N_4  and  C_5 
REMARK    2  A    between atoms: C_5  and  C_6 
REMARK    3  A    between atoms: C_6  and  C_7 
REMARK    4  A    between atoms: C_7  and  N_8 
REMARK       I    between atoms: N_8  and  C_9 
REMARK       I    between atoms: C_9  and  N_10 
REMARK    5  A    between atoms: N_10  and  N_11 
REMARK       I    between atoms: N_11  and  C_12 
REMARK    6  A    between atoms: C_12  and  C_13 
REMARK    7  A    between atoms: C_13  and  O_14 
REMARK    8  A    between atoms: O_14  and  C_15 
ROOT
HETATM    1  N   UNL     1     -44.171  55.902 -58.509  1.00  0.00    -0.341 N 
HETATM    2  C   UNL     1     -42.992  56.399 -58.043  1.00  0.00     0.334 C 
HETATM    3  N   UNL     1     -42.380  55.637 -57.077  1.00  0.00    -0.249 N 
HETATM    4  O   UNL     1     -42.461  57.429 -58.446  1.00  0.00    -0.246 OA
HETATM    5  H   UNL     1     -44.373  54.938 -58.274  1.00  0.00     0.164 HD
HETATM    6  H   UNL     1     -41.554  56.075 -56.678  1.00  0.00     0.192 HD
ENDROOT
BRANCH   1   7
HETATM    7  C   UNL     1     -44.852  56.447 -59.669  1.00  0.00     0.130 C 
BRANCH   7   8
HETATM    8  C   UNL     1     -46.351  56.699 -59.412  1.00  0.00     0.019 C 
HETATM    9  C   UNL     1     -47.204  56.396 -60.651  1.00  0.00     0.013 C 
BRANCH   8  10
HETATM   10  C   UNL     1     -46.593  58.164 -58.992  1.00  0.00     0.156 C 
BRANCH  10  11
HETATM   11  N   UNL     1     -45.811  58.652 -57.865  1.00  0.00    -0.274 N 
HETATM   12  N   UNL     1     -45.910  58.063 -56.660  1.00  0.00    -0.177 NA
HETATM   13  C   UNL     1     -45.119  58.789 -55.864  1.00  0.00     0.053 A 
HETATM   14  C   UNL     1     -44.970  58.442 -54.431  1.00  0.00     0.072 C 
HETATM   15  C   UNL     1     -44.519  59.855 -56.566  1.00  0.00     0.055 A 
HETATM   16  C   UNL     1     -44.989  59.754 -57.860  1.00  0.00     0.028 A 
HETATM   17  C   UNL     1     -44.727  60.600 -59.048  1.00  0.00     0.070 C 
ENDBRANCH  10  11
ENDBRANCH   8  10
ENDBRANCH   7   8
ENDBRANCH   1   7
BRANCH   3  18
HETATM   18  N   UNL     1     -43.104  54.769 -56.244  1.00  0.00    -0.264 N 
HETATM   19  C   UNL     1     -43.179  54.987 -54.886  1.00  0.00     0.260 C 
HETATM   20  O   UNL     1     -44.189  54.648 -54.271  1.00  0.00    -0.269 OA
HETATM   21  H   UNL     1     -43.951  54.380 -56.650  1.00  0.00     0.190 HD
BRANCH  19  22
HETATM   22  C   UNL     1     -41.954  55.573 -54.187  1.00  0.00     0.280 C 
BRANCH  22  23
HETATM   23  O   UNL     1     -40.746  54.943 -54.626  1.00  0.00    -0.342 OA
BRANCH  23  24
HETATM   24  C   UNL     1     -40.449  53.851 -53.856  1.00  0.00     0.069 A 
HETATM   25  C   UNL     1     -40.524  53.934 -52.466  1.00  0.00     0.038 A 
HETATM   26  C   UNL     1     -40.231  52.811 -51.690  1.00  0.00     0.022 A 
HETATM   27  C   UNL     1     -39.891  51.610 -52.314  1.00  0.00     0.011 A 
HETATM   28 BR   UNL     1     -39.489  50.091 -51.263  1.00  0.00    -0.051 Br
HETATM   29  C   UNL     1     -39.852  51.519 -53.705  1.00  0.00     0.022 A 
HETATM   30  C   UNL     1     -40.141  52.644 -54.481  1.00  0.00     0.038 A 
ENDBRANCH  23  24
ENDBRANCH  22  23
ENDBRANCH  19  22
ENDBRANCH   3  18
TORSDOF 8
ENDMDL
MODEL 5
REMARK VINA RESULT:      -7.2      4.663      8.646
REMARK  8 active torsions:
REMARK  status: ('A' for Active; 'I' for Inactive)
REMARK    1  A    between atoms: N_4  and  C_5 
REMARK    2  A    between atoms: C_5  and  C_6 
REMARK    3  A    between atoms: C_6  and  C_7 
REMARK    4  A    between atoms: C_7  and  N_8 
REMARK       I    between atoms: N_8  and  C_9 
REMARK       I    between atoms: C_9  and  N_10 
REMARK    5  A    between atoms: N_10  and  N_11 
REMARK       I    between atoms: N_11  and  C_12 
REMARK    6  A    between atoms: C_12  and  C_13 
REMARK    7  A    between atoms: C_13  and  O_14 
REMARK    8  A    between atoms: O_14  and  C_15 
ROOT
HETATM    1  N   UNL     1     -43.576  55.463 -55.398  1.00  0.00    -0.341 N 
HETATM    2  C   UNL     1     -42.723  56.104 -56.245  1.00  0.00     0.334 C 
HETATM    3  N   UNL     1     -43.089  56.078 -57.570  1.00  0.00    -0.249 N 
HETATM    4  O   UNL     1     -41.709  56.700 -55.895  1.00  0.00    -0.246 OA
HETATM    5  H   UNL     1     -44.486  55.228 -55.776  1.00  0.00     0.164 HD
HETATM    6  H   UNL     1     -42.391  56.479 -58.191  1.00  0.00     0.192 HD
ENDROOT
BRANCH   1   7
HETATM    7  C   UNL     1     -43.475  55.563 -53.954  1.00  0.00     0.130 C 
BRANCH   7   8
HETATM    8  C   UNL     1     -42.872  54.296 -53.314  1.00  0.00     0.019 C 
HETATM    9  C   UNL     1     -43.385  54.078 -51.884  1.00  0.00     0.013 C 
BRANCH   8  10
HETATM   10  C   UNL     1     -41.332  54.383 -53.279  1.00  0.00     0.156 C 
BRANCH  10  11
HETATM   11  N   UNL     1     -40.615  53.125 -53.131  1.00  0.00    -0.274 N 
HETATM   12  N   UNL     1     -40.609  52.221 -54.127  1.00  0.00    -0.177 NA
HETATM   13  C   UNL     1     -39.921  51.185 -53.638  1.00  0.00     0.053 A 
HETATM   14  C   UNL     1     -39.701  49.972 -54.459  1.00  0.00     0.072 C 
HETATM   15  C   UNL     1     -39.494  51.427 -52.315  1.00  0.00     0.055 A 
HETATM   16  C   UNL     1     -39.964  52.687 -52.002  1.00  0.00     0.028 A 
HETATM   17  C   UNL     1     -39.847  53.474 -50.752  1.00  0.00     0.070 C 
ENDBRANCH  10  11
ENDBRANCH   8  10
ENDBRANCH   7   8
ENDBRANCH   1   7
BRANCH   3  18
HETATM   18  N   UNL     1     -43.902  55.063 -58.098  1.00  0.00    -0.264 N 
HETATM   19  C   UNL     1     -44.225  55.038 -59.437  1.00  0.00     0.260 C 
HETATM   20  O   UNL     1     -44.402  53.957 -59.999  1.00  0.00    -0.269 OA
HETATM   21  H   UNL     1     -43.776  54.143 -57.683  1.00  0.00     0.190 HD
BRANCH  19  22
HETATM   22  C   UNL     1     -44.430  56.373 -60.149  1.00  0.00     0.280 C 
BRANCH  22  23
HETATM   23  O   UNL     1     -43.191  56.919 -60.610  1.00  0.00    -0.342 OA
BRANCH  23  24
HETATM   24  C   UNL     1     -43.117  58.263 -60.361  1.00  0.00     0.069 A 
HETATM   25  C   UNL     1     -41.970  58.976 -60.705  1.00  0.00     0.038 A 
HETATM   26  C   UNL     1     -41.908  60.348 -60.457  1.00  0.00     0.022 A 
HETATM   27  C   UNL     1     -43.007  60.998 -59.894  1.00  0.00     0.011 A 
HETATM   28 BR   UNL     1     -42.923  62.855 -59.555  1.00  0.00    -0.051 Br
HETATM   29  C   UNL     1     -44.168  60.290 -59.584  1.00  0.00     0.022 A 
HETATM   30  C   UNL     1     -44.227  58.916 -59.827  1.00  0.00     0.038 A 
ENDBRANCH  23  24
ENDBRANCH  22  23
ENDBRANCH  19  22
ENDBRANCH   3  18
TORSDOF 8
ENDMDL
MODEL 6
REMARK VINA RESULT:      -7.2      1.426      2.358
REMARK  8 active torsions:
REMARK  status: ('A' for Active; 'I' for Inactive)
REMARK    1  A    between atoms: N_4  and  C_5 
REMARK    2  A    between atoms: C_5  and  C_6 
REMARK    3  A    between atoms: C_6  and  C_7 
REMARK    4  A    between atoms: C_7  and  N_8 
REMARK       I    between atoms: N_8  and  C_9 
REMARK       I    between atoms: C_9  and  N_10 
REMARK    5  A    between atoms: N_10  and  N_11 
REMARK       I    between atoms: N_11  and  C_12 
REMARK    6  A    between atoms: C_12  and  C_13 
REMARK    7  A    between atoms: C_13  and  O_14 
REMARK    8  A    between atoms: O_14  and  C_15 
ROOT
HETATM    1  N   UNL     1     -42.896  57.671 -53.170  1.00  0.00    -0.341 N 
HETATM    2  C   UNL     1     -43.166  58.344 -52.016  1.00  0.00     0.334 C 
HETATM    3  N   UNL     1     -43.560  57.556 -50.961  1.00  0.00    -0.249 N 
HETATM    4  O   UNL     1     -43.052  59.557 -51.873  1.00  0.00    -0.246 OA
HETATM    5  H   UNL     1     -42.795  56.667 -53.087  1.00  0.00     0.164 HD
HETATM    6  H   UNL     1     -43.847  58.088 -50.143  1.00  0.00     0.192 HD
ENDROOT
BRANCH   1   7
HETATM    7  C   UNL     1     -42.268  58.298 -54.318  1.00  0.00     0.130 C 
BRANCH   7   8
HETATM    8  C   UNL     1     -43.155  58.249 -55.578  1.00  0.00     0.019 C 
HETATM    9  C   UNL     1     -44.581  57.783 -55.258  1.00  0.00     0.013 C 
BRANCH   8  10
HETATM   10  C   UNL     1     -42.549  57.300 -56.633  1.00  0.00     0.156 C 
BRANCH  10  11
HETATM   11  N   UNL     1     -42.423  57.829 -57.984  1.00  0.00    -0.274 N 
HETATM   12  N   UNL     1     -42.125  59.125 -58.184  1.00  0.00    -0.177 NA
HETATM   13  C   UNL     1     -42.147  59.274 -59.512  1.00  0.00     0.053 A 
HETATM   14  C   UNL     1     -41.865  60.593 -60.127  1.00  0.00     0.072 C 
HETATM   15  C   UNL     1     -42.471  58.066 -60.162  1.00  0.00     0.055 A 
HETATM   16  C   UNL     1     -42.656  57.143 -59.153  1.00  0.00     0.028 A 
HETATM   17  C   UNL     1     -43.030  55.711 -59.215  1.00  0.00     0.070 C 
ENDBRANCH  10  11
ENDBRANCH   8  10
ENDBRANCH   7   8
ENDBRANCH   1   7
BRANCH   3  18
HETATM   18  N   UNL     1     -44.169  56.305 -51.152  1.00  0.00    -0.264 N 
HETATM   19  C   UNL     1     -43.629  55.163 -50.605  1.00  0.00     0.260 C 
HETATM   20  O   UNL     1     -44.372  54.243 -50.264  1.00  0.00    -0.269 OA
HETATM   21  H   UNL     1     -45.185  56.315 -51.176  1.00  0.00     0.190 HD
BRANCH  19  22
HETATM   22  C   UNL     1     -42.107  55.059 -50.523  1.00  0.00     0.280 C 
BRANCH  22  23
HETATM   23  O   UNL     1     -41.496  55.283 -51.797  1.00  0.00    -0.342 OA
BRANCH  23  24
HETATM   24  C   UNL     1     -41.088  54.107 -52.365  1.00  0.00     0.069 A 
HETATM   25  C   UNL     1     -41.490  53.779 -53.659  1.00  0.00     0.038 A 
HETATM   26  C   UNL     1     -41.060  52.583 -54.235  1.00  0.00     0.022 A 
HETATM   27  C   UNL     1     -40.210  51.739 -53.519  1.00  0.00     0.011 A 
HETATM   28 BR   UNL     1     -39.630  50.116 -54.297  1.00  0.00    -0.051 Br
HETATM   29  C   UNL     1     -39.779  52.085 -52.238  1.00  0.00     0.022 A 
HETATM   30  C   UNL     1     -40.214  53.281 -51.661  1.00  0.00     0.038 A 
ENDBRANCH  23  24
ENDBRANCH  22  23
ENDBRANCH  19  22
ENDBRANCH   3  18
TORSDOF 8
ENDMDL
MODEL 7
REMARK VINA RESULT:      -7.1      2.962      6.493
REMARK  8 active torsions:
REMARK  status: ('A' for Active; 'I' for Inactive)
REMARK    1  A    between atoms: N_4  and  C_5 
REMARK    2  A    between atoms: C_5  and  C_6 
REMARK    3  A    between atoms: C_6  and  C_7 
REMARK    4  A    between atoms: C_7  and  N_8 
REMARK       I    between atoms: N_8  and  C_9 
REMARK       I    between atoms: C_9  and  N_10 
REMARK    5  A    between atoms: N_10  and  N_11 
REMARK       I    between atoms: N_11  and  C_12 
REMARK    6  A    between atoms: C_12  and  C_13 
REMARK    7  A    between atoms: C_13  and  O_14 
REMARK    8  A    between atoms: O_14  and  C_15 
ROOT
HETATM    1  N   UNL     1     -42.610  56.096 -51.020  1.00  0.00    -0.341 N 
HETATM    2  C   UNL     1     -43.663  56.913 -51.301  1.00  0.00     0.334 C 
HETATM    3  N   UNL     1     -43.408  57.895 -52.228  1.00  0.00    -0.249 N 
HETATM    4  O   UNL     1     -44.783  56.800 -50.813  1.00  0.00    -0.246 OA
HETATM    5  H   UNL     1     -41.827  56.142 -51.661  1.00  0.00     0.164 HD
HETATM    6  H   UNL     1     -44.177  58.548 -52.349  1.00  0.00     0.192 HD
ENDROOT
BRANCH   1   7
HETATM    7  C   UNL     1     -42.742  54.882 -50.237  1.00  0.00     0.130 C 
BRANCH   7   8
HETATM    8  C   UNL     1     -41.503  53.970 -50.344  1.00  0.00     0.019 C 
HETATM    9  C   UNL     1     -40.558  54.145 -49.147  1.00  0.00     0.013 C 
BRANCH   8  10
HETATM   10  C   UNL     1     -40.720  54.264 -51.640  1.00  0.00     0.156 C 
BRANCH  10  11
HETATM   11  N   UNL     1     -40.744  53.227 -52.661  1.00  0.00    -0.274 N 
HETATM   12  N   UNL     1     -39.891  52.189 -52.599  1.00  0.00    -0.177 NA
HETATM   13  C   UNL     1     -40.144  51.479 -53.703  1.00  0.00     0.053 A 
HETATM   14  C   UNL     1     -39.385  50.239 -53.992  1.00  0.00     0.072 C 
HETATM   15  C   UNL     1     -41.160  52.075 -54.479  1.00  0.00     0.055 A 
HETATM   16  C   UNL     1     -41.528  53.213 -53.790  1.00  0.00     0.028 A 
HETATM   17  C   UNL     1     -42.532  54.253 -54.117  1.00  0.00     0.070 C 
ENDBRANCH  10  11
ENDBRANCH   8  10
ENDBRANCH   7   8
ENDBRANCH   1   7
BRANCH   3  18
HETATM   18  N   UNL     1     -42.113  58.391 -52.450  1.00  0.00    -0.264 N 
HETATM   19  C   UNL     1     -41.671  58.677 -53.722  1.00  0.00     0.260 C 
HETATM   20  O   UNL     1     -40.862  59.588 -53.894  1.00  0.00    -0.269 OA
HETATM   21  H   UNL     1     -41.759  59.022 -51.735  1.00  0.00     0.190 HD
BRANCH  19  22
HETATM   22  C   UNL     1     -42.153  57.784 -54.864  1.00  0.00     0.280 C 
BRANCH  22  23
HETATM   23  O   UNL     1     -43.263  58.366 -55.554  1.00  0.00    -0.342 OA
BRANCH  23  24
HETATM   24  C   UNL     1     -43.561  57.667 -56.692  1.00  0.00     0.069 A 
HETATM   25  C   UNL     1     -42.824  56.532 -57.029  1.00  0.00     0.038 A 
HETATM   26  C   UNL     1     -43.143  55.819 -58.185  1.00  0.00     0.022 A 
HETATM   27  C   UNL     1     -44.214  56.232 -58.978  1.00  0.00     0.011 A 
HETATM   28 BR   UNL     1     -44.643  55.268 -60.547  1.00  0.00    -0.051 Br
HETATM   29  C   UNL     1     -44.974  57.346 -58.620  1.00  0.00     0.022 A 
HETATM   30  C   UNL     1     -44.651  58.062 -57.466  1.00  0.00     0.038 A 
ENDBRANCH  23  24
ENDBRANCH  22  23
ENDBRANCH  19  22
ENDBRANCH   3  18
TORSDOF 8
ENDMDL
MODEL 8
REMARK VINA RESULT:      -7.1     15.543     18.694
REMARK  8 active torsions:
REMARK  status: ('A' for Active; 'I' for Inactive)
REMARK    1  A    between atoms: N_4  and  C_5 
REMARK    2  A    between atoms: C_5  and  C_6 
REMARK    3  A    between atoms: C_6  and  C_7 
REMARK    4  A    between atoms: C_7  and  N_8 
REMARK       I    between atoms: N_8  and  C_9 
REMARK       I    between atoms: C_9  and  N_10 
REMARK    5  A    between atoms: N_10  and  N_11 
REMARK       I    between atoms: N_11  and  C_12 
REMARK    6  A    between atoms: C_12  and  C_13 
REMARK    7  A    between atoms: C_13  and  O_14 
REMARK    8  A    between atoms: O_14  and  C_15 
ROOT
HETATM    1  N   UNL     1     -32.855  40.795 -54.478  1.00  0.00    -0.341 N 
HETATM    2  C   UNL     1     -33.535  40.861 -55.658  1.00  0.00     0.334 C 
HETATM    3  N   UNL     1     -34.375  41.941 -55.786  1.00  0.00    -0.249 N 
HETATM    4  O   UNL     1     -33.415  40.059 -56.578  1.00  0.00    -0.246 OA
HETATM    5  H   UNL     1     -32.859  41.636 -53.914  1.00  0.00     0.164 HD
HETATM    6  H   UNL     1     -34.940  41.917 -56.630  1.00  0.00     0.192 HD
ENDROOT
BRANCH   1   7
HETATM    7  C   UNL     1     -31.774  39.857 -54.245  1.00  0.00     0.130 C 
BRANCH   7   8
HETATM    8  C   UNL     1     -31.867  39.176 -52.864  1.00  0.00     0.019 C 
HETATM    9  C   UNL     1     -32.335  37.719 -52.974  1.00  0.00     0.013 C 
BRANCH   8  10
HETATM   10  C   UNL     1     -32.841  39.941 -51.945  1.00  0.00     0.156 C 
BRANCH  10  11
HETATM   11  N   UNL     1     -32.774  39.628 -50.525  1.00  0.00    -0.274 N 
HETATM   12  N   UNL     1     -31.690  39.966 -49.802  1.00  0.00    -0.177 NA
HETATM   13  C   UNL     1     -31.936  39.485 -48.581  1.00  0.00     0.053 A 
HETATM   14  C   UNL     1     -30.950  39.661 -47.489  1.00  0.00     0.072 C 
HETATM   15  C   UNL     1     -33.183  38.827 -48.526  1.00  0.00     0.055 A 
HETATM   16  C   UNL     1     -33.705  38.923 -49.800  1.00  0.00     0.028 A 
HETATM   17  C   UNL     1     -34.977  38.408 -50.360  1.00  0.00     0.070 C 
ENDBRANCH  10  11
ENDBRANCH   8  10
ENDBRANCH   7   8
ENDBRANCH   1   7
BRANCH   3  18
HETATM   18  N   UNL     1     -34.927  42.592 -54.670  1.00  0.00    -0.264 N 
HETATM   19  C   UNL     1     -36.093  42.142 -54.092  1.00  0.00     0.260 C 
HETATM   20  O   UNL     1     -36.266  42.285 -52.882  1.00  0.00    -0.269 OA
HETATM   21  H   UNL     1     -34.254  42.970 -54.009  1.00  0.00     0.190 HD
BRANCH  19  22
HETATM   22  C   UNL     1     -37.164  41.552 -55.007  1.00  0.00     0.280 C 
BRANCH  22  23
HETATM   23  O   UNL     1     -37.420  42.400 -56.132  1.00  0.00    -0.342 OA
BRANCH  23  24
HETATM   24  C   UNL     1     -37.512  41.674 -57.288  1.00  0.00     0.069 A 
HETATM   25  C   UNL     1     -37.009  42.193 -58.481  1.00  0.00     0.038 A 
HETATM   26  C   UNL     1     -37.098  41.440 -59.653  1.00  0.00     0.022 A 
HETATM   27  C   UNL     1     -37.665  40.166 -59.615  1.00  0.00     0.011 A 
HETATM   28 BR   UNL     1     -37.790  39.149 -61.204  1.00  0.00    -0.051 Br
HETATM   29  C   UNL     1     -38.136  39.635 -58.414  1.00  0.00     0.022 A 
HETATM   30  C   UNL     1     -38.051  40.389 -57.242  1.00  0.00     0.038 A 
ENDBRANCH  23  24
ENDBRANCH  22  23
ENDBRANCH  19  22
ENDBRANCH   3  18
TORSDOF 8
ENDMDL
MODEL 9
REMARK VINA RESULT:      -7.0      2.450      3.119
REMARK  8 active torsions:
REMARK  status: ('A' for Active; 'I' for Inactive)
REMARK    1  A    between atoms: N_4  and  C_5 
REMARK    2  A    between atoms: C_5  and  C_6 
REMARK    3  A    between atoms: C_6  and  C_7 
REMARK    4  A    between atoms: C_7  and  N_8 
REMARK       I    between atoms: N_8  and  C_9 
REMARK       I    between atoms: C_9  and  N_10 
REMARK    5  A    between atoms: N_10  and  N_11 
REMARK       I    between atoms: N_11  and  C_12 
REMARK    6  A    between atoms: C_12  and  C_13 
REMARK    7  A    between atoms: C_13  and  O_14 
REMARK    8  A    between atoms: O_14  and  C_15 
ROOT
HETATM    1  N   UNL     1     -44.548  57.520 -53.478  1.00  0.00    -0.341 N 
HETATM    2  C   UNL     1     -44.389  58.247 -52.336  1.00  0.00     0.334 C 
HETATM    3  N   UNL     1     -44.016  57.521 -51.231  1.00  0.00    -0.249 N 
HETATM    4  O   UNL     1     -44.527  59.464 -52.259  1.00  0.00    -0.246 OA
HETATM    5  H   UNL     1     -44.172  56.580 -53.464  1.00  0.00     0.164 HD
HETATM    6  H   UNL     1     -43.997  58.068 -50.374  1.00  0.00     0.192 HD
ENDROOT
BRANCH   1   7
HETATM    7  C   UNL     1     -44.728  58.131 -54.782  1.00  0.00     0.130 C 
BRANCH   7   8
HETATM    8  C   UNL     1     -44.023  57.347 -55.907  1.00  0.00     0.019 C 
HETATM    9  C   UNL     1     -42.529  57.150 -55.618  1.00  0.00     0.013 C 
BRANCH   8  10
HETATM   10  C   UNL     1     -44.174  58.077 -57.257  1.00  0.00     0.156 C 
BRANCH  10  11
HETATM   11  N   UNL     1     -44.955  57.396 -58.279  1.00  0.00    -0.274 N 
HETATM   12  N   UNL     1     -44.365  56.536 -59.129  1.00  0.00    -0.177 NA
HETATM   13  C   UNL     1     -45.344  56.150 -59.952  1.00  0.00     0.053 A 
HETATM   14  C   UNL     1     -45.074  55.189 -61.046  1.00  0.00     0.072 C 
HETATM   15  C   UNL     1     -46.567  56.776 -59.629  1.00  0.00     0.055 A 
HETATM   16  C   UNL     1     -46.290  57.587 -58.548  1.00  0.00     0.028 A 
HETATM   17  C   UNL     1     -47.168  58.502 -57.781  1.00  0.00     0.070 C 
ENDBRANCH  10  11
ENDBRANCH   8  10
ENDBRANCH   7   8
ENDBRANCH   1   7
BRANCH   3  18
HETATM   18  N   UNL     1     -44.307  56.153 -51.106  1.00  0.00    -0.264 N 
HETATM   19  C   UNL     1     -43.377  55.274 -50.597  1.00  0.00     0.260 C 
HETATM   20  O   UNL     1     -43.755  54.288 -49.965  1.00  0.00    -0.269 OA
HETATM   21  H   UNL     1     -45.267  55.933 -50.856  1.00  0.00     0.190 HD
BRANCH  19  22
HETATM   22  C   UNL     1     -41.905  55.525 -50.917  1.00  0.00     0.280 C 
BRANCH  22  23
HETATM   23  O   UNL     1     -41.665  55.519 -52.328  1.00  0.00    -0.342 OA
BRANCH  23  24
HETATM   24  C   UNL     1     -41.226  54.294 -52.751  1.00  0.00     0.069 A 
HETATM   25  C   UNL     1     -41.533  53.847 -54.035  1.00  0.00     0.038 A 
HETATM   26  C   UNL     1     -41.070  52.601 -54.462  1.00  0.00     0.022 A 
HETATM   27  C   UNL     1     -40.283  51.827 -53.609  1.00  0.00     0.011 A 
HETATM   28 BR   UNL     1     -39.661  50.138 -54.185  1.00  0.00    -0.051 Br
HETATM   29  C   UNL     1     -39.947  52.292 -52.337  1.00  0.00     0.022 A 
HETATM   30  C   UNL     1     -40.413  53.537 -51.909  1.00  0.00     0.038 A 
ENDBRANCH  23  24
ENDBRANCH  22  23
ENDBRANCH  19  22
ENDBRANCH   3  18
TORSDOF 8
ENDMDL
MODEL 10
REMARK VINA RESULT:      -7.0      2.198      3.545
REMARK  8 active torsions:
REMARK  status: ('A' for Active; 'I' for Inactive)
REMARK    1  A    between atoms: N_4  and  C_5 
REMARK    2  A    between atoms: C_5  and  C_6 
REMARK    3  A    between atoms: C_6  and  C_7 
REMARK    4  A    between atoms: C_7  and  N_8 
REMARK       I    between atoms: N_8  and  C_9 
REMARK       I    between atoms: C_9  and  N_10 
REMARK    5  A    between atoms: N_10  and  N_11 
REMARK       I    between atoms: N_11  and  C_12 
REMARK    6  A    between atoms: C_12  and  C_13 
REMARK    7  A    between atoms: C_13  and  O_14 
REMARK    8  A    between atoms: O_14  and  C_15 
ROOT
HETATM    1  N   UNL     1     -43.945  57.237 -55.068  1.00  0.00    -0.341 N 
HETATM    2  C   UNL     1     -43.688  55.926 -54.802  1.00  0.00     0.334 C 
HETATM    3  N   UNL     1     -43.996  55.519 -53.527  1.00  0.00    -0.249 N 
HETATM    4  O   UNL     1     -43.245  55.123 -55.618  1.00  0.00    -0.246 OA
HETATM    5  H   UNL     1     -44.528  57.722 -54.397  1.00  0.00     0.164 HD
HETATM    6  H   UNL     1     -43.708  54.565 -53.324  1.00  0.00     0.192 HD
ENDROOT
BRANCH   1   7
HETATM    7  C   UNL     1     -43.887  57.795 -56.405  1.00  0.00     0.130 C 
BRANCH   7   8
HETATM    8  C   UNL     1     -42.455  58.181 -56.826  1.00  0.00     0.019 C 
HETATM    9  C   UNL     1     -42.145  59.653 -56.521  1.00  0.00     0.013 C 
BRANCH   8  10
HETATM   10  C   UNL     1     -42.244  57.933 -58.333  1.00  0.00     0.156 C 
BRANCH  10  11
HETATM   11  N   UNL     1     -43.275  57.163 -59.014  1.00  0.00    -0.274 N 
HETATM   12  N   UNL     1     -43.328  55.825 -58.881  1.00  0.00    -0.177 NA
HETATM   13  C   UNL     1     -44.337  55.448 -59.671  1.00  0.00     0.053 A 
HETATM   14  C   UNL     1     -44.704  54.018 -59.792  1.00  0.00     0.072 C 
HETATM   15  C   UNL     1     -44.925  56.553 -60.321  1.00  0.00     0.055 A 
HETATM   16  C   UNL     1     -44.215  57.654 -59.889  1.00  0.00     0.028 A 
HETATM   17  C   UNL     1     -44.356  59.088 -60.237  1.00  0.00     0.070 C 
ENDBRANCH  10  11
ENDBRANCH   8  10
ENDBRANCH   7   8
ENDBRANCH   1   7
BRANCH   3  18
HETATM   18  N   UNL     1     -44.029  56.415 -52.446  1.00  0.00    -0.264 N 
HETATM   19  C   UNL     1     -42.994  56.470 -51.539  1.00  0.00     0.260 C 
HETATM   20  O   UNL     1     -42.720  57.539 -50.994  1.00  0.00    -0.269 OA
HETATM   21  H   UNL     1     -44.461  57.314 -52.638  1.00  0.00     0.190 HD
BRANCH  19  22
HETATM   22  C   UNL     1     -42.280  55.166 -51.189  1.00  0.00     0.280 C 
BRANCH  22  23
HETATM   23  O   UNL     1     -40.932  55.160 -51.669  1.00  0.00    -0.342 OA
BRANCH  23  24
HETATM   24  C   UNL     1     -40.629  53.973 -52.279  1.00  0.00     0.069 A 
HETATM   25  C   UNL     1     -40.777  53.839 -53.659  1.00  0.00     0.038 A 
HETATM   26  C   UNL     1     -40.455  52.629 -54.275  1.00  0.00     0.022 A 
HETATM   27  C   UNL     1     -39.961  51.573 -53.507  1.00  0.00     0.011 A 
HETATM   28 BR   UNL     1     -39.528  49.933 -54.340  1.00  0.00    -0.051 Br
HETATM   29  C   UNL     1     -39.779  51.721 -52.132  1.00  0.00     0.022 A 
HETATM   30  C   UNL     1     -40.106  52.931 -51.516  1.00  0.00     0.038 A 
ENDBRANCH  23  24
ENDBRANCH  22  23
ENDBRANCH  19  22
ENDBRANCH   3  18
TORSDOF 8
ENDMDL
