MODEL 1
REMARK VINA RESULT:      -9.4      0.000      0.000
REMARK  8 active torsions:
REMARK  status: ('A' for Active; 'I' for Inactive)
REMARK    1  A    between atoms: C_8  and  N_9 
REMARK    2  A    between atoms: N_9  and  C_10 
REMARK    3  A    between atoms: N_14  and  C_15 
REMARK    4  A    between atoms: C_15  and  C_16 
REMARK    5  A    between atoms: C_28  and  N_29 
REMARK       I    between atoms: N_29  and  C_30 
REMARK    6  A    between atoms: C_30  and  O_31 
REMARK    7  A    between atoms: O_31  and  C_32 
REMARK    8  A    between atoms: C_32  and  C_33 
ROOT
HETATM    1  C   UNL     1     -43.099  59.942 -56.693  1.00  0.00     0.053 C 
HETATM    2  C   UNL     1     -42.808  59.339 -58.023  1.00  0.00    -0.002 A 
HETATM    3  C   UNL     1     -42.941  58.000 -58.392  1.00  0.00     0.106 A 
HETATM    4  N   UNL     1     -42.576  57.881 -59.702  1.00  0.00    -0.238 N 
HETATM    5  N   UNL     1     -42.560  56.743 -60.404  1.00  0.00    -0.161 NA
HETATM    6  C   UNL     1     -42.957  55.712 -59.730  1.00  0.00     0.257 A 
HETATM    7  N   UNL     1     -43.386  55.699 -58.431  1.00  0.00    -0.226 NA
HETATM    8  C   UNL     1     -43.406  56.800 -57.735  1.00  0.00     0.138 A 
HETATM    9  C   UNL     1     -42.257  59.110 -60.204  1.00  0.00     0.149 A 
HETATM   10  C   UNL     1     -42.403  60.042 -59.206  1.00  0.00     0.062 A 
ENDROOT
BRANCH   8  11
HETATM   11  N   UNL     1     -43.863  56.797 -56.426  1.00  0.00    -0.242 NA
HETATM   12  H   UNL     1     -44.868  56.747 -56.349  1.00  0.00     0.135 HD
BRANCH  11  13
HETATM   13  C   UNL     1     -43.266  55.948 -55.449  1.00  0.00     0.015 A 
HETATM   14  C   UNL     1     -43.908  55.631 -54.242  1.00  0.00     0.039 A 
HETATM   15  C   UNL     1     -43.221  54.898 -53.256  1.00  0.00     0.013 A 
HETATM   16  C   UNL     1     -41.917  54.481 -53.500  1.00  0.00     0.065 A 
HETATM   17  C   UNL     1     -43.509  54.435 -51.956  1.00  0.00     0.152 A 
HETATM   18  N   UNL     1     -41.499  53.905 -52.320  1.00  0.00    -0.265 N 
HETATM   19  C   UNL     1     -41.275  54.711 -54.721  1.00  0.00     0.034 A 
HETATM   20  N   UNL     1     -42.468  53.828 -51.381  1.00  0.00    -0.183 NA
HETATM   21  C   UNL     1     -41.978  55.442 -55.687  1.00  0.00     0.026 A 
BRANCH  18  22
HETATM   22  C   UNL     1     -40.142  53.486 -51.979  1.00  0.00     0.190 C 
BRANCH  22  23
HETATM   23  C   UNL     1     -39.912  52.007 -52.220  1.00  0.00    -0.035 A 
HETATM   24  C   UNL     1     -39.842  51.476 -53.520  1.00  0.00     0.051 A 
HETATM   25  C   UNL     1     -39.654  50.110 -53.708  1.00  0.00     0.117 A 
HETATM   26  F   UNL     1     -39.629  49.612 -54.951  1.00  0.00    -0.206 F 
HETATM   27  C   UNL     1     -39.501  49.253 -52.626  1.00  0.00     0.042 A 
HETATM   28  C   UNL     1     -39.532  49.769 -51.333  1.00  0.00     0.004 A 
HETATM   29  C   UNL     1     -39.734  51.139 -51.130  1.00  0.00     0.009 A 
ENDBRANCH  22  23
ENDBRANCH  18  22
ENDBRANCH  11  13
ENDBRANCH   8  11
BRANCH  10  30
HETATM   30  N   UNL     1     -42.218  61.409 -59.320  1.00  0.00    -0.301 N 
HETATM   31  C   UNL     1     -41.156  62.106 -58.827  1.00  0.00     0.365 C 
HETATM   32  O   UNL     1     -40.220  61.696 -58.154  1.00  0.00    -0.238 OA
HETATM   33  H   UNL     1     -42.826  61.919 -59.946  1.00  0.00     0.171 HD
BRANCH  31  34
HETATM   34  O   UNL     1     -41.231  63.397 -59.244  1.00  0.00    -0.302 OA
BRANCH  34  35
HETATM   35  C   UNL     1     -41.808  63.644 -60.548  1.00  0.00     0.215 C 
BRANCH  35  36
HETATM   36  C   UNL     1     -41.050  64.674 -61.421  1.00  0.00     0.233 C 
HETATM   37  N   UNL     1     -39.550  64.408 -61.436  1.00  0.00    -0.065 N 
HETATM   38  H   UNL     1     -39.043  65.235 -61.770  1.00  0.00     0.277 HD
HETATM   39  H   UNL     1     -39.233  64.266 -60.452  1.00  0.00     0.277 HD
HETATM   40  C   UNL     1     -39.132  63.190 -62.212  1.00  0.00     0.259 C 
HETATM   41  C   UNL     1     -39.782  63.205 -63.596  1.00  0.00     0.195 C 
HETATM   42  O   UNL     1     -41.203  63.379 -63.496  1.00  0.00    -0.387 OA
HETATM   43  C   UNL     1     -41.538  64.630 -62.881  1.00  0.00     0.202 C 
ENDBRANCH  35  36
ENDBRANCH  34  35
ENDBRANCH  31  34
ENDBRANCH  10  30
TORSDOF 8
ENDMDL
MODEL 2
REMARK VINA RESULT:      -9.3      4.879      6.494
REMARK  8 active torsions:
REMARK  status: ('A' for Active; 'I' for Inactive)
REMARK    1  A    between atoms: C_8  and  N_9 
REMARK    2  A    between atoms: N_9  and  C_10 
REMARK    3  A    between atoms: N_14  and  C_15 
REMARK    4  A    between atoms: C_15  and  C_16 
REMARK    5  A    between atoms: C_28  and  N_29 
REMARK       I    between atoms: N_29  and  C_30 
REMARK    6  A    between atoms: C_30  and  O_31 
REMARK    7  A    between atoms: O_31  and  C_32 
REMARK    8  A    between atoms: C_32  and  C_33 
ROOT
HETATM    1  C   UNL     1     -45.082  59.553 -55.941  1.00  0.00     0.053 C 
HETATM    2  C   UNL     1     -45.564  58.761 -57.107  1.00  0.00    -0.002 A 
HETATM    3  C   UNL     1     -44.901  57.717 -57.752  1.00  0.00     0.106 A 
HETATM    4  N   UNL     1     -45.700  57.266 -58.762  1.00  0.00    -0.238 N 
HETATM    5  N   UNL     1     -45.396  56.279 -59.613  1.00  0.00    -0.161 NA
HETATM    6  C   UNL     1     -44.242  55.737 -59.386  1.00  0.00     0.257 A 
HETATM    7  N   UNL     1     -43.366  56.064 -58.388  1.00  0.00    -0.226 NA
HETATM    8  C   UNL     1     -43.649  57.024 -57.554  1.00  0.00     0.138 A 
HETATM    9  C   UNL     1     -46.879  57.954 -58.759  1.00  0.00     0.149 A 
HETATM   10  C   UNL     1     -46.845  58.876 -57.741  1.00  0.00     0.062 A 
ENDROOT
BRANCH   8  11
HETATM   11  N   UNL     1     -42.775  57.343 -56.526  1.00  0.00    -0.242 NA
HETATM   12  H   UNL     1     -42.978  58.227 -56.083  1.00  0.00     0.135 HD
BRANCH  11  13
HETATM   13  C   UNL     1     -42.435  56.378 -55.534  1.00  0.00     0.015 A 
HETATM   14  C   UNL     1     -43.349  55.959 -54.554  1.00  0.00     0.039 A 
HETATM   15  C   UNL     1     -42.923  55.105 -53.520  1.00  0.00     0.013 A 
HETATM   16  C   UNL     1     -41.603  54.671 -53.493  1.00  0.00     0.065 A 
HETATM   17  C   UNL     1     -43.517  54.520 -52.383  1.00  0.00     0.152 A 
HETATM   18  N   UNL     1     -41.483  53.962 -52.318  1.00  0.00    -0.265 N 
HETATM   19  C   UNL     1     -40.686  55.004 -54.496  1.00  0.00     0.034 A 
HETATM   20  N   UNL     1     -42.649  53.822 -51.648  1.00  0.00    -0.183 NA
HETATM   21  C   UNL     1     -41.133  55.855 -55.515  1.00  0.00     0.026 A 
BRANCH  18  22
HETATM   22  C   UNL     1     -40.250  53.463 -51.714  1.00  0.00     0.190 C 
BRANCH  22  23
HETATM   23  C   UNL     1     -39.980  52.011 -52.055  1.00  0.00    -0.035 A 
HETATM   24  C   UNL     1     -39.843  51.583 -53.387  1.00  0.00     0.051 A 
HETATM   25  C   UNL     1     -39.621  50.238 -53.669  1.00  0.00     0.117 A 
HETATM   26  F   UNL     1     -39.531  49.837 -54.944  1.00  0.00    -0.206 F 
HETATM   27  C   UNL     1     -39.499  49.304 -52.650  1.00  0.00     0.042 A 
HETATM   28  C   UNL     1     -39.596  49.719 -51.324  1.00  0.00     0.004 A 
HETATM   29  C   UNL     1     -39.833  51.066 -51.027  1.00  0.00     0.009 A 
ENDBRANCH  22  23
ENDBRANCH  18  22
ENDBRANCH  11  13
ENDBRANCH   8  11
BRANCH  10  30
HETATM   30  N   UNL     1     -47.863  59.740 -57.376  1.00  0.00    -0.301 N 
HETATM   31  C   UNL     1     -48.460  60.648 -58.199  1.00  0.00     0.365 C 
HETATM   32  O   UNL     1     -48.187  60.922 -59.360  1.00  0.00    -0.238 OA
HETATM   33  H   UNL     1     -48.314  59.591 -56.485  1.00  0.00     0.171 HD
BRANCH  31  34
HETATM   34  O   UNL     1     -49.507  61.223 -57.551  1.00  0.00    -0.302 OA
BRANCH  34  35
HETATM   35  C   UNL     1     -50.830  60.710 -57.837  1.00  0.00     0.215 C 
BRANCH  35  36
HETATM   36  C   UNL     1     -51.510  59.951 -56.671  1.00  0.00     0.233 C 
HETATM   37  N   UNL     1     -51.366  60.697 -55.350  1.00  0.00    -0.065 N 
HETATM   38  H   UNL     1     -51.562  60.070 -54.561  1.00  0.00     0.277 HD
HETATM   39  H   UNL     1     -50.368  60.979 -55.240  1.00  0.00     0.277 HD
HETATM   40  C   UNL     1     -52.191  61.949 -55.239  1.00  0.00     0.259 C 
HETATM   41  C   UNL     1     -53.637  61.660 -55.644  1.00  0.00     0.195 C 
HETATM   42  O   UNL     1     -53.695  61.030 -56.932  1.00  0.00    -0.387 OA
HETATM   43  C   UNL     1     -53.017  59.767 -56.932  1.00  0.00     0.202 C 
ENDBRANCH  35  36
ENDBRANCH  34  35
ENDBRANCH  31  34
ENDBRANCH  10  30
TORSDOF 8
ENDMDL
MODEL 3
REMARK VINA RESULT:      -9.2      3.475      5.747
REMARK  8 active torsions:
REMARK  status: ('A' for Active; 'I' for Inactive)
REMARK    1  A    between atoms: C_8  and  N_9 
REMARK    2  A    between atoms: N_9  and  C_10 
REMARK    3  A    between atoms: N_14  and  C_15 
REMARK    4  A    between atoms: C_15  and  C_16 
REMARK    5  A    between atoms: C_28  and  N_29 
REMARK       I    between atoms: N_29  and  C_30 
REMARK    6  A    between atoms: C_30  and  O_31 
REMARK    7  A    between atoms: O_31  and  C_32 
REMARK    8  A    between atoms: C_32  and  C_33 
ROOT
HETATM    1  C   UNL     1     -44.706  57.781 -54.474  1.00  0.00     0.053 C 
HETATM    2  C   UNL     1     -44.764  59.128 -53.841  1.00  0.00    -0.002 A 
HETATM    3  C   UNL     1     -45.065  59.424 -52.511  1.00  0.00     0.106 A 
HETATM    4  N   UNL     1     -44.999  60.778 -52.352  1.00  0.00    -0.238 N 
HETATM    5  N   UNL     1     -45.240  61.440 -51.214  1.00  0.00    -0.161 NA
HETATM    6  C   UNL     1     -45.530  60.667 -50.217  1.00  0.00     0.257 A 
HETATM    7  N   UNL     1     -45.589  59.301 -50.231  1.00  0.00    -0.226 NA
HETATM    8  C   UNL     1     -45.359  58.644 -51.331  1.00  0.00     0.138 A 
HETATM    9  C   UNL     1     -44.619  61.362 -53.526  1.00  0.00     0.149 A 
HETATM   10  C   UNL     1     -44.446  60.377 -54.468  1.00  0.00     0.062 A 
ENDROOT
BRANCH   8  11
HETATM   11  N   UNL     1     -45.394  57.258 -51.344  1.00  0.00    -0.242 NA
HETATM   12  H   UNL     1     -45.761  56.871 -52.201  1.00  0.00     0.135 HD
BRANCH  11  13
HETATM   13  C   UNL     1     -44.265  56.498 -50.921  1.00  0.00     0.015 A 
HETATM   14  C   UNL     1     -42.989  57.066 -50.789  1.00  0.00     0.039 A 
HETATM   15  C   UNL     1     -41.884  56.244 -50.497  1.00  0.00     0.013 A 
HETATM   16  C   UNL     1     -42.076  54.878 -50.323  1.00  0.00     0.065 A 
HETATM   17  C   UNL     1     -40.497  56.437 -50.328  1.00  0.00     0.152 A 
HETATM   18  N   UNL     1     -40.811  54.355 -50.169  1.00  0.00    -0.265 N 
HETATM   19  C   UNL     1     -43.345  54.290 -50.368  1.00  0.00     0.034 A 
HETATM   20  N   UNL     1     -39.838  55.293 -50.127  1.00  0.00    -0.183 NA
HETATM   21  C   UNL     1     -44.429  55.128 -50.661  1.00  0.00     0.026 A 
BRANCH  18  22
HETATM   22  C   UNL     1     -40.440  52.943 -50.154  1.00  0.00     0.190 C 
BRANCH  22  23
HETATM   23  C   UNL     1     -40.221  52.383 -51.545  1.00  0.00    -0.035 A 
HETATM   24  C   UNL     1     -40.481  53.150 -52.695  1.00  0.00     0.051 A 
HETATM   25  C   UNL     1     -40.294  52.600 -53.959  1.00  0.00     0.117 A 
HETATM   26  F   UNL     1     -40.582  53.328 -55.045  1.00  0.00    -0.206 F 
HETATM   27  C   UNL     1     -39.821  51.303 -54.112  1.00  0.00     0.042 A 
HETATM   28  C   UNL     1     -39.525  50.543 -52.983  1.00  0.00     0.004 A 
HETATM   29  C   UNL     1     -39.721  51.080 -51.706  1.00  0.00     0.009 A 
ENDBRANCH  22  23
ENDBRANCH  18  22
ENDBRANCH  11  13
ENDBRANCH   8  11
BRANCH  10  30
HETATM   30  N   UNL     1     -44.021  60.551 -55.774  1.00  0.00    -0.301 N 
HETATM   31  C   UNL     1     -42.782  60.238 -56.249  1.00  0.00     0.365 C 
HETATM   32  O   UNL     1     -41.811  59.820 -55.632  1.00  0.00    -0.238 OA
HETATM   33  H   UNL     1     -44.715  60.776 -56.473  1.00  0.00     0.171 HD
BRANCH  31  34
HETATM   34  O   UNL     1     -42.761  60.405 -57.597  1.00  0.00    -0.302 OA
BRANCH  34  35
HETATM   35  C   UNL     1     -43.066  59.252 -58.417  1.00  0.00     0.215 C 
BRANCH  35  36
HETATM   36  C   UNL     1     -41.907  58.240 -58.590  1.00  0.00     0.233 C 
HETATM   37  N   UNL     1     -42.085  57.019 -57.696  1.00  0.00    -0.065 N 
HETATM   38  H   UNL     1     -41.199  56.507 -57.607  1.00  0.00     0.277 HD
HETATM   39  H   UNL     1     -42.313  57.348 -56.733  1.00  0.00     0.277 HD
HETATM   40  C   UNL     1     -43.187  56.085 -58.113  1.00  0.00     0.259 C 
HETATM   41  C   UNL     1     -43.061  55.762 -59.603  1.00  0.00     0.195 C 
HETATM   42  O   UNL     1     -42.979  56.961 -60.385  1.00  0.00    -0.387 OA
HETATM   43  C   UNL     1     -41.823  57.736 -60.043  1.00  0.00     0.202 C 
ENDBRANCH  35  36
ENDBRANCH  34  35
ENDBRANCH  31  34
ENDBRANCH  10  30
TORSDOF 8
ENDMDL
MODEL 4
REMARK VINA RESULT:      -9.2      3.758      6.018
REMARK  8 active torsions:
REMARK  status: ('A' for Active; 'I' for Inactive)
REMARK    1  A    between atoms: C_8  and  N_9 
REMARK    2  A    between atoms: N_9  and  C_10 
REMARK    3  A    between atoms: N_14  and  C_15 
REMARK    4  A    between atoms: C_15  and  C_16 
REMARK    5  A    between atoms: C_28  and  N_29 
REMARK       I    between atoms: N_29  and  C_30 
REMARK    6  A    between atoms: C_30  and  O_31 
REMARK    7  A    between atoms: O_31  and  C_32 
REMARK    8  A    between atoms: C_32  and  C_33 
ROOT
HETATM    1  C   UNL     1     -43.903  58.840 -54.167  1.00  0.00     0.053 C 
HETATM    2  C   UNL     1     -43.168  59.400 -55.335  1.00  0.00    -0.002 A 
HETATM    3  C   UNL     1     -42.872  58.754 -56.536  1.00  0.00     0.106 A 
HETATM    4  N   UNL     1     -42.195  59.629 -57.334  1.00  0.00    -0.238 N 
HETATM    5  N   UNL     1     -41.730  59.364 -58.560  1.00  0.00    -0.161 NA
HETATM    6  C   UNL     1     -42.002  58.166 -58.969  1.00  0.00     0.257 A 
HETATM    7  N   UNL     1     -42.704  57.209 -58.290  1.00  0.00    -0.226 NA
HETATM    8  C   UNL     1     -43.161  57.453 -57.095  1.00  0.00     0.138 A 
HETATM    9  C   UNL     1     -42.085  60.836 -56.705  1.00  0.00     0.149 A 
HETATM   10  C   UNL     1     -42.689  60.744 -55.474  1.00  0.00     0.062 A 
ENDROOT
BRANCH   8  11
HETATM   11  N   UNL     1     -43.894  56.495 -56.412  1.00  0.00    -0.242 NA
HETATM   12  H   UNL     1     -44.456  55.911 -57.014  1.00  0.00     0.135 HD
BRANCH  11  13
HETATM   13  C   UNL     1     -43.284  55.694 -55.404  1.00  0.00     0.015 A 
HETATM   14  C   UNL     1     -43.899  55.456 -54.165  1.00  0.00     0.039 A 
HETATM   15  C   UNL     1     -43.197  54.770 -53.156  1.00  0.00     0.013 A 
HETATM   16  C   UNL     1     -41.905  54.320 -53.408  1.00  0.00     0.065 A 
HETATM   17  C   UNL     1     -43.458  54.386 -51.824  1.00  0.00     0.152 A 
HETATM   18  N   UNL     1     -41.465  53.805 -52.208  1.00  0.00    -0.265 N 
HETATM   19  C   UNL     1     -41.292  54.470 -54.656  1.00  0.00     0.034 A 
HETATM   20  N   UNL     1     -42.411  53.797 -51.242  1.00  0.00    -0.183 NA
HETATM   21  C   UNL     1     -42.010  55.156 -55.644  1.00  0.00     0.026 A 
BRANCH  18  22
HETATM   22  C   UNL     1     -40.105  53.386 -51.878  1.00  0.00     0.190 C 
BRANCH  22  23
HETATM   23  C   UNL     1     -39.876  51.909 -52.126  1.00  0.00    -0.035 A 
HETATM   24  C   UNL     1     -39.767  51.391 -53.429  1.00  0.00     0.051 A 
HETATM   25  C   UNL     1     -39.581  50.026 -53.626  1.00  0.00     0.117 A 
HETATM   26  F   UNL     1     -39.518  49.541 -54.872  1.00  0.00    -0.206 F 
HETATM   27  C   UNL     1     -39.467  49.157 -52.548  1.00  0.00     0.042 A 
HETATM   28  C   UNL     1     -39.536  49.660 -51.251  1.00  0.00     0.004 A 
HETATM   29  C   UNL     1     -39.737  51.028 -51.040  1.00  0.00     0.009 A 
ENDBRANCH  22  23
ENDBRANCH  18  22
ENDBRANCH  11  13
ENDBRANCH   8  11
BRANCH  10  30
HETATM   30  N   UNL     1     -42.832  61.762 -54.548  1.00  0.00    -0.301 N 
HETATM   31  C   UNL     1     -43.999  62.400 -54.250  1.00  0.00     0.365 C 
HETATM   32  O   UNL     1     -45.100  62.256 -54.764  1.00  0.00    -0.238 OA
HETATM   33  H   UNL     1     -42.057  61.950 -53.926  1.00  0.00     0.171 HD
BRANCH  31  34
HETATM   34  O   UNL     1     -43.799  63.239 -53.200  1.00  0.00    -0.302 OA
BRANCH  34  35
HETATM   35  C   UNL     1     -44.525  62.965 -51.979  1.00  0.00     0.215 C 
BRANCH  35  36
HETATM   36  C   UNL     1     -44.142  61.645 -51.266  1.00  0.00     0.233 C 
HETATM   37  N   UNL     1     -43.562  61.897 -49.880  1.00  0.00    -0.065 N 
HETATM   38  H   UNL     1     -43.063  61.065 -49.543  1.00  0.00     0.277 HD
HETATM   39  H   UNL     1     -42.837  62.643 -49.959  1.00  0.00     0.277 HD
HETATM   40  C   UNL     1     -44.558  62.359 -48.853  1.00  0.00     0.259 C 
HETATM   41  C   UNL     1     -45.784  61.445 -48.865  1.00  0.00     0.195 C 
HETATM   42  O   UNL     1     -46.321  61.320 -50.190  1.00  0.00    -0.387 OA
HETATM   43  C   UNL     1     -45.372  60.733 -51.090  1.00  0.00     0.202 C 
ENDBRANCH  35  36
ENDBRANCH  34  35
ENDBRANCH  31  34
ENDBRANCH  10  30
TORSDOF 8
ENDMDL
MODEL 5
REMARK VINA RESULT:      -8.8      3.402      5.844
REMARK  8 active torsions:
REMARK  status: ('A' for Active; 'I' for Inactive)
REMARK    1  A    between atoms: C_8  and  N_9 
REMARK    2  A    between atoms: N_9  and  C_10 
REMARK    3  A    between atoms: N_14  and  C_15 
REMARK    4  A    between atoms: C_15  and  C_16 
REMARK    5  A    between atoms: C_28  and  N_29 
REMARK       I    between atoms: N_29  and  C_30 
REMARK    6  A    between atoms: C_30  and  O_31 
REMARK    7  A    between atoms: O_31  and  C_32 
REMARK    8  A    between atoms: C_32  and  C_33 
ROOT
HETATM    1  C   UNL     1     -45.031  59.036 -55.562  1.00  0.00     0.053 C 
HETATM    2  C   UNL     1     -44.437  60.402 -55.532  1.00  0.00    -0.002 A 
HETATM    3  C   UNL     1     -44.360  61.267 -54.441  1.00  0.00     0.106 A 
HETATM    4  N   UNL     1     -43.734  62.409 -54.846  1.00  0.00    -0.238 N 
HETATM    5  N   UNL     1     -43.491  63.477 -54.078  1.00  0.00    -0.161 NA
HETATM    6  C   UNL     1     -43.890  63.337 -52.855  1.00  0.00     0.257 A 
HETATM    7  N   UNL     1     -44.491  62.236 -52.311  1.00  0.00    -0.226 NA
HETATM    8  C   UNL     1     -44.735  61.190 -53.047  1.00  0.00     0.138 A 
HETATM    9  C   UNL     1     -43.360  62.290 -56.154  1.00  0.00     0.149 A 
HETATM   10  C   UNL     1     -43.759  61.058 -56.612  1.00  0.00     0.062 A 
ENDROOT
BRANCH   8  11
HETATM   11  N   UNL     1     -45.322  60.062 -52.495  1.00  0.00    -0.242 NA
HETATM   12  H   UNL     1     -46.013  59.632 -53.092  1.00  0.00     0.135 HD
BRANCH  11  13
HETATM   13  C   UNL     1     -44.525  59.052 -51.883  1.00  0.00     0.015 A 
HETATM   14  C   UNL     1     -43.141  59.202 -51.699  1.00  0.00     0.039 A 
HETATM   15  C   UNL     1     -42.379  58.123 -51.212  1.00  0.00     0.013 A 
HETATM   16  C   UNL     1     -43.013  56.925 -50.900  1.00  0.00     0.065 A 
HETATM   17  C   UNL     1     -41.016  57.891 -50.938  1.00  0.00     0.152 A 
HETATM   18  N   UNL     1     -41.995  56.057 -50.570  1.00  0.00    -0.265 N 
HETATM   19  C   UNL     1     -44.400  56.767 -50.996  1.00  0.00     0.034 A 
HETATM   20  N   UNL     1     -40.775  56.638 -50.545  1.00  0.00    -0.183 NA
HETATM   21  C   UNL     1     -45.137  57.854 -51.484  1.00  0.00     0.026 A 
BRANCH  18  22
HETATM   22  C   UNL     1     -42.104  54.617 -50.357  1.00  0.00     0.190 C 
BRANCH  22  23
HETATM   23  C   UNL     1     -41.516  53.813 -51.500  1.00  0.00    -0.035 A 
HETATM   24  C   UNL     1     -40.459  52.910 -51.295  1.00  0.00     0.051 A 
HETATM   25  C   UNL     1     -39.924  52.205 -52.369  1.00  0.00     0.117 A 
HETATM   26  F   UNL     1     -38.891  51.377 -52.167  1.00  0.00    -0.206 F 
HETATM   27  C   UNL     1     -40.440  52.352 -53.650  1.00  0.00     0.042 A 
HETATM   28  C   UNL     1     -41.511  53.216 -53.862  1.00  0.00     0.004 A 
HETATM   29  C   UNL     1     -42.049  53.941 -52.793  1.00  0.00     0.009 A 
ENDBRANCH  22  23
ENDBRANCH  18  22
ENDBRANCH  11  13
ENDBRANCH   8  11
BRANCH  10  30
HETATM   30  N   UNL     1     -43.531  60.533 -57.873  1.00  0.00    -0.301 N 
HETATM   31  C   UNL     1     -42.454  59.776 -58.229  1.00  0.00     0.365 C 
HETATM   32  O   UNL     1     -41.478  59.473 -57.557  1.00  0.00    -0.238 OA
HETATM   33  H   UNL     1     -44.283  60.572 -58.546  1.00  0.00     0.171 HD
BRANCH  31  34
HETATM   34  O   UNL     1     -42.627  59.317 -59.496  1.00  0.00    -0.302 OA
BRANCH  34  35
HETATM   35  C   UNL     1     -43.806  58.520 -59.762  1.00  0.00     0.215 C 
BRANCH  35  36
HETATM   36  C   UNL     1     -43.877  57.173 -59.001  1.00  0.00     0.233 C 
HETATM   37  N   UNL     1     -45.314  56.766 -58.704  1.00  0.00    -0.065 N 
HETATM   38  H   UNL     1     -45.339  56.044 -57.975  1.00  0.00     0.277 HD
HETATM   39  H   UNL     1     -45.811  57.588 -58.298  1.00  0.00     0.277 HD
HETATM   40  C   UNL     1     -46.106  56.323 -59.904  1.00  0.00     0.259 C 
HETATM   41  C   UNL     1     -45.310  55.288 -60.702  1.00  0.00     0.195 C 
HETATM   42  O   UNL     1     -43.997  55.775 -61.011  1.00  0.00    -0.387 OA
HETATM   43  C   UNL     1     -43.238  56.037 -59.823  1.00  0.00     0.202 C 
ENDBRANCH  35  36
ENDBRANCH  34  35
ENDBRANCH  31  34
ENDBRANCH  10  30
TORSDOF 8
ENDMDL
MODEL 6
REMARK VINA RESULT:      -8.7      5.867      8.879
REMARK  8 active torsions:
REMARK  status: ('A' for Active; 'I' for Inactive)
REMARK    1  A    between atoms: C_8  and  N_9 
REMARK    2  A    between atoms: N_9  and  C_10 
REMARK    3  A    between atoms: N_14  and  C_15 
REMARK    4  A    between atoms: C_15  and  C_16 
REMARK    5  A    between atoms: C_28  and  N_29 
REMARK       I    between atoms: N_29  and  C_30 
REMARK    6  A    between atoms: C_30  and  O_31 
REMARK    7  A    between atoms: O_31  and  C_32 
REMARK    8  A    between atoms: C_32  and  C_33 
ROOT
HETATM    1  C   UNL     1     -44.813  56.609 -54.582  1.00  0.00     0.053 C 
HETATM    2  C   UNL     1     -43.532  55.857 -54.689  1.00  0.00    -0.002 A 
HETATM    3  C   UNL     1     -42.740  55.383 -53.643  1.00  0.00     0.106 A 
HETATM    4  N   UNL     1     -41.661  54.744 -54.182  1.00  0.00    -0.238 N 
HETATM    5  N   UNL     1     -40.671  54.170 -53.489  1.00  0.00    -0.161 NA
HETATM    6  C   UNL     1     -40.826  54.244 -52.206  1.00  0.00     0.257 A 
HETATM    7  N   UNL     1     -41.874  54.817 -51.540  1.00  0.00    -0.226 NA
HETATM    8  C   UNL     1     -42.844  55.381 -52.202  1.00  0.00     0.138 A 
HETATM    9  C   UNL     1     -41.756  54.749 -55.544  1.00  0.00     0.149 A 
HETATM   10  C   UNL     1     -42.905  55.411 -55.900  1.00  0.00     0.062 A 
ENDROOT
BRANCH   8  11
HETATM   11  N   UNL     1     -43.921  55.941 -51.532  1.00  0.00    -0.242 NA
HETATM   12  H   UNL     1     -44.148  55.473 -50.668  1.00  0.00     0.135 HD
BRANCH  11  13
HETATM   13  C   UNL     1     -44.009  57.352 -51.349  1.00  0.00     0.015 A 
HETATM   14  C   UNL     1     -42.870  58.165 -51.249  1.00  0.00     0.039 A 
HETATM   15  C   UNL     1     -43.010  59.530 -50.936  1.00  0.00     0.013 A 
HETATM   16  C   UNL     1     -44.282  60.060 -50.749  1.00  0.00     0.065 A 
HETATM   17  C   UNL     1     -42.133  60.614 -50.726  1.00  0.00     0.152 A 
HETATM   18  N   UNL     1     -44.071  61.362 -50.350  1.00  0.00    -0.265 N 
HETATM   19  C   UNL     1     -45.442  59.298 -50.919  1.00  0.00     0.034 A 
HETATM   20  N   UNL     1     -42.771  61.732 -50.371  1.00  0.00    -0.183 NA
HETATM   21  C   UNL     1     -45.277  57.942 -51.230  1.00  0.00     0.026 A 
BRANCH  18  22
HETATM   22  C   UNL     1     -45.069  62.296 -49.834  1.00  0.00     0.190 C 
BRANCH  22  23
HETATM   23  C   UNL     1     -45.084  62.354 -48.320  1.00  0.00    -0.035 A 
HETATM   24  C   UNL     1     -45.087  61.184 -47.540  1.00  0.00     0.051 A 
HETATM   25  C   UNL     1     -45.126  61.270 -46.152  1.00  0.00     0.117 A 
HETATM   26  F   UNL     1     -45.167  60.148 -45.421  1.00  0.00    -0.206 F 
HETATM   27  C   UNL     1     -45.130  62.502 -45.511  1.00  0.00     0.042 A 
HETATM   28  C   UNL     1     -45.091  63.669 -46.269  1.00  0.00     0.004 A 
HETATM   29  C   UNL     1     -45.066  63.597 -47.666  1.00  0.00     0.009 A 
ENDBRANCH  22  23
ENDBRANCH  18  22
ENDBRANCH  11  13
ENDBRANCH   8  11
BRANCH  10  30
HETATM   30  N   UNL     1     -43.387  55.595 -57.184  1.00  0.00    -0.301 N 
HETATM   31  C   UNL     1     -43.148  56.684 -57.968  1.00  0.00     0.365 C 
HETATM   32  O   UNL     1     -42.539  57.708 -57.688  1.00  0.00    -0.238 OA
HETATM   33  H   UNL     1     -43.818  54.807 -57.647  1.00  0.00     0.171 HD
BRANCH  31  34
HETATM   34  O   UNL     1     -43.654  56.466 -59.210  1.00  0.00    -0.302 OA
BRANCH  34  35
HETATM   35  C   UNL     1     -44.482  57.505 -59.785  1.00  0.00     0.215 C 
BRANCH  35  36
HETATM   36  C   UNL     1     -45.984  57.154 -59.917  1.00  0.00     0.233 C 
HETATM   37  N   UNL     1     -46.632  56.918 -58.559  1.00  0.00    -0.065 N 
HETATM   38  H   UNL     1     -47.525  56.423 -58.669  1.00  0.00     0.277 HD
HETATM   39  H   UNL     1     -46.022  56.273 -58.012  1.00  0.00     0.277 HD
HETATM   40  C   UNL     1     -46.822  58.156 -57.726  1.00  0.00     0.259 C 
HETATM   41  C   UNL     1     -47.489  59.250 -58.560  1.00  0.00     0.195 C 
HETATM   42  O   UNL     1     -46.777  59.470 -59.786  1.00  0.00    -0.387 OA
HETATM   43  C   UNL     1     -46.761  58.293 -60.605  1.00  0.00     0.202 C 
ENDBRANCH  35  36
ENDBRANCH  34  35
ENDBRANCH  31  34
ENDBRANCH  10  30
TORSDOF 8
ENDMDL
MODEL 7
REMARK VINA RESULT:      -8.7      4.921      7.246
REMARK  8 active torsions:
REMARK  status: ('A' for Active; 'I' for Inactive)
REMARK    1  A    between atoms: C_8  and  N_9 
REMARK    2  A    between atoms: N_9  and  C_10 
REMARK    3  A    between atoms: N_14  and  C_15 
REMARK    4  A    between atoms: C_15  and  C_16 
REMARK    5  A    between atoms: C_28  and  N_29 
REMARK       I    between atoms: N_29  and  C_30 
REMARK    6  A    between atoms: C_30  and  O_31 
REMARK    7  A    between atoms: O_31  and  C_32 
REMARK    8  A    between atoms: C_32  and  C_33 
ROOT
HETATM    1  C   UNL     1     -41.565  59.053 -53.970  1.00  0.00     0.053 C 
HETATM    2  C   UNL     1     -42.924  59.470 -54.413  1.00  0.00    -0.002 A 
HETATM    3  C   UNL     1     -43.672  58.938 -55.464  1.00  0.00     0.106 A 
HETATM    4  N   UNL     1     -44.861  59.604 -55.519  1.00  0.00    -0.238 N 
HETATM    5  N   UNL     1     -45.836  59.381 -56.408  1.00  0.00    -0.161 NA
HETATM    6  C   UNL     1     -45.570  58.426 -57.240  1.00  0.00     0.257 A 
HETATM    7  N   UNL     1     -44.440  57.657 -57.269  1.00  0.00    -0.226 NA
HETATM    8  C   UNL     1     -43.483  57.863 -56.410  1.00  0.00     0.138 A 
HETATM    9  C   UNL     1     -44.926  60.517 -54.507  1.00  0.00     0.149 A 
HETATM   10  C   UNL     1     -43.757  60.457 -53.788  1.00  0.00     0.062 A 
ENDROOT
BRANCH   8  11
HETATM   11  N   UNL     1     -42.345  57.069 -56.420  1.00  0.00    -0.242 NA
HETATM   12  H   UNL     1     -41.498  57.580 -56.617  1.00  0.00     0.135 HD
BRANCH  11  13
HETATM   13  C   UNL     1     -42.106  56.130 -55.376  1.00  0.00     0.015 A 
HETATM   14  C   UNL     1     -43.088  55.798 -54.429  1.00  0.00     0.039 A 
HETATM   15  C   UNL     1     -42.759  54.967 -53.342  1.00  0.00     0.013 A 
HETATM   16  C   UNL     1     -41.465  54.468 -53.231  1.00  0.00     0.065 A 
HETATM   17  C   UNL     1     -43.438  54.459 -52.215  1.00  0.00     0.152 A 
HETATM   18  N   UNL     1     -41.441  53.803 -52.024  1.00  0.00    -0.265 N 
HETATM   19  C   UNL     1     -40.484  54.714 -54.197  1.00  0.00     0.034 A 
HETATM   20  N   UNL     1     -42.644  53.749 -51.410  1.00  0.00    -0.183 NA
HETATM   21  C   UNL     1     -40.835  55.544 -55.269  1.00  0.00     0.026 A 
BRANCH  18  22
HETATM   22  C   UNL     1     -40.267  53.268 -51.339  1.00  0.00     0.190 C 
BRANCH  22  23
HETATM   23  C   UNL     1     -39.982  51.827 -51.711  1.00  0.00    -0.035 A 
HETATM   24  C   UNL     1     -39.757  51.443 -53.045  1.00  0.00     0.051 A 
HETATM   25  C   UNL     1     -39.523  50.108 -53.357  1.00  0.00     0.117 A 
HETATM   26  F   UNL     1     -39.348  49.750 -54.636  1.00  0.00    -0.206 F 
HETATM   27  C   UNL     1     -39.474  49.138 -52.365  1.00  0.00     0.042 A 
HETATM   28  C   UNL     1     -39.660  49.508 -51.035  1.00  0.00     0.004 A 
HETATM   29  C   UNL     1     -39.909  50.846 -50.709  1.00  0.00     0.009 A 
ENDBRANCH  22  23
ENDBRANCH  18  22
ENDBRANCH  11  13
ENDBRANCH   8  11
BRANCH  10  30
HETATM   30  N   UNL     1     -43.445  61.190 -52.656  1.00  0.00    -0.301 N 
HETATM   31  C   UNL     1     -43.338  60.687 -51.394  1.00  0.00     0.365 C 
HETATM   32  O   UNL     1     -43.551  59.546 -51.006  1.00  0.00    -0.238 OA
HETATM   33  H   UNL     1     -43.116  62.137 -52.781  1.00  0.00     0.171 HD
BRANCH  31  34
HETATM   34  O   UNL     1     -42.882  61.657 -50.559  1.00  0.00    -0.302 OA
BRANCH  34  35
HETATM   35  C   UNL     1     -43.855  62.331 -49.726  1.00  0.00     0.215 C 
BRANCH  35  36
HETATM   36  C   UNL     1     -45.171  61.550 -49.484  1.00  0.00     0.233 C 
HETATM   37  N   UNL     1     -45.037  60.556 -48.339  1.00  0.00    -0.065 N 
HETATM   38  H   UNL     1     -45.795  59.865 -48.372  1.00  0.00     0.277 HD
HETATM   39  H   UNL     1     -44.159  60.011 -48.478  1.00  0.00     0.277 HD
HETATM   40  C   UNL     1     -44.956  61.175 -46.971  1.00  0.00     0.259 C 
HETATM   41  C   UNL     1     -46.083  62.194 -46.791  1.00  0.00     0.195 C 
HETATM   42  O   UNL     1     -46.095  63.143 -47.867  1.00  0.00    -0.387 OA
HETATM   43  C   UNL     1     -46.326  62.505 -49.130  1.00  0.00     0.202 C 
ENDBRANCH  35  36
ENDBRANCH  34  35
ENDBRANCH  31  34
ENDBRANCH  10  30
TORSDOF 8
ENDMDL
MODEL 8
REMARK VINA RESULT:      -8.6      5.130     10.545
REMARK  8 active torsions:
REMARK  status: ('A' for Active; 'I' for Inactive)
REMARK    1  A    between atoms: C_8  and  N_9 
REMARK    2  A    between atoms: N_9  and  C_10 
REMARK    3  A    between atoms: N_14  and  C_15 
REMARK    4  A    between atoms: C_15  and  C_16 
REMARK    5  A    between atoms: C_28  and  N_29 
REMARK       I    between atoms: N_29  and  C_30 
REMARK    6  A    between atoms: C_30  and  O_31 
REMARK    7  A    between atoms: O_31  and  C_32 
REMARK    8  A    between atoms: C_32  and  C_33 
ROOT
HETATM    1  C   UNL     1     -40.654  58.281 -53.591  1.00  0.00     0.053 C 
HETATM    2  C   UNL     1     -41.669  59.105 -52.878  1.00  0.00    -0.002 A 
HETATM    3  C   UNL     1     -42.415  60.164 -53.397  1.00  0.00     0.106 A 
HETATM    4  N   UNL     1     -43.231  60.633 -52.409  1.00  0.00    -0.238 N 
HETATM    5  N   UNL     1     -44.084  61.657 -52.527  1.00  0.00    -0.161 NA
HETATM    6  C   UNL     1     -44.102  62.183 -53.709  1.00  0.00     0.257 A 
HETATM    7  N   UNL     1     -43.369  61.786 -54.793  1.00  0.00    -0.226 NA
HETATM    8  C   UNL     1     -42.534  60.792 -54.692  1.00  0.00     0.138 A 
HETATM    9  C   UNL     1     -43.070  59.880 -51.282  1.00  0.00     0.149 A 
HETATM   10  C   UNL     1     -42.127  58.913 -51.533  1.00  0.00     0.062 A 
ENDROOT
BRANCH   8  11
HETATM   11  N   UNL     1     -41.806  60.369 -55.795  1.00  0.00    -0.242 NA
HETATM   12  H   UNL     1     -40.828  60.216 -55.599  1.00  0.00     0.135 HD
BRANCH  11  13
HETATM   13  C   UNL     1     -42.296  59.325 -56.632  1.00  0.00     0.015 A 
HETATM   14  C   UNL     1     -41.701  59.016 -57.866  1.00  0.00     0.039 A 
HETATM   15  C   UNL     1     -42.303  58.067 -58.714  1.00  0.00     0.013 A 
HETATM   16  C   UNL     1     -43.471  57.432 -58.307  1.00  0.00     0.065 A 
HETATM   17  C   UNL     1     -42.032  57.538 -59.992  1.00  0.00     0.152 A 
HETATM   18  N   UNL     1     -43.857  56.668 -59.387  1.00  0.00    -0.265 N 
HETATM   19  C   UNL     1     -44.047  57.657 -57.053  1.00  0.00     0.034 A 
HETATM   20  N   UNL     1     -42.971  56.685 -60.408  1.00  0.00    -0.183 NA
HETATM   21  C   UNL     1     -43.431  58.606 -56.226  1.00  0.00     0.026 A 
BRANCH  18  22
HETATM   22  C   UNL     1     -45.124  55.962 -59.555  1.00  0.00     0.190 C 
BRANCH  22  23
HETATM   23  C   UNL     1     -46.160  56.790 -60.289  1.00  0.00    -0.035 A 
HETATM   24  C   UNL     1     -46.170  58.194 -60.207  1.00  0.00     0.051 A 
HETATM   25  C   UNL     1     -47.149  58.926 -60.872  1.00  0.00     0.117 A 
HETATM   26  F   UNL     1     -47.170  60.260 -60.754  1.00  0.00    -0.206 F 
HETATM   27  C   UNL     1     -48.110  58.294 -61.650  1.00  0.00     0.042 A 
HETATM   28  C   UNL     1     -48.091  56.907 -61.770  1.00  0.00     0.004 A 
HETATM   29  C   UNL     1     -47.120  56.158 -61.096  1.00  0.00     0.009 A 
ENDBRANCH  22  23
ENDBRANCH  18  22
ENDBRANCH  11  13
ENDBRANCH   8  11
BRANCH  10  30
HETATM   30  N   UNL     1     -41.711  57.921 -50.662  1.00  0.00    -0.301 N 
HETATM   31  C   UNL     1     -42.239  56.667 -50.583  1.00  0.00     0.365 C 
HETATM   32  O   UNL     1     -43.191  56.200 -51.194  1.00  0.00    -0.238 OA
HETATM   33  H   UNL     1     -40.852  58.070 -50.150  1.00  0.00     0.171 HD
BRANCH  31  34
HETATM   34  O   UNL     1     -41.498  55.919 -49.724  1.00  0.00    -0.302 OA
BRANCH  34  35
HETATM   35  C   UNL     1     -40.654  54.890 -50.293  1.00  0.00     0.215 C 
BRANCH  35  36
HETATM   36  C   UNL     1     -41.353  53.533 -50.552  1.00  0.00     0.233 C 
HETATM   37  N   UNL     1     -42.133  53.539 -51.861  1.00  0.00    -0.065 N 
HETATM   38  H   UNL     1     -42.803  52.761 -51.883  1.00  0.00     0.277 HD
HETATM   39  H   UNL     1     -42.712  54.406 -51.894  1.00  0.00     0.277 HD
HETATM   40  C   UNL     1     -41.284  53.530 -53.102  1.00  0.00     0.259 C 
HETATM   41  C   UNL     1     -40.227  52.429 -53.004  1.00  0.00     0.195 C 
HETATM   42  O   UNL     1     -39.482  52.537 -51.783  1.00  0.00    -0.387 OA
HETATM   43  C   UNL     1     -40.327  52.387 -50.635  1.00  0.00     0.202 C 
ENDBRANCH  35  36
ENDBRANCH  34  35
ENDBRANCH  31  34
ENDBRANCH  10  30
TORSDOF 8
ENDMDL
MODEL 9
REMARK VINA RESULT:      -8.6     17.589     21.819
REMARK  8 active torsions:
REMARK  status: ('A' for Active; 'I' for Inactive)
REMARK    1  A    between atoms: C_8  and  N_9 
REMARK    2  A    between atoms: N_9  and  C_10 
REMARK    3  A    between atoms: N_14  and  C_15 
REMARK    4  A    between atoms: C_15  and  C_16 
REMARK    5  A    between atoms: C_28  and  N_29 
REMARK       I    between atoms: N_29  and  C_30 
REMARK    6  A    between atoms: C_30  and  O_31 
REMARK    7  A    between atoms: O_31  and  C_32 
REMARK    8  A    between atoms: C_32  and  C_33 
ROOT
HETATM    1  C   UNL     1     -32.433  40.644 -52.345  1.00  0.00     0.053 C 
HETATM    2  C   UNL     1     -33.695  40.277 -51.645  1.00  0.00    -0.002 A 
HETATM    3  C   UNL     1     -34.999  40.574 -52.042  1.00  0.00     0.106 A 
HETATM    4  N   UNL     1     -35.854  40.046 -51.119  1.00  0.00    -0.238 N 
HETATM    5  N   UNL     1     -37.189  40.139 -51.153  1.00  0.00    -0.161 NA
HETATM    6  C   UNL     1     -37.637  40.776 -52.187  1.00  0.00     0.257 A 
HETATM    7  N   UNL     1     -36.895  41.316 -53.201  1.00  0.00    -0.226 NA
HETATM    8  C   UNL     1     -35.596  41.234 -53.180  1.00  0.00     0.138 A 
HETATM    9  C   UNL     1     -35.146  39.377 -50.163  1.00  0.00     0.149 A 
HETATM   10  C   UNL     1     -33.808  39.479 -50.459  1.00  0.00     0.062 A 
ENDROOT
BRANCH   8  11
HETATM   11  N   UNL     1     -34.840  41.758 -54.218  1.00  0.00    -0.242 NA
HETATM   12  H   UNL     1     -33.845  41.713 -54.056  1.00  0.00     0.135 HD
BRANCH  11  13
HETATM   13  C   UNL     1     -35.121  41.409 -55.570  1.00  0.00     0.015 A 
HETATM   14  C   UNL     1     -35.966  42.183 -56.381  1.00  0.00     0.039 A 
HETATM   15  C   UNL     1     -36.316  41.724 -57.665  1.00  0.00     0.013 A 
HETATM   16  C   UNL     1     -35.802  40.515 -58.122  1.00  0.00     0.065 A 
HETATM   17  C   UNL     1     -37.134  42.187 -58.717  1.00  0.00     0.152 A 
HETATM   18  N   UNL     1     -36.416  40.301 -59.337  1.00  0.00    -0.265 N 
HETATM   19  C   UNL     1     -34.895  39.758 -57.372  1.00  0.00     0.034 A 
HETATM   20  N   UNL     1     -37.198  41.328 -59.737  1.00  0.00    -0.183 NA
HETATM   21  C   UNL     1     -34.562  40.235 -56.098  1.00  0.00     0.026 A 
BRANCH  18  22
HETATM   22  C   UNL     1     -36.376  39.081 -60.138  1.00  0.00     0.190 C 
BRANCH  22  23
HETATM   23  C   UNL     1     -37.759  38.546 -60.452  1.00  0.00    -0.035 A 
HETATM   24  C   UNL     1     -38.258  38.528 -61.767  1.00  0.00     0.051 A 
HETATM   25  C   UNL     1     -39.541  38.054 -62.021  1.00  0.00     0.117 A 
HETATM   26  F   UNL     1     -40.019  38.078 -63.272  1.00  0.00    -0.206 F 
HETATM   27  C   UNL     1     -40.339  37.563 -60.995  1.00  0.00     0.042 A 
HETATM   28  C   UNL     1     -39.845  37.541 -59.693  1.00  0.00     0.004 A 
HETATM   29  C   UNL     1     -38.562  38.028 -59.423  1.00  0.00     0.009 A 
ENDBRANCH  22  23
ENDBRANCH  18  22
ENDBRANCH  11  13
ENDBRANCH   8  11
BRANCH  10  30
HETATM   30  N   UNL     1     -32.762  38.902 -49.760  1.00  0.00    -0.301 N 
HETATM   31  C   UNL     1     -31.948  39.551 -48.880  1.00  0.00     0.365 C 
HETATM   32  O   UNL     1     -31.931  40.739 -48.589  1.00  0.00    -0.238 OA
HETATM   33  H   UNL     1     -32.683  37.895 -49.771  1.00  0.00     0.171 HD
BRANCH  31  34
HETATM   34  O   UNL     1     -31.128  38.650 -48.277  1.00  0.00    -0.302 OA
BRANCH  34  35
HETATM   35  C   UNL     1     -30.781  38.888 -46.892  1.00  0.00     0.215 C 
BRANCH  35  36
HETATM   36  C   UNL     1     -29.361  39.460 -46.657  1.00  0.00     0.233 C 
HETATM   37  N   UNL     1     -29.407  40.881 -46.109  1.00  0.00    -0.065 N 
HETATM   38  H   UNL     1     -28.495  41.339 -46.224  1.00  0.00     0.277 HD
HETATM   39  H   UNL     1     -30.072  41.435 -46.691  1.00  0.00     0.277 HD
HETATM   40  C   UNL     1     -29.871  40.994 -44.684  1.00  0.00     0.259 C 
HETATM   41  C   UNL     1     -29.104  40.005 -43.805  1.00  0.00     0.195 C 
HETATM   42  O   UNL     1     -29.173  38.676 -44.342  1.00  0.00    -0.387 OA
HETATM   43  C   UNL     1     -28.578  38.603 -45.644  1.00  0.00     0.202 C 
ENDBRANCH  35  36
ENDBRANCH  34  35
ENDBRANCH  31  34
ENDBRANCH  10  30
TORSDOF 8
ENDMDL
MODEL 10
REMARK VINA RESULT:      -8.2      7.689      9.666
REMARK  8 active torsions:
REMARK  status: ('A' for Active; 'I' for Inactive)
REMARK    1  A    between atoms: C_8  and  N_9 
REMARK    2  A    between atoms: N_9  and  C_10 
REMARK    3  A    between atoms: N_14  and  C_15 
REMARK    4  A    between atoms: C_15  and  C_16 
REMARK    5  A    between atoms: C_28  and  N_29 
REMARK       I    between atoms: N_29  and  C_30 
REMARK    6  A    between atoms: C_30  and  O_31 
REMARK    7  A    between atoms: O_31  and  C_32 
REMARK    8  A    between atoms: C_32  and  C_33 
ROOT
HETATM    1  C   UNL     1     -47.376  62.282 -53.272  1.00  0.00     0.053 C 
HETATM    2  C   UNL     1     -47.615  62.762 -51.882  1.00  0.00    -0.002 A 
HETATM    3  C   UNL     1     -46.791  62.580 -50.771  1.00  0.00     0.106 A 
HETATM    4  N   UNL     1     -47.380  63.186 -49.701  1.00  0.00    -0.238 N 
HETATM    5  N   UNL     1     -46.891  63.211 -48.455  1.00  0.00    -0.161 NA
HETATM    6  C   UNL     1     -45.751  62.610 -48.334  1.00  0.00     0.257 A 
HETATM    7  N   UNL     1     -45.038  62.000 -49.328  1.00  0.00    -0.226 NA
HETATM    8  C   UNL     1     -45.502  61.967 -50.545  1.00  0.00     0.138 A 
HETATM    9  C   UNL     1     -48.535  63.797 -50.095  1.00  0.00     0.149 A 
HETATM   10  C   UNL     1     -48.710  63.575 -51.439  1.00  0.00     0.062 A 
ENDROOT
BRANCH   8  11
HETATM   11  N   UNL     1     -44.771  61.371 -51.561  1.00  0.00    -0.242 NA
HETATM   12  H   UNL     1     -44.073  61.978 -51.967  1.00  0.00     0.135 HD
BRANCH  11  13
HETATM   13  C   UNL     1     -44.230  60.063 -51.398  1.00  0.00     0.015 A 
HETATM   14  C   UNL     1     -42.887  59.848 -51.048  1.00  0.00     0.039 A 
HETATM   15  C   UNL     1     -42.371  58.539 -51.030  1.00  0.00     0.013 A 
HETATM   16  C   UNL     1     -43.205  57.471 -51.340  1.00  0.00     0.065 A 
HETATM   17  C   UNL     1     -41.115  57.951 -50.771  1.00  0.00     0.152 A 
HETATM   18  N   UNL     1     -42.384  56.365 -51.345  1.00  0.00    -0.265 N 
HETATM   19  C   UNL     1     -44.566  57.642 -51.615  1.00  0.00     0.034 A 
HETATM   20  N   UNL     1     -41.116  56.629 -50.959  1.00  0.00    -0.183 NA
HETATM   21  C   UNL     1     -45.058  58.954 -51.628  1.00  0.00     0.026 A 
BRANCH  18  22
HETATM   22  C   UNL     1     -42.723  55.021 -51.807  1.00  0.00     0.190 C 
BRANCH  22  23
HETATM   23  C   UNL     1     -41.844  54.560 -52.952  1.00  0.00    -0.035 A 
HETATM   24  C   UNL     1     -41.106  53.366 -52.877  1.00  0.00     0.051 A 
HETATM   25  C   UNL     1     -40.289  52.981 -53.936  1.00  0.00     0.117 A 
HETATM   26  F   UNL     1     -39.562  51.861 -53.835  1.00  0.00    -0.206 F 
HETATM   27  C   UNL     1     -40.208  53.746 -55.092  1.00  0.00     0.042 A 
HETATM   28  C   UNL     1     -40.961  54.914 -55.196  1.00  0.00     0.004 A 
HETATM   29  C   UNL     1     -41.777  55.318 -54.133  1.00  0.00     0.009 A 
ENDBRANCH  22  23
ENDBRANCH  18  22
ENDBRANCH  11  13
ENDBRANCH   8  11
BRANCH  10  30
HETATM   30  N   UNL     1     -49.737  64.063 -52.229  1.00  0.00    -0.301 N 
HETATM   31  C   UNL     1     -50.778  63.327 -52.712  1.00  0.00     0.365 C 
HETATM   32  O   UNL     1     -50.977  62.124 -52.607  1.00  0.00    -0.238 OA
HETATM   33  H   UNL     1     -49.820  65.064 -52.334  1.00  0.00     0.171 HD
BRANCH  31  34
HETATM   34  O   UNL     1     -51.667  64.153 -53.325  1.00  0.00    -0.302 OA
BRANCH  34  35
HETATM   35  C   UNL     1     -53.009  63.653 -53.532  1.00  0.00     0.215 C 
BRANCH  35  36
HETATM   36  C   UNL     1     -53.550  63.793 -54.976  1.00  0.00     0.233 C 
HETATM   37  N   UNL     1     -52.468  63.522 -56.014  1.00  0.00    -0.065 N 
HETATM   38  H   UNL     1     -52.752  63.885 -56.931  1.00  0.00     0.277 HD
HETATM   39  H   UNL     1     -51.618  64.065 -55.751  1.00  0.00     0.277 HD
HETATM   40  C   UNL     1     -52.051  62.082 -56.131  1.00  0.00     0.259 C 
HETATM   41  C   UNL     1     -53.286  61.189 -56.260  1.00  0.00     0.195 C 
HETATM   42  O   UNL     1     -54.221  61.447 -55.203  1.00  0.00    -0.387 OA
HETATM   43  C   UNL     1     -54.697  62.799 -55.238  1.00  0.00     0.202 C 
ENDBRANCH  35  36
ENDBRANCH  34  35
ENDBRANCH  31  34
ENDBRANCH  10  30
TORSDOF 8
ENDMDL
