MODEL 1
REMARK VINA RESULT:      -7.6      0.000      0.000
REMARK  6 active torsions:
REMARK  status: ('A' for Active; 'I' for Inactive)
REMARK    1  A    between atoms: N_4  and  C_5 
REMARK    2  A    between atoms: C_5  and  C_6 
REMARK    3  A    between atoms: C_6  and  C_7 
REMARK    4  A    between atoms: C_7  and  N_8 
REMARK       I    between atoms: N_8  and  C_9 
REMARK       I    between atoms: C_9  and  N_10 
REMARK    5  A    between atoms: N_10  and  C_11 
REMARK    6  A    between atoms: C_12  and  O_13 
ROOT
HETATM    1  N   UNL     1     -43.717  55.016 -54.680  1.00  0.00    -0.343 N 
HETATM    2  C   UNL     1     -43.017  55.373 -55.812  1.00  0.00     0.320 C 
HETATM    3  N   UNL     1     -43.753  56.255 -56.579  1.00  0.00    -0.306 N 
HETATM    4  O   UNL     1     -41.927  54.898 -56.103  1.00  0.00    -0.247 OA
HETATM    5  H   UNL     1     -44.308  55.742 -54.288  1.00  0.00     0.164 HD
HETATM    6  H   UNL     1     -44.726  55.991 -56.626  1.00  0.00     0.171 HD
ENDROOT
BRANCH   1   7
HETATM    7  C   UNL     1     -43.186  54.052 -53.740  1.00  0.00     0.126 C 
BRANCH   7   8
HETATM    8  C   UNL     1     -42.316  54.657 -52.636  1.00  0.00     0.041 C 
BRANCH   8   9
HETATM    9  C   UNL     1     -40.814  54.504 -52.855  1.00  0.00     0.152 C 
BRANCH   9  10
HETATM   10  N   UNL     1     -40.350  53.135 -52.708  1.00  0.00    -0.272 N 
HETATM   11  N   UNL     1     -40.161  52.392 -53.819  1.00  0.00    -0.176 NA
HETATM   12  C   UNL     1     -39.785  51.195 -53.348  1.00  0.00     0.074 A 
HETATM   13  C   UNL     1     -39.509  50.074 -54.279  1.00  0.00     0.074 C 
HETATM   14  C   UNL     1     -39.711  51.194 -51.937  1.00  0.00     0.083 A 
HETATM   15  C   UNL     1     -40.074  52.464 -51.543  1.00  0.00     0.050 A 
HETATM   16 CL   UNL     1     -39.272  49.880 -50.957  1.00  0.00    -0.080 Cl
HETATM   17  C   UNL     1     -40.194  53.069 -50.194  1.00  0.00     0.072 C 
ENDBRANCH   9  10
ENDBRANCH   8   9
ENDBRANCH   7   8
ENDBRANCH   1   7
BRANCH   3  18
HETATM   18  C   UNL     1     -43.205  56.913 -57.706  1.00  0.00     0.071 A 
HETATM   19  C   UNL     1     -43.243  56.352 -59.001  1.00  0.00     0.095 A 
HETATM   20  C   UNL     1     -42.717  57.081 -60.075  1.00  0.00     0.041 A 
HETATM   21  C   UNL     1     -42.139  58.335 -59.863  1.00  0.00     0.026 A 
HETATM   22  C   UNL     1     -42.063  58.856 -58.574  1.00  0.00     0.036 A 
HETATM   23 CL   UNL     1     -41.332  60.393 -58.318  1.00  0.00    -0.084 Cl
HETATM   24  C   UNL     1     -42.579  58.146 -57.493  1.00  0.00     0.056 A 
BRANCH  19  25
HETATM   25  O   UNL     1     -43.715  55.068 -59.105  1.00  0.00    -0.354 OA
HETATM   26  C   UNL     1     -44.592  54.774 -60.182  1.00  0.00     0.210 C 
ENDBRANCH  19  25
ENDBRANCH   3  18
TORSDOF 6
ENDMDL
MODEL 2
REMARK VINA RESULT:      -7.4      3.222      4.471
REMARK  6 active torsions:
REMARK  status: ('A' for Active; 'I' for Inactive)
REMARK    1  A    between atoms: N_4  and  C_5 
REMARK    2  A    between atoms: C_5  and  C_6 
REMARK    3  A    between atoms: C_6  and  C_7 
REMARK    4  A    between atoms: C_7  and  N_8 
REMARK       I    between atoms: N_8  and  C_9 
REMARK       I    between atoms: C_9  and  N_10 
REMARK    5  A    between atoms: N_10  and  C_11 
REMARK    6  A    between atoms: C_12  and  O_13 
ROOT
HETATM    1  N   UNL     1     -42.240  55.166 -50.227  1.00  0.00    -0.343 N 
HETATM    2  C   UNL     1     -42.416  56.216 -51.101  1.00  0.00     0.320 C 
HETATM    3  N   UNL     1     -43.472  55.964 -51.956  1.00  0.00    -0.306 N 
HETATM    4  O   UNL     1     -41.676  57.191 -51.136  1.00  0.00    -0.247 OA
HETATM    5  H   UNL     1     -43.090  54.690 -49.943  1.00  0.00     0.164 HD
HETATM    6  H   UNL     1     -43.474  55.007 -52.278  1.00  0.00     0.171 HD
ENDROOT
BRANCH   1   7
HETATM    7  C   UNL     1     -41.157  55.161 -49.266  1.00  0.00     0.126 C 
BRANCH   7   8
HETATM    8  C   UNL     1     -40.016  54.199 -49.603  1.00  0.00     0.041 C 
BRANCH   8   9
HETATM    9  C   UNL     1     -40.458  52.772 -49.912  1.00  0.00     0.152 C 
BRANCH   9  10
HETATM   10  N   UNL     1     -40.213  52.381 -51.289  1.00  0.00    -0.272 N 
HETATM   11  N   UNL     1     -40.396  53.295 -52.265  1.00  0.00    -0.176 NA
HETATM   12  C   UNL     1     -40.137  52.621 -53.393  1.00  0.00     0.074 A 
HETATM   13  C   UNL     1     -40.262  53.287 -54.712  1.00  0.00     0.074 C 
HETATM   14  C   UNL     1     -39.764  51.285 -53.124  1.00  0.00     0.083 A 
HETATM   15  C   UNL     1     -39.812  51.152 -51.753  1.00  0.00     0.050 A 
HETATM   16 CL   UNL     1     -39.356  50.107 -54.274  1.00  0.00    -0.080 Cl
HETATM   17  C   UNL     1     -39.537  49.989 -50.876  1.00  0.00     0.072 C 
ENDBRANCH   9  10
ENDBRANCH   8   9
ENDBRANCH   7   8
ENDBRANCH   1   7
BRANCH   3  18
HETATM   18  C   UNL     1     -43.979  56.946 -52.839  1.00  0.00     0.071 A 
HETATM   19  C   UNL     1     -43.810  56.864 -54.238  1.00  0.00     0.095 A 
HETATM   20  C   UNL     1     -44.376  57.853 -55.053  1.00  0.00     0.041 A 
HETATM   21  C   UNL     1     -45.076  58.921 -54.485  1.00  0.00     0.026 A 
HETATM   22  C   UNL     1     -45.193  59.018 -53.102  1.00  0.00     0.036 A 
HETATM   23 CL   UNL     1     -46.040  60.347 -52.409  1.00  0.00    -0.084 Cl
HETATM   24  C   UNL     1     -44.637  58.045 -52.275  1.00  0.00     0.056 A 
BRANCH  19  25
HETATM   25  O   UNL     1     -43.008  55.854 -54.705  1.00  0.00    -0.354 OA
HETATM   26  C   UNL     1     -42.363  56.051 -55.955  1.00  0.00     0.210 C 
ENDBRANCH  19  25
ENDBRANCH   3  18
TORSDOF 6
ENDMDL
MODEL 3
REMARK VINA RESULT:      -7.4      3.254      4.372
REMARK  6 active torsions:
REMARK  status: ('A' for Active; 'I' for Inactive)
REMARK    1  A    between atoms: N_4  and  C_5 
REMARK    2  A    between atoms: C_5  and  C_6 
REMARK    3  A    between atoms: C_6  and  C_7 
REMARK    4  A    between atoms: C_7  and  N_8 
REMARK       I    between atoms: N_8  and  C_9 
REMARK       I    between atoms: C_9  and  N_10 
REMARK    5  A    between atoms: N_10  and  C_11 
REMARK    6  A    between atoms: C_12  and  O_13 
ROOT
HETATM    1  N   UNL     1     -40.920  56.057 -50.874  1.00  0.00    -0.343 N 
HETATM    2  C   UNL     1     -41.722  56.604 -51.852  1.00  0.00     0.320 C 
HETATM    3  N   UNL     1     -40.954  57.236 -52.811  1.00  0.00    -0.306 N 
HETATM    4  O   UNL     1     -42.945  56.577 -51.808  1.00  0.00    -0.247 OA
HETATM    5  H   UNL     1     -40.023  55.708 -51.193  1.00  0.00     0.164 HD
HETATM    6  H   UNL     1     -40.197  57.761 -52.399  1.00  0.00     0.171 HD
ENDROOT
BRANCH   1   7
HETATM    7  C   UNL     1     -41.489  55.389 -49.722  1.00  0.00     0.126 C 
BRANCH   7   8
HETATM    8  C   UNL     1     -41.582  53.867 -49.854  1.00  0.00     0.041 C 
BRANCH   8   9
HETATM    9  C   UNL     1     -40.251  53.169 -50.111  1.00  0.00     0.152 C 
BRANCH   9  10
HETATM   10  N   UNL     1     -40.112  52.681 -51.471  1.00  0.00    -0.272 N 
HETATM   11  N   UNL     1     -40.287  53.547 -52.492  1.00  0.00    -0.176 NA
HETATM   12  C   UNL     1     -40.140  52.790 -53.588  1.00  0.00     0.074 A 
HETATM   13  C   UNL     1     -40.293  53.385 -54.938  1.00  0.00     0.074 C 
HETATM   14  C   UNL     1     -39.846  51.449 -53.255  1.00  0.00     0.083 A 
HETATM   15  C   UNL     1     -39.825  51.401 -51.878  1.00  0.00     0.050 A 
HETATM   16 CL   UNL     1     -39.587  50.178 -54.350  1.00  0.00    -0.080 Cl
HETATM   17  C   UNL     1     -39.581  50.274 -50.945  1.00  0.00     0.072 C 
ENDBRANCH   9  10
ENDBRANCH   8   9
ENDBRANCH   7   8
ENDBRANCH   1   7
BRANCH   3  18
HETATM   18  C   UNL     1     -41.508  57.733 -54.014  1.00  0.00     0.071 A 
HETATM   19  C   UNL     1     -41.666  59.115 -54.259  1.00  0.00     0.095 A 
HETATM   20  C   UNL     1     -42.185  59.534 -55.490  1.00  0.00     0.041 A 
HETATM   21  C   UNL     1     -42.566  58.595 -56.453  1.00  0.00     0.026 A 
HETATM   22  C   UNL     1     -42.452  57.236 -56.181  1.00  0.00     0.036 A 
HETATM   23 CL   UNL     1     -42.942  56.086 -57.365  1.00  0.00    -0.084 Cl
HETATM   24  C   UNL     1     -41.940  56.799 -54.962  1.00  0.00     0.056 A 
BRANCH  19  25
HETATM   25  O   UNL     1     -41.384  59.963 -53.218  1.00  0.00    -0.354 OA
HETATM   26  C   UNL     1     -42.478  60.484 -52.478  1.00  0.00     0.210 C 
ENDBRANCH  19  25
ENDBRANCH   3  18
TORSDOF 6
ENDMDL
MODEL 4
REMARK VINA RESULT:      -7.3      3.008      7.313
REMARK  6 active torsions:
REMARK  status: ('A' for Active; 'I' for Inactive)
REMARK    1  A    between atoms: N_4  and  C_5 
REMARK    2  A    between atoms: C_5  and  C_6 
REMARK    3  A    between atoms: C_6  and  C_7 
REMARK    4  A    between atoms: C_7  and  N_8 
REMARK       I    between atoms: N_8  and  C_9 
REMARK       I    between atoms: C_9  and  N_10 
REMARK    5  A    between atoms: N_10  and  C_11 
REMARK    6  A    between atoms: C_12  and  O_13 
ROOT
HETATM    1  N   UNL     1     -43.324  55.572 -55.474  1.00  0.00    -0.343 N 
HETATM    2  C   UNL     1     -42.167  55.074 -54.915  1.00  0.00     0.320 C 
HETATM    3  N   UNL     1     -42.454  54.036 -54.050  1.00  0.00    -0.306 N 
HETATM    4  O   UNL     1     -41.061  55.556 -55.123  1.00  0.00    -0.247 OA
HETATM    5  H   UNL     1     -44.054  54.888 -55.642  1.00  0.00     0.164 HD
HETATM    6  H   UNL     1     -43.268  54.232 -53.485  1.00  0.00     0.171 HD
ENDROOT
BRANCH   1   7
HETATM    7  C   UNL     1     -43.297  56.706 -56.373  1.00  0.00     0.126 C 
BRANCH   7   8
HETATM    8  C   UNL     1     -44.461  57.683 -56.195  1.00  0.00     0.041 C 
BRANCH   8   9
HETATM    9  C   UNL     1     -44.178  58.841 -55.243  1.00  0.00     0.152 C 
BRANCH   9  10
HETATM   10  N   UNL     1     -43.715  58.409 -53.936  1.00  0.00    -0.272 N 
HETATM   11  N   UNL     1     -44.543  57.669 -53.167  1.00  0.00    -0.176 NA
HETATM   12  C   UNL     1     -43.852  57.479 -52.036  1.00  0.00     0.074 A 
HETATM   13  C   UNL     1     -44.448  56.721 -50.909  1.00  0.00     0.074 C 
HETATM   14  C   UNL     1     -42.574  58.079 -52.103  1.00  0.00     0.083 A 
HETATM   15  C   UNL     1     -42.503  58.670 -53.346  1.00  0.00     0.050 A 
HETATM   16 CL   UNL     1     -41.395  58.065 -50.883  1.00  0.00    -0.080 Cl
HETATM   17  C   UNL     1     -41.423  59.453 -53.993  1.00  0.00     0.072 C 
ENDBRANCH   9  10
ENDBRANCH   8   9
ENDBRANCH   7   8
ENDBRANCH   1   7
BRANCH   3  18
HETATM   18  C   UNL     1     -41.442  53.234 -53.472  1.00  0.00     0.071 A 
HETATM   19  C   UNL     1     -40.900  53.503 -52.196  1.00  0.00     0.095 A 
HETATM   20  C   UNL     1     -39.930  52.641 -51.671  1.00  0.00     0.041 A 
HETATM   21  C   UNL     1     -39.485  51.542 -52.413  1.00  0.00     0.026 A 
HETATM   22  C   UNL     1     -39.991  51.316 -53.689  1.00  0.00     0.036 A 
HETATM   23 CL   UNL     1     -39.424  49.972 -54.604  1.00  0.00    -0.084 Cl
HETATM   24  C   UNL     1     -40.955  52.163 -54.229  1.00  0.00     0.056 A 
BRANCH  19  25
HETATM   25  O   UNL     1     -41.300  54.666 -51.588  1.00  0.00    -0.354 OA
HETATM   26  C   UNL     1     -41.644  54.605 -50.212  1.00  0.00     0.210 C 
ENDBRANCH  19  25
ENDBRANCH   3  18
TORSDOF 6
ENDMDL
MODEL 5
REMARK VINA RESULT:      -7.3      2.723      8.710
REMARK  6 active torsions:
REMARK  status: ('A' for Active; 'I' for Inactive)
REMARK    1  A    between atoms: N_4  and  C_5 
REMARK    2  A    between atoms: C_5  and  C_6 
REMARK    3  A    between atoms: C_6  and  C_7 
REMARK    4  A    between atoms: C_7  and  N_8 
REMARK       I    between atoms: N_8  and  C_9 
REMARK       I    between atoms: C_9  and  N_10 
REMARK    5  A    between atoms: N_10  and  C_11 
REMARK    6  A    between atoms: C_12  and  O_13 
ROOT
HETATM    1  N   UNL     1     -42.562  56.214 -55.029  1.00  0.00    -0.343 N 
HETATM    2  C   UNL     1     -41.533  55.517 -54.434  1.00  0.00     0.320 C 
HETATM    3  N   UNL     1     -42.009  54.367 -53.835  1.00  0.00    -0.306 N 
HETATM    4  O   UNL     1     -40.379  55.926 -54.398  1.00  0.00    -0.247 OA
HETATM    5  H   UNL     1     -43.303  55.643 -55.421  1.00  0.00     0.164 HD
HETATM    6  H   UNL     1     -42.881  54.528 -53.352  1.00  0.00     0.171 HD
ENDROOT
BRANCH   1   7
HETATM    7  C   UNL     1     -42.332  57.489 -55.675  1.00  0.00     0.126 C 
BRANCH   7   8
HETATM    8  C   UNL     1     -42.402  57.447 -57.202  1.00  0.00     0.041 C 
BRANCH   8   9
HETATM    9  C   UNL     1     -43.154  56.249 -57.771  1.00  0.00     0.152 C 
BRANCH   9  10
HETATM   10  N   UNL     1     -44.374  56.615 -58.468  1.00  0.00    -0.272 N 
HETATM   11  N   UNL     1     -45.040  57.721 -58.072  1.00  0.00    -0.176 NA
HETATM   12  C   UNL     1     -46.118  57.752 -58.867  1.00  0.00     0.074 A 
HETATM   13  C   UNL     1     -47.132  58.825 -58.716  1.00  0.00     0.074 C 
HETATM   14  C   UNL     1     -46.117  56.677 -59.784  1.00  0.00     0.083 A 
HETATM   15  C   UNL     1     -44.974  55.957 -59.513  1.00  0.00     0.050 A 
HETATM   16 CL   UNL     1     -47.299  56.360 -60.959  1.00  0.00    -0.080 Cl
HETATM   17  C   UNL     1     -44.429  54.724 -60.132  1.00  0.00     0.072 C 
ENDBRANCH   9  10
ENDBRANCH   8   9
ENDBRANCH   7   8
ENDBRANCH   1   7
BRANCH   3  18
HETATM   18  C   UNL     1     -41.146  53.382 -53.301  1.00  0.00     0.071 A 
HETATM   19  C   UNL     1     -40.630  53.459 -51.988  1.00  0.00     0.095 A 
HETATM   20  C   UNL     1     -39.814  52.425 -51.514  1.00  0.00     0.041 A 
HETATM   21  C   UNL     1     -39.492  51.343 -52.339  1.00  0.00     0.026 A 
HETATM   22  C   UNL     1     -39.965  51.303 -53.647  1.00  0.00     0.036 A 
HETATM   23 CL   UNL     1     -39.549  49.977 -54.662  1.00  0.00    -0.084 Cl
HETATM   24  C   UNL     1     -40.778  52.322 -54.137  1.00  0.00     0.056 A 
BRANCH  19  25
HETATM   25  O   UNL     1     -40.893  54.610 -51.289  1.00  0.00    -0.354 OA
HETATM   26  C   UNL     1     -41.516  54.481 -50.019  1.00  0.00     0.210 C 
ENDBRANCH  19  25
ENDBRANCH   3  18
TORSDOF 6
ENDMDL
MODEL 6
REMARK VINA RESULT:      -7.2      2.129      8.576
REMARK  6 active torsions:
REMARK  status: ('A' for Active; 'I' for Inactive)
REMARK    1  A    between atoms: N_4  and  C_5 
REMARK    2  A    between atoms: C_5  and  C_6 
REMARK    3  A    between atoms: C_6  and  C_7 
REMARK    4  A    between atoms: C_7  and  N_8 
REMARK       I    between atoms: N_8  and  C_9 
REMARK       I    between atoms: C_9  and  N_10 
REMARK    5  A    between atoms: N_10  and  C_11 
REMARK    6  A    between atoms: C_12  and  O_13 
ROOT
HETATM    1  N   UNL     1     -42.413  56.302 -53.962  1.00  0.00    -0.343 N 
HETATM    2  C   UNL     1     -42.256  54.989 -53.574  1.00  0.00     0.320 C 
HETATM    3  N   UNL     1     -40.918  54.647 -53.549  1.00  0.00    -0.306 N 
HETATM    4  O   UNL     1     -43.198  54.237 -53.357  1.00  0.00    -0.247 OA
HETATM    5  H   UNL     1     -41.678  56.934 -53.663  1.00  0.00     0.164 HD
HETATM    6  H   UNL     1     -40.420  55.022 -54.343  1.00  0.00     0.171 HD
ENDROOT
BRANCH   1   7
HETATM    7  C   UNL     1     -43.727  56.886 -54.124  1.00  0.00     0.126 C 
BRANCH   7   8
HETATM    8  C   UNL     1     -44.095  57.230 -55.569  1.00  0.00     0.041 C 
BRANCH   8   9
HETATM    9  C   UNL     1     -43.176  56.617 -56.621  1.00  0.00     0.152 C 
BRANCH   9  10
HETATM   10  N   UNL     1     -42.677  57.585 -57.581  1.00  0.00    -0.272 N 
HETATM   11  N   UNL     1     -42.283  58.797 -57.134  1.00  0.00    -0.176 NA
HETATM   12  C   UNL     1     -41.929  59.453 -58.248  1.00  0.00     0.074 A 
HETATM   13  C   UNL     1     -41.459  60.858 -58.175  1.00  0.00     0.074 C 
HETATM   14  C   UNL     1     -42.076  58.642 -59.396  1.00  0.00     0.083 A 
HETATM   15  C   UNL     1     -42.554  57.433 -58.940  1.00  0.00     0.050 A 
HETATM   16 CL   UNL     1     -41.734  59.096 -60.994  1.00  0.00    -0.080 Cl
HETATM   17  C   UNL     1     -42.912  56.190 -59.666  1.00  0.00     0.072 C 
ENDBRANCH   9  10
ENDBRANCH   8   9
ENDBRANCH   7   8
ENDBRANCH   1   7
BRANCH   3  18
HETATM   18  C   UNL     1     -40.463  53.416 -53.022  1.00  0.00     0.071 A 
HETATM   19  C   UNL     1     -40.267  53.212 -51.638  1.00  0.00     0.095 A 
HETATM   20  C   UNL     1     -39.854  51.952 -51.186  1.00  0.00     0.041 A 
HETATM   21  C   UNL     1     -39.614  50.919 -52.096  1.00  0.00     0.026 A 
HETATM   22  C   UNL     1     -39.763  51.146 -53.461  1.00  0.00     0.036 A 
HETATM   23 CL   UNL     1     -39.447  49.873 -54.576  1.00  0.00    -0.084 Cl
HETATM   24  C   UNL     1     -40.171  52.392 -53.930  1.00  0.00     0.056 A 
BRANCH  19  25
HETATM   25  O   UNL     1     -40.405  54.310 -50.827  1.00  0.00    -0.354 OA
HETATM   26  C   UNL     1     -39.659  54.332 -49.618  1.00  0.00     0.210 C 
ENDBRANCH  19  25
ENDBRANCH   3  18
TORSDOF 6
ENDMDL
MODEL 7
REMARK VINA RESULT:      -7.2      2.951      7.154
REMARK  6 active torsions:
REMARK  status: ('A' for Active; 'I' for Inactive)
REMARK    1  A    between atoms: N_4  and  C_5 
REMARK    2  A    between atoms: C_5  and  C_6 
REMARK    3  A    between atoms: C_6  and  C_7 
REMARK    4  A    between atoms: C_7  and  N_8 
REMARK       I    between atoms: N_8  and  C_9 
REMARK       I    between atoms: C_9  and  N_10 
REMARK    5  A    between atoms: N_10  and  C_11 
REMARK    6  A    between atoms: C_12  and  O_13 
ROOT
HETATM    1  N   UNL     1     -41.683  55.414 -56.278  1.00  0.00    -0.343 N 
HETATM    2  C   UNL     1     -41.830  54.629 -55.155  1.00  0.00     0.320 C 
HETATM    3  N   UNL     1     -40.602  54.373 -54.578  1.00  0.00    -0.306 N 
HETATM    4  O   UNL     1     -42.909  54.179 -54.789  1.00  0.00    -0.247 OA
HETATM    5  H   UNL     1     -40.930  56.092 -56.238  1.00  0.00     0.164 HD
HETATM    6  H   UNL     1     -39.896  54.169 -55.271  1.00  0.00     0.171 HD
ENDROOT
BRANCH   1   7
HETATM    7  C   UNL     1     -42.820  55.774 -57.098  1.00  0.00     0.126 C 
BRANCH   7   8
HETATM    8  C   UNL     1     -42.816  57.224 -57.586  1.00  0.00     0.041 C 
BRANCH   8   9
HETATM    9  C   UNL     1     -43.496  58.213 -56.644  1.00  0.00     0.152 C 
BRANCH   9  10
HETATM   10  N   UNL     1     -42.992  58.149 -55.284  1.00  0.00    -0.272 N 
HETATM   11  N   UNL     1     -41.738  58.584 -55.036  1.00  0.00    -0.176 NA
HETATM   12  C   UNL     1     -41.567  58.353 -53.728  1.00  0.00     0.074 A 
HETATM   13  C   UNL     1     -40.278  58.675 -53.070  1.00  0.00     0.074 C 
HETATM   14  C   UNL     1     -42.728  57.795 -53.145  1.00  0.00     0.083 A 
HETATM   15  C   UNL     1     -43.642  57.679 -54.170  1.00  0.00     0.050 A 
HETATM   16 CL   UNL     1     -42.921  57.360 -51.516  1.00  0.00    -0.080 Cl
HETATM   17  C   UNL     1     -45.030  57.157 -54.183  1.00  0.00     0.072 C 
ENDBRANCH   9  10
ENDBRANCH   8   9
ENDBRANCH   7   8
ENDBRANCH   1   7
BRANCH   3  18
HETATM   18  C   UNL     1     -40.477  53.737 -53.320  1.00  0.00     0.071 A 
HETATM   19  C   UNL     1     -40.118  52.377 -53.193  1.00  0.00     0.095 A 
HETATM   20  C   UNL     1     -39.974  51.826 -51.914  1.00  0.00     0.041 A 
HETATM   21  C   UNL     1     -40.208  52.606 -50.778  1.00  0.00     0.026 A 
HETATM   22  C   UNL     1     -40.610  53.931 -50.917  1.00  0.00     0.036 A 
HETATM   23 CL   UNL     1     -40.915  54.880 -49.513  1.00  0.00    -0.084 Cl
HETATM   24  C   UNL     1     -40.760  54.497 -52.180  1.00  0.00     0.056 A 
BRANCH  19  25
HETATM   25  O   UNL     1     -40.027  51.651 -54.354  1.00  0.00    -0.354 OA
HETATM   26  C   UNL     1     -40.037  50.235 -54.248  1.00  0.00     0.210 C 
ENDBRANCH  19  25
ENDBRANCH   3  18
TORSDOF 6
ENDMDL
MODEL 8
REMARK VINA RESULT:      -7.2      2.580      8.169
REMARK  6 active torsions:
REMARK  status: ('A' for Active; 'I' for Inactive)
REMARK    1  A    between atoms: N_4  and  C_5 
REMARK    2  A    between atoms: C_5  and  C_6 
REMARK    3  A    between atoms: C_6  and  C_7 
REMARK    4  A    between atoms: C_7  and  N_8 
REMARK       I    between atoms: N_8  and  C_9 
REMARK       I    between atoms: C_9  and  N_10 
REMARK    5  A    between atoms: N_10  and  C_11 
REMARK    6  A    between atoms: C_12  and  O_13 
ROOT
HETATM    1  N   UNL     1     -42.541  56.346 -52.934  1.00  0.00    -0.343 N 
HETATM    2  C   UNL     1     -42.334  54.993 -52.771  1.00  0.00     0.320 C 
HETATM    3  N   UNL     1     -40.992  54.689 -52.898  1.00  0.00    -0.306 N 
HETATM    4  O   UNL     1     -43.244  54.191 -52.610  1.00  0.00    -0.247 OA
HETATM    5  H   UNL     1     -41.796  56.943 -52.592  1.00  0.00     0.164 HD
HETATM    6  H   UNL     1     -40.562  55.198 -53.656  1.00  0.00     0.171 HD
ENDROOT
BRANCH   1   7
HETATM    7  C   UNL     1     -43.873  56.911 -52.906  1.00  0.00     0.126 C 
BRANCH   7   8
HETATM    8  C   UNL     1     -44.375  57.419 -54.260  1.00  0.00     0.041 C 
BRANCH   8   9
HETATM    9  C   UNL     1     -43.276  57.879 -55.212  1.00  0.00     0.152 C 
BRANCH   9  10
HETATM   10  N   UNL     1     -43.511  57.489 -56.591  1.00  0.00    -0.272 N 
HETATM   11  N   UNL     1     -44.077  58.383 -57.430  1.00  0.00    -0.176 NA
HETATM   12  C   UNL     1     -44.197  57.714 -58.585  1.00  0.00     0.074 A 
HETATM   13  C   UNL     1     -44.815  58.360 -59.768  1.00  0.00     0.074 C 
HETATM   14  C   UNL     1     -43.680  56.402 -58.478  1.00  0.00     0.083 A 
HETATM   15  C   UNL     1     -43.234  56.281 -57.180  1.00  0.00     0.050 A 
HETATM   16 CL   UNL     1     -43.640  55.238 -59.712  1.00  0.00    -0.080 Cl
HETATM   17  C   UNL     1     -42.603  55.142 -56.469  1.00  0.00     0.072 C 
ENDBRANCH   9  10
ENDBRANCH   8   9
ENDBRANCH   7   8
ENDBRANCH   1   7
BRANCH   3  18
HETATM   18  C   UNL     1     -40.480  53.403 -52.607  1.00  0.00     0.071 A 
HETATM   19  C   UNL     1     -40.062  53.032 -51.310  1.00  0.00     0.095 A 
HETATM   20  C   UNL     1     -39.603  51.727 -51.089  1.00  0.00     0.041 A 
HETATM   21  C   UNL     1     -39.535  50.813 -52.145  1.00  0.00     0.026 A 
HETATM   22  C   UNL     1     -39.903  51.206 -53.428  1.00  0.00     0.036 A 
HETATM   23 CL   UNL     1     -39.799  50.080 -54.726  1.00  0.00    -0.084 Cl
HETATM   24  C   UNL     1     -40.360  52.499 -53.668  1.00  0.00     0.056 A 
BRANCH  19  25
HETATM   25  O   UNL     1     -40.044  54.021 -50.360  1.00  0.00    -0.354 OA
HETATM   26  C   UNL     1     -40.700  53.762 -49.127  1.00  0.00     0.210 C 
ENDBRANCH  19  25
ENDBRANCH   3  18
TORSDOF 6
ENDMDL
MODEL 9
REMARK VINA RESULT:      -7.2      2.158      8.232
REMARK  6 active torsions:
REMARK  status: ('A' for Active; 'I' for Inactive)
REMARK    1  A    between atoms: N_4  and  C_5 
REMARK    2  A    between atoms: C_5  and  C_6 
REMARK    3  A    between atoms: C_6  and  C_7 
REMARK    4  A    between atoms: C_7  and  N_8 
REMARK       I    between atoms: N_8  and  C_9 
REMARK       I    between atoms: C_9  and  N_10 
REMARK    5  A    between atoms: N_10  and  C_11 
REMARK    6  A    between atoms: C_12  and  O_13 
ROOT
HETATM    1  N   UNL     1     -42.514  56.311 -53.699  1.00  0.00    -0.343 N 
HETATM    2  C   UNL     1     -42.328  54.998 -53.324  1.00  0.00     0.320 C 
HETATM    3  N   UNL     1     -41.002  54.637 -53.464  1.00  0.00    -0.306 N 
HETATM    4  O   UNL     1     -43.246  54.261 -52.985  1.00  0.00    -0.247 OA
HETATM    5  H   UNL     1     -41.739  56.934 -53.499  1.00  0.00     0.164 HD
HETATM    6  H   UNL     1     -40.602  55.000 -54.317  1.00  0.00     0.171 HD
ENDROOT
BRANCH   1   7
HETATM    7  C   UNL     1     -43.830  56.913 -53.700  1.00  0.00     0.126 C 
BRANCH   7   8
HETATM    8  C   UNL     1     -44.108  57.830 -54.894  1.00  0.00     0.041 C 
BRANCH   8   9
HETATM    9  C   UNL     1     -42.860  58.410 -55.551  1.00  0.00     0.152 C 
BRANCH   9  10
HETATM   10  N   UNL     1     -42.744  58.073 -56.959  1.00  0.00    -0.272 N 
HETATM   11  N   UNL     1     -43.202  56.874 -57.379  1.00  0.00    -0.176 NA
HETATM   12  C   UNL     1     -42.911  56.856 -58.686  1.00  0.00     0.074 A 
HETATM   13  C   UNL     1     -43.236  55.667 -59.512  1.00  0.00     0.074 C 
HETATM   14  C   UNL     1     -42.292  58.058 -59.096  1.00  0.00     0.083 A 
HETATM   15  C   UNL     1     -42.201  58.837 -57.963  1.00  0.00     0.050 A 
HETATM   16 CL   UNL     1     -41.772  58.433 -60.667  1.00  0.00    -0.080 Cl
HETATM   17  C   UNL     1     -41.641  60.195 -57.755  1.00  0.00     0.072 C 
ENDBRANCH   9  10
ENDBRANCH   8   9
ENDBRANCH   7   8
ENDBRANCH   1   7
BRANCH   3  18
HETATM   18  C   UNL     1     -40.502  53.402 -52.989  1.00  0.00     0.071 A 
HETATM   19  C   UNL     1     -40.206  53.180 -51.626  1.00  0.00     0.095 A 
HETATM   20  C   UNL     1     -39.753  51.918 -51.223  1.00  0.00     0.041 A 
HETATM   21  C   UNL     1     -39.572  50.899 -52.162  1.00  0.00     0.026 A 
HETATM   22  C   UNL     1     -39.820  51.144 -53.509  1.00  0.00     0.036 A 
HETATM   23 CL   UNL     1     -39.576  49.889 -54.662  1.00  0.00    -0.084 Cl
HETATM   24  C   UNL     1     -40.270  52.393 -53.930  1.00  0.00     0.056 A 
BRANCH  19  25
HETATM   25  O   UNL     1     -40.293  54.266 -50.791  1.00  0.00    -0.354 OA
HETATM   26  C   UNL     1     -41.201  54.187 -49.702  1.00  0.00     0.210 C 
ENDBRANCH  19  25
ENDBRANCH   3  18
TORSDOF 6
ENDMDL
MODEL 10
REMARK VINA RESULT:      -7.2      3.029      7.182
REMARK  6 active torsions:
REMARK  status: ('A' for Active; 'I' for Inactive)
REMARK    1  A    between atoms: N_4  and  C_5 
REMARK    2  A    between atoms: C_5  and  C_6 
REMARK    3  A    between atoms: C_6  and  C_7 
REMARK    4  A    between atoms: C_7  and  N_8 
REMARK       I    between atoms: N_8  and  C_9 
REMARK       I    between atoms: C_9  and  N_10 
REMARK    5  A    between atoms: N_10  and  C_11 
REMARK    6  A    between atoms: C_12  and  O_13 
ROOT
HETATM    1  N   UNL     1     -41.369  55.401 -55.453  1.00  0.00    -0.343 N 
HETATM    2  C   UNL     1     -41.532  54.389 -54.533  1.00  0.00     0.320 C 
HETATM    3  N   UNL     1     -40.318  54.044 -53.970  1.00  0.00    -0.306 N 
HETATM    4  O   UNL     1     -42.607  53.843 -54.320  1.00  0.00    -0.247 OA
HETATM    5  H   UNL     1     -40.641  56.073 -55.235  1.00  0.00     0.164 HD
HETATM    6  H   UNL     1     -39.580  54.013 -54.659  1.00  0.00     0.171 HD
ENDROOT
BRANCH   1   7
HETATM    7  C   UNL     1     -42.486  55.902 -56.226  1.00  0.00     0.126 C 
BRANCH   7   8
HETATM    8  C   UNL     1     -42.611  57.426 -56.244  1.00  0.00     0.041 C 
BRANCH   8   9
HETATM    9  C   UNL     1     -43.459  58.007 -55.117  1.00  0.00     0.152 C 
BRANCH   9  10
HETATM   10  N   UNL     1     -43.024  57.586 -53.797  1.00  0.00    -0.272 N 
HETATM   11  N   UNL     1     -43.763  56.671 -53.133  1.00  0.00    -0.176 NA
HETATM   12  C   UNL     1     -43.133  56.538 -51.958  1.00  0.00     0.074 A 
HETATM   13  C   UNL     1     -43.667  55.624 -50.918  1.00  0.00     0.074 C 
HETATM   14  C   UNL     1     -41.979  57.352 -51.893  1.00  0.00     0.083 A 
HETATM   15  C   UNL     1     -41.924  58.017 -53.099  1.00  0.00     0.050 A 
HETATM   16 CL   UNL     1     -40.908  57.471 -50.583  1.00  0.00    -0.080 Cl
HETATM   17  C   UNL     1     -40.954  59.011 -53.620  1.00  0.00     0.072 C 
ENDBRANCH   9  10
ENDBRANCH   8   9
ENDBRANCH   7   8
ENDBRANCH   1   7
BRANCH   3  18
HETATM   18  C   UNL     1     -40.219  53.155 -52.875  1.00  0.00     0.071 A 
HETATM   19  C   UNL     1     -39.906  51.787 -53.037  1.00  0.00     0.095 A 
HETATM   20  C   UNL     1     -39.785  50.976 -51.902  1.00  0.00     0.041 A 
HETATM   21  C   UNL     1     -39.998  51.508 -50.627  1.00  0.00     0.026 A 
HETATM   22  C   UNL     1     -40.355  52.845 -50.483  1.00  0.00     0.036 A 
HETATM   23 CL   UNL     1     -40.634  53.487 -48.911  1.00  0.00    -0.084 Cl
HETATM   24  C   UNL     1     -40.481  53.668 -51.599  1.00  0.00     0.056 A 
BRANCH  19  25
HETATM   25  O   UNL     1     -39.834  51.319 -54.325  1.00  0.00    -0.354 OA
HETATM   26  C   UNL     1     -39.758  49.913 -54.510  1.00  0.00     0.210 C 
ENDBRANCH  19  25
ENDBRANCH   3  18
TORSDOF 6
ENDMDL
