MODEL 1
REMARK VINA RESULT:      -8.6      0.000      0.000
REMARK  7 active torsions:
REMARK  status: ('A' for Active; 'I' for Inactive)
REMARK    1  A    between atoms: C_2  and  C_3 
REMARK    2  A    between atoms: C_3  and  N_4 
REMARK       I    between atoms: N_4  and  C_5 
REMARK    3  A    between atoms: C_5  and  C_6 
REMARK    4  A    between atoms: C_7  and  N_8 
REMARK    5  A    between atoms: N_9  and  N_10 
REMARK    6  A    between atoms: C_11  and  C_12 
REMARK    7  A    between atoms: C_13  and  O_14 
ROOT
HETATM    1  C   UNL     1     -43.001  56.032 -52.565  1.00  0.00     0.110 C 
HETATM    2  C   UNL     1     -43.733  56.188 -53.729  1.00  0.00     0.143 C 
HETATM    3  N   UNL     1     -43.232  55.320 -54.694  1.00  0.00    -0.197 N 
HETATM    4  C   UNL     1     -42.369  54.436 -54.062  1.00  0.00     0.183 A 
HETATM    5  C   UNL     1     -42.173  54.904 -52.765  1.00  0.00     0.125 A 
HETATM    6  N   UNL     1     -41.307  54.296 -51.913  1.00  0.00    -0.242 NA
HETATM    7  C   UNL     1     -40.733  53.181 -52.394  1.00  0.00     0.086 A 
HETATM    8  C   UNL     1     -40.968  52.704 -53.710  1.00  0.00     0.088 A 
HETATM    9  N   UNL     1     -41.771  53.336 -54.581  1.00  0.00    -0.225 NA
HETATM   10  C   UNL     1     -39.881  52.463 -51.563  1.00  0.00     0.034 A 
HETATM   11  C   UNL     1     -39.264  51.286 -51.989  1.00  0.00     0.002 A 
HETATM   12  C   UNL     1     -39.497  50.818 -53.275  1.00  0.00     0.002 A 
HETATM   13  C   UNL     1     -40.344  51.532 -54.122  1.00  0.00     0.034 A 
ENDROOT
BRANCH   3  14
HETATM   14  N   UNL     1     -43.551  55.519 -56.019  1.00  0.00    -0.176 NA
HETATM   15  C   UNL     1     -42.639  55.967 -56.815  1.00  0.00     0.153 C 
BRANCH  15  16
HETATM   16  C   UNL     1     -43.008  56.381 -58.190  1.00  0.00     0.017 A 
HETATM   17  C   UNL     1     -43.813  55.577 -59.011  1.00  0.00     0.077 A 
HETATM   18  C   UNL     1     -44.214  56.025 -60.266  1.00  0.00     0.039 A 
HETATM   19  C   UNL     1     -43.816  57.286 -60.710  1.00  0.00     0.022 A 
HETATM   20  C   UNL     1     -43.013  58.085 -59.895  1.00  0.00     0.012 A 
HETATM   21 BR   UNL     1     -42.487  59.799 -60.496  1.00  0.00    -0.051 Br
HETATM   22  C   UNL     1     -42.606  57.644 -58.634  1.00  0.00     0.034 A 
BRANCH  17  23
HETATM   23  O   UNL     1     -44.271  54.345 -58.631  1.00  0.00    -0.360 OA
HETATM   24  H   UNL     1     -44.344  53.800 -59.447  1.00  0.00     0.217 HD
ENDBRANCH  17  23
ENDBRANCH  15  16
ENDBRANCH   3  14
BRANCH   2  25
HETATM   25  N   UNL     1     -44.709  57.090 -54.025  1.00  0.00    -0.383 N 
HETATM   26  H   UNL     1     -45.684  56.810 -53.887  1.00  0.00     0.157 HD
HETATM   27  H   UNL     1     -44.589  57.703 -54.831  1.00  0.00     0.157 HD
ENDBRANCH   2  25
BRANCH   1  28
HETATM   28  C   UNL     1     -43.096  56.923 -51.428  1.00  0.00     0.258 C 
HETATM   29  N   UNL     1     -41.967  57.693 -51.237  1.00  0.00    -0.352 N 
HETATM   30  H   UNL     1     -41.203  57.552 -51.885  1.00  0.00     0.163 HD
HETATM   31  O   UNL     1     -44.141  57.083 -50.803  1.00  0.00    -0.267 OA
BRANCH  29  32
HETATM   32  C   UNL     1     -42.053  58.975 -50.551  1.00  0.00     0.080 C 
HETATM   33  C   UNL     1     -42.461  60.074 -51.541  1.00  0.00     0.032 C 
BRANCH  32  34
HETATM   34  C   UNL     1     -40.713  59.344 -49.899  1.00  0.00     0.020 C 
HETATM   35  C   UNL     1     -39.548  59.299 -50.876  1.00  0.00     0.007 C 
ENDBRANCH  32  34
ENDBRANCH  29  32
ENDBRANCH   1  28
TORSDOF 7
ENDMDL
MODEL 2
REMARK VINA RESULT:      -8.5      1.658      1.913
REMARK  7 active torsions:
REMARK  status: ('A' for Active; 'I' for Inactive)
REMARK    1  A    between atoms: C_2  and  C_3 
REMARK    2  A    between atoms: C_3  and  N_4 
REMARK       I    between atoms: N_4  and  C_5 
REMARK    3  A    between atoms: C_5  and  C_6 
REMARK    4  A    between atoms: C_7  and  N_8 
REMARK    5  A    between atoms: N_9  and  N_10 
REMARK    6  A    between atoms: C_11  and  C_12 
REMARK    7  A    between atoms: C_13  and  O_14 
ROOT
HETATM    1  C   UNL     1     -41.703  55.946 -52.117  1.00  0.00     0.110 C 
HETATM    2  C   UNL     1     -42.627  56.393 -53.046  1.00  0.00     0.143 C 
HETATM    3  N   UNL     1     -42.615  55.533 -54.140  1.00  0.00    -0.197 N 
HETATM    4  C   UNL     1     -41.885  54.406 -53.786  1.00  0.00     0.183 A 
HETATM    5  C   UNL     1     -41.269  54.678 -52.566  1.00  0.00     0.125 A 
HETATM    6  N   UNL     1     -40.413  53.794 -51.989  1.00  0.00    -0.242 NA
HETATM    7  C   UNL     1     -40.282  52.628 -52.644  1.00  0.00     0.086 A 
HETATM    8  C   UNL     1     -40.941  52.360 -53.873  1.00  0.00     0.088 A 
HETATM    9  N   UNL     1     -41.737  53.254 -54.483  1.00  0.00    -0.225 NA
HETATM   10  C   UNL     1     -39.472  51.645 -52.089  1.00  0.00     0.034 A 
HETATM   11  C   UNL     1     -39.303  50.404 -52.704  1.00  0.00     0.002 A 
HETATM   12  C   UNL     1     -39.951  50.140 -53.903  1.00  0.00     0.002 A 
HETATM   13  C   UNL     1     -40.761  51.121 -54.475  1.00  0.00     0.034 A 
ENDROOT
BRANCH   3  14
HETATM   14  N   UNL     1     -43.179  55.938 -55.329  1.00  0.00    -0.176 NA
HETATM   15  C   UNL     1     -42.491  55.816 -56.414  1.00  0.00     0.153 C 
BRANCH  15  16
HETATM   16  C   UNL     1     -42.990  56.428 -57.669  1.00  0.00     0.017 A 
HETATM   17  C   UNL     1     -42.738  57.771 -57.985  1.00  0.00     0.077 A 
HETATM   18  C   UNL     1     -43.146  58.299 -59.207  1.00  0.00     0.039 A 
HETATM   19  C   UNL     1     -43.807  57.484 -60.126  1.00  0.00     0.022 A 
HETATM   20  C   UNL     1     -44.060  56.148 -59.811  1.00  0.00     0.012 A 
HETATM   21 BR   UNL     1     -44.945  55.045 -61.067  1.00  0.00    -0.051 Br
HETATM   22  C   UNL     1     -43.654  55.611 -58.588  1.00  0.00     0.034 A 
BRANCH  17  23
HETATM   23  O   UNL     1     -42.066  58.621 -57.150  1.00  0.00    -0.360 OA
HETATM   24  H   UNL     1     -41.113  58.384 -57.206  1.00  0.00     0.217 HD
ENDBRANCH  17  23
ENDBRANCH  15  16
ENDBRANCH   3  14
BRANCH   2  25
HETATM   25  N   UNL     1     -43.375  57.529 -53.046  1.00  0.00    -0.383 N 
HETATM   26  H   UNL     1     -43.421  58.078 -52.183  1.00  0.00     0.157 HD
HETATM   27  H   UNL     1     -44.253  57.545 -53.565  1.00  0.00     0.157 HD
ENDBRANCH   2  25
BRANCH   1  28
HETATM   28  C   UNL     1     -41.288  56.712 -50.961  1.00  0.00     0.258 C 
HETATM   29  N   UNL     1     -40.837  57.979 -51.273  1.00  0.00    -0.352 N 
HETATM   30  H   UNL     1     -40.830  58.232 -52.252  1.00  0.00     0.163 HD
HETATM   31  O   UNL     1     -41.475  56.322 -49.811  1.00  0.00    -0.267 OA
BRANCH  29  32
HETATM   32  C   UNL     1     -40.906  59.051 -50.290  1.00  0.00     0.080 C 
HETATM   33  C   UNL     1     -42.057  60.005 -50.631  1.00  0.00     0.032 C 
BRANCH  32  34
HETATM   34  C   UNL     1     -39.587  59.836 -50.237  1.00  0.00     0.020 C 
HETATM   35  C   UNL     1     -38.476  59.181 -51.043  1.00  0.00     0.007 C 
ENDBRANCH  32  34
ENDBRANCH  29  32
ENDBRANCH   1  28
TORSDOF 7
ENDMDL
MODEL 3
REMARK VINA RESULT:      -8.1      3.369      7.026
REMARK  7 active torsions:
REMARK  status: ('A' for Active; 'I' for Inactive)
REMARK    1  A    between atoms: C_2  and  C_3 
REMARK    2  A    between atoms: C_3  and  N_4 
REMARK       I    between atoms: N_4  and  C_5 
REMARK    3  A    between atoms: C_5  and  C_6 
REMARK    4  A    between atoms: C_7  and  N_8 
REMARK    5  A    between atoms: N_9  and  N_10 
REMARK    6  A    between atoms: C_11  and  C_12 
REMARK    7  A    between atoms: C_13  and  O_14 
ROOT
HETATM    1  C   UNL     1     -43.415  58.499 -55.643  1.00  0.00     0.110 C 
HETATM    2  C   UNL     1     -42.315  57.884 -55.073  1.00  0.00     0.143 C 
HETATM    3  N   UNL     1     -42.128  56.646 -55.682  1.00  0.00    -0.197 N 
HETATM    4  C   UNL     1     -42.940  56.600 -56.807  1.00  0.00     0.183 A 
HETATM    5  C   UNL     1     -43.780  57.710 -56.757  1.00  0.00     0.125 A 
HETATM    6  N   UNL     1     -44.754  57.906 -57.683  1.00  0.00    -0.242 NA
HETATM    7  C   UNL     1     -44.780  56.999 -58.675  1.00  0.00     0.086 A 
HETATM    8  C   UNL     1     -43.895  55.890 -58.722  1.00  0.00     0.088 A 
HETATM    9  N   UNL     1     -42.973  55.653 -57.775  1.00  0.00    -0.225 NA
HETATM   10  C   UNL     1     -45.706  57.162 -59.697  1.00  0.00     0.034 A 
HETATM   11  C   UNL     1     -45.778  56.269 -60.768  1.00  0.00     0.002 A 
HETATM   12  C   UNL     1     -44.910  55.188 -60.817  1.00  0.00     0.002 A 
HETATM   13  C   UNL     1     -43.979  55.008 -59.793  1.00  0.00     0.034 A 
ENDROOT
BRANCH   3  14
HETATM   14  N   UNL     1     -41.328  55.704 -55.074  1.00  0.00    -0.176 NA
HETATM   15  C   UNL     1     -41.883  54.651 -54.573  1.00  0.00     0.153 C 
BRANCH  15  16
HETATM   16  C   UNL     1     -41.077  53.726 -53.740  1.00  0.00     0.017 A 
HETATM   17  C   UNL     1     -40.741  54.033 -52.412  1.00  0.00     0.077 A 
HETATM   18  C   UNL     1     -40.055  53.113 -51.626  1.00  0.00     0.039 A 
HETATM   19  C   UNL     1     -39.703  51.873 -52.160  1.00  0.00     0.022 A 
HETATM   20  C   UNL     1     -40.035  51.568 -53.481  1.00  0.00     0.012 A 
HETATM   21 BR   UNL     1     -39.566  49.882 -54.195  1.00  0.00    -0.051 Br
HETATM   22  C   UNL     1     -40.723  52.486 -54.277  1.00  0.00     0.034 A 
BRANCH  17  23
HETATM   23  O   UNL     1     -41.083  55.213 -51.810  1.00  0.00    -0.360 OA
HETATM   24  H   UNL     1     -41.673  54.990 -51.055  1.00  0.00     0.217 HD
ENDBRANCH  17  23
ENDBRANCH  15  16
ENDBRANCH   3  14
BRANCH   2  25
HETATM   25  N   UNL     1     -41.555  58.274 -54.014  1.00  0.00    -0.383 N 
HETATM   26  H   UNL     1     -40.783  57.668 -53.723  1.00  0.00     0.157 HD
HETATM   27  H   UNL     1     -42.004  58.739 -53.225  1.00  0.00     0.157 HD
ENDBRANCH   2  25
BRANCH   1  28
HETATM   28  C   UNL     1     -44.035  59.695 -55.111  1.00  0.00     0.258 C 
HETATM   29  N   UNL     1     -44.728  59.479 -53.936  1.00  0.00    -0.352 N 
HETATM   30  H   UNL     1     -44.743  58.531 -53.583  1.00  0.00     0.163 HD
HETATM   31  O   UNL     1     -43.824  60.810 -55.579  1.00  0.00    -0.267 OA
BRANCH  29  32
HETATM   32  C   UNL     1     -44.932  60.566 -52.988  1.00  0.00     0.080 C 
HETATM   33  C   UNL     1     -43.680  60.750 -52.122  1.00  0.00     0.032 C 
BRANCH  32  34
HETATM   34  C   UNL     1     -46.144  60.291 -52.087  1.00  0.00     0.020 C 
HETATM   35  C   UNL     1     -45.760  60.057 -50.634  1.00  0.00     0.007 C 
ENDBRANCH  32  34
ENDBRANCH  29  32
ENDBRANCH   1  28
TORSDOF 7
ENDMDL
MODEL 4
REMARK VINA RESULT:      -8.1      3.212      8.039
REMARK  7 active torsions:
REMARK  status: ('A' for Active; 'I' for Inactive)
REMARK    1  A    between atoms: C_2  and  C_3 
REMARK    2  A    between atoms: C_3  and  N_4 
REMARK       I    between atoms: N_4  and  C_5 
REMARK    3  A    between atoms: C_5  and  C_6 
REMARK    4  A    between atoms: C_7  and  N_8 
REMARK    5  A    between atoms: N_9  and  N_10 
REMARK    6  A    between atoms: C_11  and  C_12 
REMARK    7  A    between atoms: C_13  and  O_14 
ROOT
HETATM    1  C   UNL     1     -43.991  56.962 -55.852  1.00  0.00     0.110 C 
HETATM    2  C   UNL     1     -43.592  55.710 -55.419  1.00  0.00     0.143 C 
HETATM    3  N   UNL     1     -43.498  55.724 -54.031  1.00  0.00    -0.197 N 
HETATM    4  C   UNL     1     -44.090  56.895 -53.578  1.00  0.00     0.183 A 
HETATM    5  C   UNL     1     -44.342  57.691 -54.693  1.00  0.00     0.125 A 
HETATM    6  N   UNL     1     -44.848  58.946 -54.572  1.00  0.00    -0.242 NA
HETATM    7  C   UNL     1     -45.155  59.310 -53.315  1.00  0.00     0.086 A 
HETATM    8  C   UNL     1     -44.917  58.472 -52.194  1.00  0.00     0.088 A 
HETATM    9  N   UNL     1     -44.356  57.257 -52.299  1.00  0.00    -0.225 NA
HETATM   10  C   UNL     1     -45.736  60.556 -53.110  1.00  0.00     0.034 A 
HETATM   11  C   UNL     1     -46.097  60.993 -51.835  1.00  0.00     0.002 A 
HETATM   12  C   UNL     1     -45.869  60.172 -50.740  1.00  0.00     0.002 A 
HETATM   13  C   UNL     1     -45.280  58.922 -50.930  1.00  0.00     0.034 A 
ENDROOT
BRANCH   3  14
HETATM   14  N   UNL     1     -42.800  54.727 -53.387  1.00  0.00    -0.176 NA
HETATM   15  C   UNL     1     -41.512  54.800 -53.346  1.00  0.00     0.153 C 
BRANCH  15  16
HETATM   16  C   UNL     1     -40.730  53.645 -52.841  1.00  0.00     0.017 A 
HETATM   17  C   UNL     1     -40.287  53.580 -51.511  1.00  0.00     0.077 A 
HETATM   18  C   UNL     1     -39.628  52.449 -51.040  1.00  0.00     0.039 A 
HETATM   19  C   UNL     1     -39.410  51.369 -51.895  1.00  0.00     0.022 A 
HETATM   20  C   UNL     1     -39.849  51.434 -53.218  1.00  0.00     0.012 A 
HETATM   21 BR   UNL     1     -39.562  49.961 -54.370  1.00  0.00    -0.051 Br
HETATM   22  C   UNL     1     -40.511  52.565 -53.700  1.00  0.00     0.034 A 
BRANCH  17  23
HETATM   23  O   UNL     1     -40.495  54.584 -50.605  1.00  0.00    -0.360 OA
HETATM   24  H   UNL     1     -41.258  54.314 -50.047  1.00  0.00     0.217 HD
ENDBRANCH  17  23
ENDBRANCH  15  16
ENDBRANCH   3  14
BRANCH   2  25
HETATM   25  N   UNL     1     -43.212  54.623 -56.144  1.00  0.00    -0.383 N 
HETATM   26  H   UNL     1     -43.912  53.903 -56.338  1.00  0.00     0.157 HD
HETATM   27  H   UNL     1     -42.280  54.233 -56.002  1.00  0.00     0.157 HD
ENDBRANCH   2  25
BRANCH   1  28
HETATM   28  C   UNL     1     -43.980  57.377 -57.240  1.00  0.00     0.258 C 
HETATM   29  N   UNL     1     -45.217  57.774 -57.705  1.00  0.00    -0.352 N 
HETATM   30  H   UNL     1     -45.988  57.724 -57.052  1.00  0.00     0.163 HD
HETATM   31  O   UNL     1     -42.939  57.511 -57.878  1.00  0.00    -0.267 OA
BRANCH  29  32
HETATM   32  C   UNL     1     -45.324  58.707 -58.819  1.00  0.00     0.080 C 
HETATM   33  C   UNL     1     -45.607  60.120 -58.294  1.00  0.00     0.032 C 
BRANCH  32  34
HETATM   34  C   UNL     1     -46.439  58.285 -59.787  1.00  0.00     0.020 C 
HETATM   35  C   UNL     1     -46.781  56.807 -59.687  1.00  0.00     0.007 C 
ENDBRANCH  32  34
ENDBRANCH  29  32
ENDBRANCH   1  28
TORSDOF 7
ENDMDL
MODEL 5
REMARK VINA RESULT:      -8.0      3.237      6.842
REMARK  7 active torsions:
REMARK  status: ('A' for Active; 'I' for Inactive)
REMARK    1  A    between atoms: C_2  and  C_3 
REMARK    2  A    between atoms: C_3  and  N_4 
REMARK       I    between atoms: N_4  and  C_5 
REMARK    3  A    between atoms: C_5  and  C_6 
REMARK    4  A    between atoms: C_7  and  N_8 
REMARK    5  A    between atoms: N_9  and  N_10 
REMARK    6  A    between atoms: C_11  and  C_12 
REMARK    7  A    between atoms: C_13  and  O_14 
ROOT
HETATM    1  C   UNL     1     -44.054  57.567 -52.149  1.00  0.00     0.110 C 
HETATM    2  C   UNL     1     -43.219  56.617 -51.588  1.00  0.00     0.143 C 
HETATM    3  N   UNL     1     -42.834  55.718 -52.577  1.00  0.00    -0.197 N 
HETATM    4  C   UNL     1     -43.207  56.251 -53.803  1.00  0.00     0.183 A 
HETATM    5  C   UNL     1     -44.012  57.359 -53.546  1.00  0.00     0.125 A 
HETATM    6  N   UNL     1     -44.605  58.055 -54.550  1.00  0.00    -0.242 NA
HETATM    7  C   UNL     1     -44.287  57.640 -55.788  1.00  0.00     0.086 A 
HETATM    8  C   UNL     1     -43.441  56.526 -56.029  1.00  0.00     0.088 A 
HETATM    9  N   UNL     1     -42.903  55.792 -55.041  1.00  0.00    -0.225 NA
HETATM   10  C   UNL     1     -44.803  58.338 -56.873  1.00  0.00     0.034 A 
HETATM   11  C   UNL     1     -44.501  57.975 -58.187  1.00  0.00     0.002 A 
HETATM   12  C   UNL     1     -43.671  56.888 -58.423  1.00  0.00     0.002 A 
HETATM   13  C   UNL     1     -43.151  56.175 -57.342  1.00  0.00     0.034 A 
ENDROOT
BRANCH   3  14
HETATM   14  N   UNL     1     -42.294  54.502 -52.219  1.00  0.00    -0.176 NA
HETATM   15  C   UNL     1     -41.030  54.310 -52.394  1.00  0.00     0.153 C 
BRANCH  15  16
HETATM   16  C   UNL     1     -40.465  52.951 -52.209  1.00  0.00     0.017 A 
HETATM   17  C   UNL     1     -40.240  52.415 -50.932  1.00  0.00     0.077 A 
HETATM   18  C   UNL     1     -39.787  51.107 -50.784  1.00  0.00     0.039 A 
HETATM   19  C   UNL     1     -39.560  50.322 -51.914  1.00  0.00     0.022 A 
HETATM   20  C   UNL     1     -39.782  50.856 -53.185  1.00  0.00     0.012 A 
HETATM   21 BR   UNL     1     -39.484  49.782 -54.713  1.00  0.00    -0.051 Br
HETATM   22  C   UNL     1     -40.236  52.167 -53.342  1.00  0.00     0.034 A 
BRANCH  17  23
HETATM   23  O   UNL     1     -40.473  53.112 -49.778  1.00  0.00    -0.360 OA
HETATM   24  H   UNL     1     -39.917  52.702 -49.077  1.00  0.00     0.217 HD
ENDBRANCH  17  23
ENDBRANCH  15  16
ENDBRANCH   3  14
BRANCH   2  25
HETATM   25  N   UNL     1     -42.872  56.429 -50.285  1.00  0.00    -0.383 N 
HETATM   26  H   UNL     1     -42.607  57.249 -49.733  1.00  0.00     0.157 HD
HETATM   27  H   UNL     1     -42.340  55.597 -50.029  1.00  0.00     0.157 HD
ENDBRANCH   2  25
BRANCH   1  28
HETATM   28  C   UNL     1     -44.819  58.525 -51.377  1.00  0.00     0.258 C 
HETATM   29  N   UNL     1     -44.593  59.835 -51.747  1.00  0.00    -0.352 N 
HETATM   30  H   UNL     1     -43.925  59.991 -52.491  1.00  0.00     0.163 HD
HETATM   31  O   UNL     1     -45.695  58.184 -50.587  1.00  0.00    -0.267 OA
BRANCH  29  32
HETATM   32  C   UNL     1     -45.608  60.854 -51.516  1.00  0.00     0.080 C 
HETATM   33  C   UNL     1     -46.381  61.130 -52.811  1.00  0.00     0.032 C 
BRANCH  32  34
HETATM   34  C   UNL     1     -44.974  62.158 -51.009  1.00  0.00     0.020 C 
HETATM   35  C   UNL     1     -43.499  62.274 -51.360  1.00  0.00     0.007 C 
ENDBRANCH  32  34
ENDBRANCH  29  32
ENDBRANCH   1  28
TORSDOF 7
ENDMDL
MODEL 6
REMARK VINA RESULT:      -8.0      1.940      2.592
REMARK  7 active torsions:
REMARK  status: ('A' for Active; 'I' for Inactive)
REMARK    1  A    between atoms: C_2  and  C_3 
REMARK    2  A    between atoms: C_3  and  N_4 
REMARK       I    between atoms: N_4  and  C_5 
REMARK    3  A    between atoms: C_5  and  C_6 
REMARK    4  A    between atoms: C_7  and  N_8 
REMARK    5  A    between atoms: N_9  and  N_10 
REMARK    6  A    between atoms: C_11  and  C_12 
REMARK    7  A    between atoms: C_13  and  O_14 
ROOT
HETATM    1  C   UNL     1     -44.187  57.794 -52.219  1.00  0.00     0.110 C 
HETATM    2  C   UNL     1     -44.545  57.587 -53.539  1.00  0.00     0.143 C 
HETATM    3  N   UNL     1     -43.663  56.672 -54.105  1.00  0.00    -0.197 N 
HETATM    4  C   UNL     1     -42.922  56.106 -53.077  1.00  0.00     0.183 A 
HETATM    5  C   UNL     1     -43.194  56.833 -51.921  1.00  0.00     0.125 A 
HETATM    6  N   UNL     1     -42.555  56.574 -50.750  1.00  0.00    -0.242 NA
HETATM    7  C   UNL     1     -41.718  55.523 -50.787  1.00  0.00     0.086 A 
HETATM    8  C   UNL     1     -41.476  54.777 -51.970  1.00  0.00     0.088 A 
HETATM    9  N   UNL     1     -42.054  55.068 -53.146  1.00  0.00    -0.225 NA
HETATM   10  C   UNL     1     -41.071  55.152 -49.615  1.00  0.00     0.034 A 
HETATM   11  C   UNL     1     -40.201  54.061 -49.574  1.00  0.00     0.002 A 
HETATM   12  C   UNL     1     -39.968  53.328 -50.729  1.00  0.00     0.002 A 
HETATM   13  C   UNL     1     -40.606  53.694 -51.914  1.00  0.00     0.034 A 
ENDROOT
BRANCH   3  14
HETATM   14  N   UNL     1     -43.588  56.558 -55.476  1.00  0.00    -0.176 NA
HETATM   15  C   UNL     1     -42.635  57.169 -56.097  1.00  0.00     0.153 C 
BRANCH  15  16
HETATM   16  C   UNL     1     -42.650  57.230 -57.578  1.00  0.00     0.017 A 
HETATM   17  C   UNL     1     -43.076  56.144 -58.357  1.00  0.00     0.077 A 
HETATM   18  C   UNL     1     -43.160  56.256 -59.742  1.00  0.00     0.039 A 
HETATM   19  C   UNL     1     -42.821  57.459 -60.360  1.00  0.00     0.022 A 
HETATM   20  C   UNL     1     -42.394  58.539 -59.586  1.00  0.00     0.012 A 
HETATM   21 BR   UNL     1     -41.949  60.172 -60.429  1.00  0.00    -0.051 Br
HETATM   22  C   UNL     1     -42.308  58.436 -58.196  1.00  0.00     0.034 A 
BRANCH  17  23
HETATM   23  O   UNL     1     -43.458  54.945 -57.820  1.00  0.00    -0.360 OA
HETATM   24  H   UNL     1     -44.096  55.143 -57.098  1.00  0.00     0.217 HD
ENDBRANCH  17  23
ENDBRANCH  15  16
ENDBRANCH   3  14
BRANCH   2  25
HETATM   25  N   UNL     1     -45.496  58.210 -54.287  1.00  0.00    -0.383 N 
HETATM   26  H   UNL     1     -45.313  59.167 -54.602  1.00  0.00     0.157 HD
HETATM   27  H   UNL     1     -46.480  58.052 -54.071  1.00  0.00     0.157 HD
ENDBRANCH   2  25
BRANCH   1  28
HETATM   28  C   UNL     1     -44.742  58.843 -51.388  1.00  0.00     0.258 C 
HETATM   29  N   UNL     1     -43.783  59.645 -50.803  1.00  0.00    -0.352 N 
HETATM   30  H   UNL     1     -42.817  59.418 -50.997  1.00  0.00     0.163 HD
HETATM   31  O   UNL     1     -45.946  59.082 -51.347  1.00  0.00    -0.267 OA
BRANCH  29  32
HETATM   32  C   UNL     1     -44.100  61.014 -50.417  1.00  0.00     0.080 C 
HETATM   33  C   UNL     1     -43.053  61.976 -50.992  1.00  0.00     0.032 C 
BRANCH  32  34
HETATM   34  C   UNL     1     -44.148  61.160 -48.890  1.00  0.00     0.020 C 
HETATM   35  C   UNL     1     -45.560  61.067 -48.331  1.00  0.00     0.007 C 
ENDBRANCH  32  34
ENDBRANCH  29  32
ENDBRANCH   1  28
TORSDOF 7
ENDMDL
MODEL 7
REMARK VINA RESULT:      -7.6      3.051      8.124
REMARK  7 active torsions:
REMARK  status: ('A' for Active; 'I' for Inactive)
REMARK    1  A    between atoms: C_2  and  C_3 
REMARK    2  A    between atoms: C_3  and  N_4 
REMARK       I    between atoms: N_4  and  C_5 
REMARK    3  A    between atoms: C_5  and  C_6 
REMARK    4  A    between atoms: C_7  and  N_8 
REMARK    5  A    between atoms: N_9  and  N_10 
REMARK    6  A    between atoms: C_11  and  C_12 
REMARK    7  A    between atoms: C_13  and  O_14 
ROOT
HETATM    1  C   UNL     1     -43.212  57.058 -56.785  1.00  0.00     0.110 C 
HETATM    2  C   UNL     1     -43.132  55.880 -56.064  1.00  0.00     0.143 C 
HETATM    3  N   UNL     1     -42.781  56.181 -54.751  1.00  0.00    -0.197 N 
HETATM    4  C   UNL     1     -42.903  57.553 -54.584  1.00  0.00     0.183 A 
HETATM    5  C   UNL     1     -43.108  58.109 -55.845  1.00  0.00     0.125 A 
HETATM    6  N   UNL     1     -43.184  59.453 -56.026  1.00  0.00    -0.242 NA
HETATM    7  C   UNL     1     -43.130  60.177 -54.896  1.00  0.00     0.086 A 
HETATM    8  C   UNL     1     -42.948  59.590 -53.617  1.00  0.00     0.088 A 
HETATM    9  N   UNL     1     -42.806  58.267 -53.436  1.00  0.00    -0.225 NA
HETATM   10  C   UNL     1     -43.263  61.557 -54.988  1.00  0.00     0.034 A 
HETATM   11  C   UNL     1     -43.235  62.372 -53.854  1.00  0.00     0.002 A 
HETATM   12  C   UNL     1     -43.062  61.797 -52.603  1.00  0.00     0.002 A 
HETATM   13  C   UNL     1     -42.919  60.413 -52.497  1.00  0.00     0.034 A 
ENDROOT
BRANCH   3  14
HETATM   14  N   UNL     1     -42.306  55.183 -53.929  1.00  0.00    -0.176 NA
HETATM   15  C   UNL     1     -41.053  54.879 -53.985  1.00  0.00     0.153 C 
BRANCH  15  16
HETATM   16  C   UNL     1     -40.558  53.681 -53.265  1.00  0.00     0.017 A 
HETATM   17  C   UNL     1     -40.466  53.648 -51.865  1.00  0.00     0.077 A 
HETATM   18  C   UNL     1     -40.078  52.484 -51.209  1.00  0.00     0.039 A 
HETATM   19  C   UNL     1     -39.783  51.338 -51.949  1.00  0.00     0.022 A 
HETATM   20  C   UNL     1     -39.873  51.371 -53.341  1.00  0.00     0.012 A 
HETATM   21 BR   UNL     1     -39.485  49.812 -54.338  1.00  0.00    -0.051 Br
HETATM   22  C   UNL     1     -40.262  52.535 -54.008  1.00  0.00     0.034 A 
BRANCH  17  23
HETATM   23  O   UNL     1     -40.772  54.720 -51.072  1.00  0.00    -0.360 OA
HETATM   24  H   UNL     1     -41.133  54.361 -50.230  1.00  0.00     0.217 HD
ENDBRANCH  17  23
ENDBRANCH  15  16
ENDBRANCH   3  14
BRANCH   2  25
HETATM   25  N   UNL     1     -43.235  54.593 -56.493  1.00  0.00    -0.383 N 
HETATM   26  H   UNL     1     -42.372  54.084 -56.707  1.00  0.00     0.157 HD
HETATM   27  H   UNL     1     -44.003  54.336 -57.113  1.00  0.00     0.157 HD
ENDBRANCH   2  25
BRANCH   1  28
HETATM   28  C   UNL     1     -43.335  57.114 -58.227  1.00  0.00     0.258 C 
HETATM   29  N   UNL     1     -43.711  58.356 -58.699  1.00  0.00    -0.352 N 
HETATM   30  H   UNL     1     -43.870  59.078 -58.009  1.00  0.00     0.163 HD
HETATM   31  O   UNL     1     -42.982  56.189 -58.954  1.00  0.00    -0.267 OA
BRANCH  29  32
HETATM   32  C   UNL     1     -43.362  58.769 -60.052  1.00  0.00     0.080 C 
HETATM   33  C   UNL     1     -42.109  59.652 -60.025  1.00  0.00     0.032 C 
BRANCH  32  34
HETATM   34  C   UNL     1     -44.518  59.536 -60.709  1.00  0.00     0.020 C 
HETATM   35  C   UNL     1     -45.804  59.478 -59.898  1.00  0.00     0.007 C 
ENDBRANCH  32  34
ENDBRANCH  29  32
ENDBRANCH   1  28
TORSDOF 7
ENDMDL
MODEL 8
REMARK VINA RESULT:      -7.6      3.695      7.255
REMARK  7 active torsions:
REMARK  status: ('A' for Active; 'I' for Inactive)
REMARK    1  A    between atoms: C_2  and  C_3 
REMARK    2  A    between atoms: C_3  and  N_4 
REMARK       I    between atoms: N_4  and  C_5 
REMARK    3  A    between atoms: C_5  and  C_6 
REMARK    4  A    between atoms: C_7  and  N_8 
REMARK    5  A    between atoms: N_9  and  N_10 
REMARK    6  A    between atoms: C_11  and  C_12 
REMARK    7  A    between atoms: C_13  and  O_14 
ROOT
HETATM    1  C   UNL     1     -42.787  58.716 -55.191  1.00  0.00     0.110 C 
HETATM    2  C   UNL     1     -41.819  57.974 -54.536  1.00  0.00     0.143 C 
HETATM    3  N   UNL     1     -41.797  56.691 -55.076  1.00  0.00    -0.197 N 
HETATM    4  C   UNL     1     -42.556  56.707 -56.238  1.00  0.00     0.183 A 
HETATM    5  C   UNL     1     -43.219  57.931 -56.284  1.00  0.00     0.125 A 
HETATM    6  N   UNL     1     -44.110  58.220 -57.267  1.00  0.00    -0.242 NA
HETATM    7  C   UNL     1     -44.230  57.275 -58.215  1.00  0.00     0.086 A 
HETATM    8  C   UNL     1     -43.524  56.045 -58.164  1.00  0.00     0.088 A 
HETATM    9  N   UNL     1     -42.691  55.724 -57.161  1.00  0.00    -0.225 NA
HETATM   10  C   UNL     1     -45.076  57.519 -59.290  1.00  0.00     0.034 A 
HETATM   11  C   UNL     1     -45.236  56.591 -60.320  1.00  0.00     0.002 A 
HETATM   12  C   UNL     1     -44.542  55.390 -60.272  1.00  0.00     0.002 A 
HETATM   13  C   UNL     1     -43.695  55.129 -59.195  1.00  0.00     0.034 A 
ENDROOT
BRANCH   3  14
HETATM   14  N   UNL     1     -41.178  55.674 -54.384  1.00  0.00    -0.176 NA
HETATM   15  C   UNL     1     -41.892  54.928 -53.609  1.00  0.00     0.153 C 
BRANCH  15  16
HETATM   16  C   UNL     1     -41.222  53.964 -52.703  1.00  0.00     0.017 A 
HETATM   17  C   UNL     1     -40.531  52.846 -53.197  1.00  0.00     0.077 A 
HETATM   18  C   UNL     1     -39.841  52.003 -52.332  1.00  0.00     0.039 A 
HETATM   19  C   UNL     1     -39.834  52.272 -50.963  1.00  0.00     0.022 A 
HETATM   20  C   UNL     1     -40.523  53.381 -50.471  1.00  0.00     0.012 A 
HETATM   21 BR   UNL     1     -40.498  53.748 -48.617  1.00  0.00    -0.051 Br
HETATM   22  C   UNL     1     -41.217  54.233 -51.332  1.00  0.00     0.034 A 
BRANCH  17  23
HETATM   23  O   UNL     1     -40.465  52.539 -54.528  1.00  0.00    -0.360 OA
HETATM   24  H   UNL     1     -40.273  51.576 -54.592  1.00  0.00     0.217 HD
ENDBRANCH  17  23
ENDBRANCH  15  16
ENDBRANCH   3  14
BRANCH   2  25
HETATM   25  N   UNL     1     -41.055  58.303 -53.459  1.00  0.00    -0.383 N 
HETATM   26  H   UNL     1     -40.515  59.172 -53.498  1.00  0.00     0.157 HD
HETATM   27  H   UNL     1     -40.571  57.564 -52.950  1.00  0.00     0.157 HD
ENDBRANCH   2  25
BRANCH   1  28
HETATM   28  C   UNL     1     -43.240  60.019 -54.748  1.00  0.00     0.258 C 
HETATM   29  N   UNL     1     -44.612  60.166 -54.788  1.00  0.00    -0.352 N 
HETATM   30  H   UNL     1     -45.146  59.377 -55.126  1.00  0.00     0.163 HD
HETATM   31  O   UNL     1     -42.483  60.841 -54.239  1.00  0.00    -0.267 OA
BRANCH  29  32
HETATM   32  C   UNL     1     -45.279  61.118 -53.911  1.00  0.00     0.080 C 
HETATM   33  C   UNL     1     -45.944  60.380 -52.743  1.00  0.00     0.032 C 
BRANCH  32  34
HETATM   34  C   UNL     1     -46.336  61.927 -54.676  1.00  0.00     0.020 C 
HETATM   35  C   UNL     1     -46.389  61.580 -56.156  1.00  0.00     0.007 C 
ENDBRANCH  32  34
ENDBRANCH  29  32
ENDBRANCH   1  28
TORSDOF 7
ENDMDL
MODEL 9
REMARK VINA RESULT:      -7.6      3.233      7.268
REMARK  7 active torsions:
REMARK  status: ('A' for Active; 'I' for Inactive)
REMARK    1  A    between atoms: C_2  and  C_3 
REMARK    2  A    between atoms: C_3  and  N_4 
REMARK       I    between atoms: N_4  and  C_5 
REMARK    3  A    between atoms: C_5  and  C_6 
REMARK    4  A    between atoms: C_7  and  N_8 
REMARK    5  A    between atoms: N_9  and  N_10 
REMARK    6  A    between atoms: C_11  and  C_12 
REMARK    7  A    between atoms: C_13  and  O_14 
ROOT
HETATM    1  C   UNL     1     -42.390  58.039 -55.518  1.00  0.00     0.110 C 
HETATM    2  C   UNL     1     -42.398  59.114 -54.647  1.00  0.00     0.143 C 
HETATM    3  N   UNL     1     -42.256  58.638 -53.346  1.00  0.00    -0.197 N 
HETATM    4  C   UNL     1     -41.893  57.301 -53.421  1.00  0.00     0.183 A 
HETATM    5  C   UNL     1     -42.031  56.907 -54.750  1.00  0.00     0.125 A 
HETATM    6  N   UNL     1     -41.827  55.621 -55.136  1.00  0.00    -0.242 NA
HETATM    7  C   UNL     1     -41.407  54.800 -54.159  1.00  0.00     0.086 A 
HETATM    8  C   UNL     1     -41.245  55.228 -52.815  1.00  0.00     0.088 A 
HETATM    9  N   UNL     1     -41.508  56.482 -52.413  1.00  0.00    -0.225 NA
HETATM   10  C   UNL     1     -41.115  53.481 -54.482  1.00  0.00     0.034 A 
HETATM   11  C   UNL     1     -40.657  52.576 -53.522  1.00  0.00     0.002 A 
HETATM   12  C   UNL     1     -40.494  52.996 -52.210  1.00  0.00     0.002 A 
HETATM   13  C   UNL     1     -40.791  54.316 -51.870  1.00  0.00     0.034 A 
ENDROOT
BRANCH   3  14
HETATM   14  N   UNL     1     -42.576  59.456 -52.285  1.00  0.00    -0.176 NA
HETATM   15  C   UNL     1     -43.751  59.358 -51.760  1.00  0.00     0.153 C 
BRANCH  15  16
HETATM   16  C   UNL     1     -44.189  60.359 -50.757  1.00  0.00     0.017 A 
HETATM   17  C   UNL     1     -45.164  60.059 -49.793  1.00  0.00     0.077 A 
HETATM   18  C   UNL     1     -45.497  60.987 -48.812  1.00  0.00     0.039 A 
HETATM   19  C   UNL     1     -44.854  62.225 -48.784  1.00  0.00     0.022 A 
HETATM   20  C   UNL     1     -43.887  62.525 -49.744  1.00  0.00     0.012 A 
HETATM   21 BR   UNL     1     -43.010  64.200 -49.694  1.00  0.00    -0.051 Br
HETATM   22  C   UNL     1     -43.546  61.599 -50.732  1.00  0.00     0.034 A 
BRANCH  17  23
HETATM   23  O   UNL     1     -45.810  58.855 -49.736  1.00  0.00    -0.360 OA
HETATM   24  H   UNL     1     -45.360  58.256 -50.374  1.00  0.00     0.217 HD
ENDBRANCH  17  23
ENDBRANCH  15  16
ENDBRANCH   3  14
BRANCH   2  25
HETATM   25  N   UNL     1     -42.625  60.432 -54.898  1.00  0.00    -0.383 N 
HETATM   26  H   UNL     1     -43.225  60.676 -55.692  1.00  0.00     0.157 HD
HETATM   27  H   UNL     1     -41.868  61.101 -54.761  1.00  0.00     0.157 HD
ENDBRANCH   2  25
BRANCH   1  28
HETATM   28  C   UNL     1     -42.735  58.136 -56.921  1.00  0.00     0.258 C 
HETATM   29  N   UNL     1     -43.750  57.279 -57.298  1.00  0.00    -0.352 N 
HETATM   30  H   UNL     1     -44.130  56.677 -56.579  1.00  0.00     0.163 HD
HETATM   31  O   UNL     1     -42.276  59.009 -57.653  1.00  0.00    -0.267 OA
BRANCH  29  32
HETATM   32  C   UNL     1     -44.592  57.590 -58.445  1.00  0.00     0.080 C 
HETATM   33  C   UNL     1     -45.987  58.016 -57.972  1.00  0.00     0.032 C 
BRANCH  32  34
HETATM   34  C   UNL     1     -44.715  56.380 -59.383  1.00  0.00     0.020 C 
HETATM   35  C   UNL     1     -43.367  55.783 -59.757  1.00  0.00     0.007 C 
ENDBRANCH  32  34
ENDBRANCH  29  32
ENDBRANCH   1  28
TORSDOF 7
ENDMDL
MODEL 10
REMARK VINA RESULT:      -7.5      2.972      8.016
REMARK  7 active torsions:
REMARK  status: ('A' for Active; 'I' for Inactive)
REMARK    1  A    between atoms: C_2  and  C_3 
REMARK    2  A    between atoms: C_3  and  N_4 
REMARK       I    between atoms: N_4  and  C_5 
REMARK    3  A    between atoms: C_5  and  C_6 
REMARK    4  A    between atoms: C_7  and  N_8 
REMARK    5  A    between atoms: N_9  and  N_10 
REMARK    6  A    between atoms: C_11  and  C_12 
REMARK    7  A    between atoms: C_13  and  O_14 
ROOT
HETATM    1  C   UNL     1     -44.558  57.956 -54.588  1.00  0.00     0.110 C 
HETATM    2  C   UNL     1     -44.283  56.724 -54.022  1.00  0.00     0.143 C 
HETATM    3  N   UNL     1     -43.492  56.916 -52.893  1.00  0.00    -0.197 N 
HETATM    4  C   UNL     1     -43.493  58.273 -52.600  1.00  0.00     0.183 A 
HETATM    5  C   UNL     1     -44.096  58.928 -53.672  1.00  0.00     0.125 A 
HETATM    6  N   UNL     1     -44.176  60.283 -53.723  1.00  0.00    -0.242 NA
HETATM    7  C   UNL     1     -43.708  60.916 -52.634  1.00  0.00     0.086 A 
HETATM    8  C   UNL     1     -43.122  60.228 -51.539  1.00  0.00     0.088 A 
HETATM    9  N   UNL     1     -42.979  58.893 -51.510  1.00  0.00    -0.225 NA
HETATM   10  C   UNL     1     -43.810  62.301 -52.578  1.00  0.00     0.034 A 
HETATM   11  C   UNL     1     -43.361  63.023 -51.472  1.00  0.00     0.002 A 
HETATM   12  C   UNL     1     -42.793  62.350 -50.399  1.00  0.00     0.002 A 
HETATM   13  C   UNL     1     -42.678  60.960 -50.445  1.00  0.00     0.034 A 
ENDROOT
BRANCH   3  14
HETATM   14  N   UNL     1     -42.804  55.850 -52.356  1.00  0.00    -0.176 NA
HETATM   15  C   UNL     1     -41.601  55.620 -52.766  1.00  0.00     0.153 C 
BRANCH  15  16
HETATM   16  C   UNL     1     -40.917  54.369 -52.358  1.00  0.00     0.017 A 
HETATM   17  C   UNL     1     -40.521  54.145 -51.030  1.00  0.00     0.077 A 
HETATM   18  C   UNL     1     -39.956  52.929 -50.657  1.00  0.00     0.039 A 
HETATM   19  C   UNL     1     -39.787  51.923 -51.609  1.00  0.00     0.022 A 
HETATM   20  C   UNL     1     -40.179  52.147 -52.930  1.00  0.00     0.012 A 
HETATM   21 BR   UNL     1     -39.960  50.775 -54.213  1.00  0.00    -0.051 Br
HETATM   22  C   UNL     1     -40.747  53.364 -53.313  1.00  0.00     0.034 A 
BRANCH  17  23
HETATM   23  O   UNL     1     -40.687  55.069 -50.036  1.00  0.00    -0.360 OA
HETATM   24  H   UNL     1     -40.842  54.570 -49.203  1.00  0.00     0.217 HD
ENDBRANCH  17  23
ENDBRANCH  15  16
ENDBRANCH   3  14
BRANCH   2  25
HETATM   25  N   UNL     1     -44.578  55.476 -54.476  1.00  0.00    -0.383 N 
HETATM   26  H   UNL     1     -44.792  54.749 -53.787  1.00  0.00     0.157 HD
HETATM   27  H   UNL     1     -44.077  55.111 -55.285  1.00  0.00     0.157 HD
ENDBRANCH   2  25
BRANCH   1  28
HETATM   28  C   UNL     1     -45.167  58.126 -55.891  1.00  0.00     0.258 C 
HETATM   29  N   UNL     1     -44.298  58.621 -56.843  1.00  0.00    -0.352 N 
HETATM   30  H   UNL     1     -43.354  58.822 -56.539  1.00  0.00     0.163 HD
HETATM   31  O   UNL     1     -46.295  57.716 -56.150  1.00  0.00    -0.267 OA
BRANCH  29  32
HETATM   32  C   UNL     1     -44.518  58.350 -58.257  1.00  0.00     0.080 C 
HETATM   33  C   UNL     1     -43.931  56.982 -58.627  1.00  0.00     0.032 C 
BRANCH  32  34
HETATM   34  C   UNL     1     -43.879  59.437 -59.133  1.00  0.00     0.020 C 
HETATM   35  C   UNL     1     -43.360  58.900 -60.458  1.00  0.00     0.007 C 
ENDBRANCH  32  34
ENDBRANCH  29  32
ENDBRANCH   1  28
TORSDOF 7
ENDMDL
