MODEL 1
REMARK VINA RESULT:      -9.7      0.000      0.000
REMARK  6 active torsions:
REMARK  status: ('A' for Active; 'I' for Inactive)
REMARK    1  A    between atoms: C_2  and  O_3 
REMARK    2  A    between atoms: C_2  and  C_4 
REMARK    3  A    between atoms: C_6  and  N_7 
REMARK       I    between atoms: N_7  and  C_8 
REMARK    4  A    between atoms: C_8  and  C_9 
REMARK    5  A    between atoms: C_12  and  C_13 
REMARK    6  A    between atoms: C_18  and  C_19 
ROOT
HETATM    1  C   UNL     1     -42.023  56.028 -54.378  1.00  0.00     0.096 C 
HETATM    2  C   UNL     1     -41.437  55.177 -53.459  1.00  0.00     0.138 C 
HETATM    3  N   UNL     1     -41.377  55.882 -52.278  1.00  0.00    -0.240 N 
HETATM    4  C   UNL     1     -40.806  55.373 -51.042  1.00  0.00     0.221 C 
HETATM    5  C   UNL     1     -40.628  53.845 -51.116  1.00  0.00     0.066 C 
HETATM    6  C   UNL     1     -40.055  53.442 -52.479  1.00  0.00     0.118 C 
HETATM    7  N   UNL     1     -40.957  53.905 -53.541  1.00  0.00    -0.365 N 
HETATM    8  N   UNL     1     -41.705  57.176 -52.415  1.00  0.00    -0.181 NA
HETATM    9  C   UNL     1     -42.131  57.255 -53.679  1.00  0.00     0.160 C 
HETATM   10  H   UNL     1     -40.642  53.573 -54.457  1.00  0.00     0.161 HD
ENDROOT
BRANCH   1  11
HETATM   11  C   UNL     1     -42.412  55.780 -55.757  1.00  0.00     0.261 C 
HETATM   12  N   UNL     1     -42.345  56.907 -56.555  1.00  0.00    -0.323 N 
HETATM   13  H   UNL     1     -41.950  57.729 -56.112  1.00  0.00     0.169 HD
HETATM   14  O   UNL     1     -42.723  54.653 -56.121  1.00  0.00    -0.267 OA
BRANCH  12  15
HETATM   15  C   UNL     1     -42.660  57.019 -57.924  1.00  0.00     0.035 A 
HETATM   16  C   UNL     1     -43.551  56.175 -58.592  1.00  0.00     0.039 A 
HETATM   17  C   UNL     1     -43.813  56.336 -59.963  1.00  0.00    -0.028 A 
HETATM   18  C   UNL     1     -43.159  57.359 -60.664  1.00  0.00     0.010 A 
HETATM   19  C   UNL     1     -42.279  58.213 -60.004  1.00  0.00     0.003 A 
HETATM   20  C   UNL     1     -42.034  58.046 -58.640  1.00  0.00     0.029 A 
BRANCH  17  21
HETATM   21  C   UNL     1     -44.764  55.388 -60.664  1.00  0.00     0.147 C 
HETATM   22  C   UNL     1     -46.207  55.861 -60.582  1.00  0.00     0.044 C 
BRANCH  21  23
HETATM   23  O   UNL     1     -44.673  54.082 -60.095  1.00  0.00    -0.391 OA
HETATM   24  H   UNL     1     -45.537  53.894 -59.690  1.00  0.00     0.210 HD
ENDBRANCH  21  23
ENDBRANCH  17  21
ENDBRANCH  12  15
ENDBRANCH   1  11
BRANCH   4  25
HETATM   25  C   UNL     1     -41.659  55.725 -49.843  1.00  0.00     0.409 C 
HETATM   26  F   UNL     1     -42.984  55.694 -50.091  1.00  0.00    -0.169 F 
HETATM   27  F   UNL     1     -41.406  54.929 -48.779  1.00  0.00    -0.169 F 
HETATM   28  F   UNL     1     -41.381  56.998 -49.448  1.00  0.00    -0.169 F 
ENDBRANCH   4  25
BRANCH   6  29
HETATM   29  C   UNL     1     -39.867  51.942 -52.595  1.00  0.00    -0.035 A 
HETATM   30  C   UNL     1     -39.689  51.137 -51.458  1.00  0.00     0.009 A 
HETATM   31  C   UNL     1     -39.506  49.759 -51.582  1.00  0.00     0.001 A 
HETATM   32  C   UNL     1     -39.501  49.167 -52.843  1.00  0.00     0.000 A 
HETATM   33  C   UNL     1     -39.682  49.951 -53.980  1.00  0.00     0.001 A 
HETATM   34  C   UNL     1     -39.865  51.331 -53.858  1.00  0.00     0.009 A 
ENDBRANCH   6  29
TORSDOF 6
ENDMDL
MODEL 2
REMARK VINA RESULT:      -9.3      1.596      2.265
REMARK  6 active torsions:
REMARK  status: ('A' for Active; 'I' for Inactive)
REMARK    1  A    between atoms: C_2  and  O_3 
REMARK    2  A    between atoms: C_2  and  C_4 
REMARK    3  A    between atoms: C_6  and  N_7 
REMARK       I    between atoms: N_7  and  C_8 
REMARK    4  A    between atoms: C_8  and  C_9 
REMARK    5  A    between atoms: C_12  and  C_13 
REMARK    6  A    between atoms: C_18  and  C_19 
ROOT
HETATM    1  C   UNL     1     -41.966  56.267 -52.077  1.00  0.00     0.096 C 
HETATM    2  C   UNL     1     -41.237  55.139 -51.750  1.00  0.00     0.138 C 
HETATM    3  N   UNL     1     -40.802  55.334 -50.458  1.00  0.00    -0.240 N 
HETATM    4  C   UNL     1     -39.972  54.398 -49.718  1.00  0.00     0.221 C 
HETATM    5  C   UNL     1     -39.959  53.021 -50.409  1.00  0.00     0.066 C 
HETATM    6  C   UNL     1     -39.806  53.189 -51.925  1.00  0.00     0.118 C 
HETATM    7  N   UNL     1     -40.913  54.008 -52.436  1.00  0.00    -0.365 N 
HETATM    8  N   UNL     1     -41.037  56.573 -50.001  1.00  0.00    -0.181 NA
HETATM    9  C   UNL     1     -41.775  57.126 -50.968  1.00  0.00     0.160 C 
HETATM   10  H   UNL     1     -40.883  54.063 -53.458  1.00  0.00     0.161 HD
ENDROOT
BRANCH   1  11
HETATM   11  C   UNL     1     -42.729  56.564 -53.280  1.00  0.00     0.261 C 
HETATM   12  N   UNL     1     -41.936  56.888 -54.365  1.00  0.00    -0.323 N 
HETATM   13  H   UNL     1     -40.938  56.788 -54.217  1.00  0.00     0.169 HD
HETATM   14  O   UNL     1     -43.951  56.481 -53.276  1.00  0.00    -0.267 OA
BRANCH  12  15
HETATM   15  C   UNL     1     -42.348  57.235 -55.666  1.00  0.00     0.035 A 
HETATM   16  C   UNL     1     -42.645  56.304 -56.666  1.00  0.00     0.039 A 
HETATM   17  C   UNL     1     -43.042  56.720 -57.949  1.00  0.00    -0.028 A 
HETATM   18  C   UNL     1     -43.130  58.092 -58.221  1.00  0.00     0.010 A 
HETATM   19  C   UNL     1     -42.849  59.026 -57.227  1.00  0.00     0.003 A 
HETATM   20  C   UNL     1     -42.463  58.600 -55.956  1.00  0.00     0.029 A 
BRANCH  17  21
HETATM   21  C   UNL     1     -43.330  55.686 -59.018  1.00  0.00     0.147 C 
HETATM   22  C   UNL     1     -44.034  56.293 -60.223  1.00  0.00     0.044 C 
BRANCH  21  23
HETATM   23  O   UNL     1     -44.141  54.637 -58.490  1.00  0.00    -0.391 OA
HETATM   24  H   UNL     1     -45.025  55.015 -58.342  1.00  0.00     0.210 HD
ENDBRANCH  21  23
ENDBRANCH  17  21
ENDBRANCH  12  15
ENDBRANCH   1  11
BRANCH   4  25
HETATM   25  C   UNL     1     -40.441  54.242 -48.288  1.00  0.00     0.409 C 
HETATM   26  F   UNL     1     -39.435  54.120 -47.398  1.00  0.00    -0.169 F 
HETATM   27  F   UNL     1     -41.239  55.260 -47.893  1.00  0.00    -0.169 F 
HETATM   28  F   UNL     1     -41.181  53.105 -48.176  1.00  0.00    -0.169 F 
ENDBRANCH   4  25
BRANCH   6  29
HETATM   29  C   UNL     1     -39.792  51.855 -52.645  1.00  0.00    -0.035 A 
HETATM   30  C   UNL     1     -39.524  50.657 -51.961  1.00  0.00     0.009 A 
HETATM   31  C   UNL     1     -39.502  49.438 -52.640  1.00  0.00     0.001 A 
HETATM   32  C   UNL     1     -39.752  49.399 -54.010  1.00  0.00     0.000 A 
HETATM   33  C   UNL     1     -40.025  50.578 -54.701  1.00  0.00     0.001 A 
HETATM   34  C   UNL     1     -40.046  51.798 -54.024  1.00  0.00     0.009 A 
ENDBRANCH   6  29
TORSDOF 6
ENDMDL
MODEL 3
REMARK VINA RESULT:      -9.3      1.383      1.899
REMARK  6 active torsions:
REMARK  status: ('A' for Active; 'I' for Inactive)
REMARK    1  A    between atoms: C_2  and  O_3 
REMARK    2  A    between atoms: C_2  and  C_4 
REMARK    3  A    between atoms: C_6  and  N_7 
REMARK       I    between atoms: N_7  and  C_8 
REMARK    4  A    between atoms: C_8  and  C_9 
REMARK    5  A    between atoms: C_12  and  C_13 
REMARK    6  A    between atoms: C_18  and  C_19 
ROOT
HETATM    1  C   UNL     1     -42.582  56.018 -53.764  1.00  0.00     0.096 C 
HETATM    2  C   UNL     1     -41.807  55.099 -53.080  1.00  0.00     0.138 C 
HETATM    3  N   UNL     1     -41.588  55.644 -51.835  1.00  0.00    -0.240 N 
HETATM    4  C   UNL     1     -40.794  55.020 -50.790  1.00  0.00     0.221 C 
HETATM    5  C   UNL     1     -40.551  53.532 -51.109  1.00  0.00     0.066 C 
HETATM    6  C   UNL     1     -40.192  53.358 -52.589  1.00  0.00     0.118 C 
HETATM    7  N   UNL     1     -41.282  53.888 -53.418  1.00  0.00    -0.365 N 
HETATM    8  N   UNL     1     -42.002  56.916 -51.732  1.00  0.00    -0.181 NA
HETATM    9  C   UNL     1     -42.636  57.130 -52.888  1.00  0.00     0.160 C 
HETATM   10  H   UNL     1     -41.107  53.706 -54.410  1.00  0.00     0.161 HD
ENDROOT
BRANCH   1  11
HETATM   11  C   UNL     1     -43.182  55.927 -55.085  1.00  0.00     0.261 C 
HETATM   12  N   UNL     1     -43.659  57.137 -55.554  1.00  0.00    -0.323 N 
HETATM   13  H   UNL     1     -43.450  57.940 -54.971  1.00  0.00     0.169 HD
HETATM   14  O   UNL     1     -43.200  54.860 -55.687  1.00  0.00    -0.267 OA
BRANCH  12  15
HETATM   15  C   UNL     1     -44.301  57.398 -56.780  1.00  0.00     0.035 A 
HETATM   16  C   UNL     1     -43.885  56.873 -58.007  1.00  0.00     0.039 A 
HETATM   17  C   UNL     1     -44.567  57.183 -59.197  1.00  0.00    -0.028 A 
HETATM   18  C   UNL     1     -45.674  58.040 -59.141  1.00  0.00     0.010 A 
HETATM   19  C   UNL     1     -46.103  58.558 -57.922  1.00  0.00     0.003 A 
HETATM   20  C   UNL     1     -45.422  58.235 -56.747  1.00  0.00     0.029 A 
BRANCH  17  21
HETATM   21  C   UNL     1     -44.075  56.619 -60.514  1.00  0.00     0.147 C 
HETATM   22  C   UNL     1     -44.865  55.390 -60.939  1.00  0.00     0.044 C 
BRANCH  21  23
HETATM   23  O   UNL     1     -42.694  56.271 -60.421  1.00  0.00    -0.391 OA
HETATM   24  H   UNL     1     -42.551  55.933 -59.520  1.00  0.00     0.210 HD
ENDBRANCH  21  23
ENDBRANCH  17  21
ENDBRANCH  12  15
ENDBRANCH   1  11
BRANCH   4  25
HETATM   25  C   UNL     1     -41.452  55.145 -49.433  1.00  0.00     0.409 C 
HETATM   26  F   UNL     1     -41.332  56.370 -48.883  1.00  0.00    -0.169 F 
HETATM   27  F   UNL     1     -42.764  54.819 -49.465  1.00  0.00    -0.169 F 
HETATM   28  F   UNL     1     -40.860  54.282 -48.562  1.00  0.00    -0.169 F 
ENDBRANCH   4  25
BRANCH   6  29
HETATM   29  C   UNL     1     -39.948  51.906 -52.947  1.00  0.00    -0.035 A 
HETATM   30  C   UNL     1     -40.067  51.448 -54.270  1.00  0.00     0.009 A 
HETATM   31  C   UNL     1     -39.850  50.105 -54.582  1.00  0.00     0.001 A 
HETATM   32  C   UNL     1     -39.510  49.202 -53.577  1.00  0.00     0.000 A 
HETATM   33  C   UNL     1     -39.384  49.641 -52.261  1.00  0.00     0.001 A 
HETATM   34  C   UNL     1     -39.601  50.985 -51.947  1.00  0.00     0.009 A 
ENDBRANCH   6  29
TORSDOF 6
ENDMDL
MODEL 4
REMARK VINA RESULT:      -8.9      2.329      3.212
REMARK  6 active torsions:
REMARK  status: ('A' for Active; 'I' for Inactive)
REMARK    1  A    between atoms: C_2  and  O_3 
REMARK    2  A    between atoms: C_2  and  C_4 
REMARK    3  A    between atoms: C_6  and  N_7 
REMARK       I    between atoms: N_7  and  C_8 
REMARK    4  A    between atoms: C_8  and  C_9 
REMARK    5  A    between atoms: C_12  and  C_13 
REMARK    6  A    between atoms: C_18  and  C_19 
ROOT
HETATM    1  C   UNL     1     -41.894  56.304 -51.928  1.00  0.00     0.096 C 
HETATM    2  C   UNL     1     -41.184  55.153 -51.638  1.00  0.00     0.138 C 
HETATM    3  N   UNL     1     -40.741  55.302 -50.342  1.00  0.00    -0.240 N 
HETATM    4  C   UNL     1     -39.925  54.330 -49.634  1.00  0.00     0.221 C 
HETATM    5  C   UNL     1     -39.939  52.974 -50.366  1.00  0.00     0.066 C 
HETATM    6  C   UNL     1     -39.790  53.184 -51.877  1.00  0.00     0.118 C 
HETATM    7  N   UNL     1     -40.883  54.038 -52.359  1.00  0.00    -0.365 N 
HETATM    8  N   UNL     1     -40.951  56.531 -49.847  1.00  0.00    -0.181 NA
HETATM    9  C   UNL     1     -41.683  57.126 -50.794  1.00  0.00     0.160 C 
HETATM   10  H   UNL     1     -40.856  54.123 -53.378  1.00  0.00     0.161 HD
ENDROOT
BRANCH   1  11
HETATM   11  C   UNL     1     -42.656  56.651 -53.117  1.00  0.00     0.261 C 
HETATM   12  N   UNL     1     -41.862  57.016 -54.189  1.00  0.00    -0.323 N 
HETATM   13  H   UNL     1     -40.864  56.908 -54.044  1.00  0.00     0.169 HD
HETATM   14  O   UNL     1     -43.878  56.570 -53.117  1.00  0.00    -0.267 OA
BRANCH  12  15
HETATM   15  C   UNL     1     -42.273  57.415 -55.475  1.00  0.00     0.035 A 
HETATM   16  C   UNL     1     -42.108  58.708 -55.981  1.00  0.00     0.039 A 
HETATM   17  C   UNL     1     -42.551  59.043 -57.272  1.00  0.00    -0.028 A 
HETATM   18  C   UNL     1     -43.174  58.060 -58.053  1.00  0.00     0.010 A 
HETATM   19  C   UNL     1     -43.331  56.766 -57.562  1.00  0.00     0.003 A 
HETATM   20  C   UNL     1     -42.880  56.445 -56.281  1.00  0.00     0.029 A 
BRANCH  17  21
HETATM   21  C   UNL     1     -42.381  60.460 -57.781  1.00  0.00     0.147 C 
HETATM   22  C   UNL     1     -41.916  60.494 -59.229  1.00  0.00     0.044 C 
BRANCH  21  23
HETATM   23  O   UNL     1     -41.438  61.168 -56.977  1.00  0.00    -0.391 OA
HETATM   24  H   UNL     1     -41.485  62.100 -57.247  1.00  0.00     0.210 HD
ENDBRANCH  21  23
ENDBRANCH  17  21
ENDBRANCH  12  15
ENDBRANCH   1  11
BRANCH   4  25
HETATM   25  C   UNL     1     -40.391  54.139 -48.207  1.00  0.00     0.409 C 
HETATM   26  F   UNL     1     -41.126  53.024 -48.021  1.00  0.00    -0.169 F 
HETATM   27  F   UNL     1     -39.363  54.123 -47.328  1.00  0.00    -0.169 F 
HETATM   28  F   UNL     1     -41.190  55.181 -47.848  1.00  0.00    -0.169 F 
ENDBRANCH   4  25
BRANCH   6  29
HETATM   29  C   UNL     1     -39.802  51.873 -52.636  1.00  0.00    -0.035 A 
HETATM   30  C   UNL     1     -39.564  50.649 -51.987  1.00  0.00     0.009 A 
HETATM   31  C   UNL     1     -39.567  49.450 -52.702  1.00  0.00     0.001 A 
HETATM   32  C   UNL     1     -39.812  49.458 -54.074  1.00  0.00     0.000 A 
HETATM   33  C   UNL     1     -40.056  50.662 -54.731  1.00  0.00     0.001 A 
HETATM   34  C   UNL     1     -40.052  51.863 -54.017  1.00  0.00     0.009 A 
ENDBRANCH   6  29
TORSDOF 6
ENDMDL
MODEL 5
REMARK VINA RESULT:      -8.8      4.945      7.979
REMARK  6 active torsions:
REMARK  status: ('A' for Active; 'I' for Inactive)
REMARK    1  A    between atoms: C_2  and  O_3 
REMARK    2  A    between atoms: C_2  and  C_4 
REMARK    3  A    between atoms: C_6  and  N_7 
REMARK       I    between atoms: N_7  and  C_8 
REMARK    4  A    between atoms: C_8  and  C_9 
REMARK    5  A    between atoms: C_12  and  C_13 
REMARK    6  A    between atoms: C_18  and  C_19 
ROOT
HETATM    1  C   UNL     1     -43.873  58.217 -53.385  1.00  0.00     0.096 C 
HETATM    2  C   UNL     1     -43.398  57.034 -53.921  1.00  0.00     0.138 C 
HETATM    3  N   UNL     1     -43.777  57.042 -55.244  1.00  0.00    -0.240 N 
HETATM    4  C   UNL     1     -43.505  55.968 -56.185  1.00  0.00     0.221 C 
HETATM    5  C   UNL     1     -42.431  55.016 -55.626  1.00  0.00     0.066 C 
HETATM    6  C   UNL     1     -42.700  54.722 -54.146  1.00  0.00     0.118 C 
HETATM    7  N   UNL     1     -42.707  55.984 -53.395  1.00  0.00    -0.365 N 
HETATM    8  N   UNL     1     -44.615  58.044 -55.550  1.00  0.00    -0.181 NA
HETATM    9  C   UNL     1     -44.643  58.776 -54.433  1.00  0.00     0.160 C 
HETATM   10  H   UNL     1     -42.799  55.809 -52.391  1.00  0.00     0.161 HD
ENDROOT
BRANCH   1  11
HETATM   11  C   UNL     1     -43.688  58.775 -52.055  1.00  0.00     0.261 C 
HETATM   12  N   UNL     1     -44.502  59.863 -51.799  1.00  0.00    -0.323 N 
HETATM   13  H   UNL     1     -45.180  60.075 -52.522  1.00  0.00     0.169 HD
HETATM   14  O   UNL     1     -42.899  58.261 -51.270  1.00  0.00    -0.267 OA
BRANCH  12  15
HETATM   15  C   UNL     1     -44.569  60.638 -50.625  1.00  0.00     0.035 A 
HETATM   16  C   UNL     1     -45.229  60.235 -49.461  1.00  0.00     0.039 A 
HETATM   17  C   UNL     1     -45.266  61.063 -48.325  1.00  0.00    -0.028 A 
HETATM   18  C   UNL     1     -44.635  62.313 -48.376  1.00  0.00     0.010 A 
HETATM   19  C   UNL     1     -43.964  62.717 -49.527  1.00  0.00     0.003 A 
HETATM   20  C   UNL     1     -43.929  61.882 -50.644  1.00  0.00     0.029 A 
BRANCH  17  21
HETATM   21  C   UNL     1     -46.013  60.609 -47.088  1.00  0.00     0.147 C 
HETATM   22  C   UNL     1     -45.200  60.824 -45.820  1.00  0.00     0.044 C 
BRANCH  21  23
HETATM   23  O   UNL     1     -46.351  59.226 -47.190  1.00  0.00    -0.391 OA
HETATM   24  H   UNL     1     -45.903  58.887 -47.984  1.00  0.00     0.210 HD
ENDBRANCH  21  23
ENDBRANCH  17  21
ENDBRANCH  12  15
ENDBRANCH   1  11
BRANCH   4  25
HETATM   25  C   UNL     1     -43.058  56.500 -57.530  1.00  0.00     0.409 C 
HETATM   26  F   UNL     1     -44.062  57.008 -58.273  1.00  0.00    -0.169 F 
HETATM   27  F   UNL     1     -42.094  57.442 -57.416  1.00  0.00    -0.169 F 
HETATM   28  F   UNL     1     -42.523  55.486 -58.263  1.00  0.00    -0.169 F 
ENDBRANCH   4  25
BRANCH   6  29
HETATM   29  C   UNL     1     -41.663  53.790 -53.555  1.00  0.00    -0.035 A 
HETATM   30  C   UNL     1     -41.012  52.825 -54.343  1.00  0.00     0.009 A 
HETATM   31  C   UNL     1     -40.067  51.965 -53.781  1.00  0.00     0.001 A 
HETATM   32  C   UNL     1     -39.758  52.059 -52.426  1.00  0.00     0.000 A 
HETATM   33  C   UNL     1     -40.391  53.014 -51.632  1.00  0.00     0.001 A 
HETATM   34  C   UNL     1     -41.337  53.874 -52.192  1.00  0.00     0.009 A 
ENDBRANCH   6  29
TORSDOF 6
ENDMDL
MODEL 6
REMARK VINA RESULT:      -8.7      3.262      8.115
REMARK  6 active torsions:
REMARK  status: ('A' for Active; 'I' for Inactive)
REMARK    1  A    between atoms: C_2  and  O_3 
REMARK    2  A    between atoms: C_2  and  C_4 
REMARK    3  A    between atoms: C_6  and  N_7 
REMARK       I    between atoms: N_7  and  C_8 
REMARK    4  A    between atoms: C_8  and  C_9 
REMARK    5  A    between atoms: C_12  and  C_13 
REMARK    6  A    between atoms: C_18  and  C_19 
ROOT
HETATM    1  C   UNL     1     -41.410  56.799 -54.448  1.00  0.00     0.096 C 
HETATM    2  C   UNL     1     -42.260  57.234 -55.449  1.00  0.00     0.138 C 
HETATM    3  N   UNL     1     -42.449  58.579 -55.223  1.00  0.00    -0.240 N 
HETATM    4  C   UNL     1     -43.300  59.438 -56.029  1.00  0.00     0.221 C 
HETATM    5  C   UNL     1     -43.653  58.753 -57.363  1.00  0.00     0.066 C 
HETATM    6  C   UNL     1     -44.009  57.281 -57.127  1.00  0.00     0.118 C 
HETATM    7  N   UNL     1     -42.873  56.604 -56.489  1.00  0.00    -0.365 N 
HETATM    8  N   UNL     1     -41.940  58.998 -54.055  1.00  0.00    -0.181 NA
HETATM    9  C   UNL     1     -41.279  57.928 -53.603  1.00  0.00     0.160 C 
HETATM   10  H   UNL     1     -43.052  55.600 -56.399  1.00  0.00     0.161 HD
ENDROOT
BRANCH   1  11
HETATM   11  C   UNL     1     -40.804  55.492 -54.246  1.00  0.00     0.261 C 
HETATM   12  N   UNL     1     -41.039  54.969 -52.988  1.00  0.00    -0.323 N 
HETATM   13  H   UNL     1     -41.671  55.508 -52.406  1.00  0.00     0.169 HD
HETATM   14  O   UNL     1     -40.190  54.946 -55.154  1.00  0.00    -0.267 OA
BRANCH  12  15
HETATM   15  C   UNL     1     -40.594  53.740 -52.464  1.00  0.00     0.035 A 
HETATM   16  C   UNL     1     -40.250  52.635 -53.249  1.00  0.00     0.039 A 
HETATM   17  C   UNL     1     -39.821  51.433 -52.660  1.00  0.00    -0.028 A 
HETATM   18  C   UNL     1     -39.749  51.350 -51.262  1.00  0.00     0.010 A 
HETATM   19  C   UNL     1     -40.076  52.450 -50.473  1.00  0.00     0.003 A 
HETATM   20  C   UNL     1     -40.493  53.639 -51.072  1.00  0.00     0.029 A 
BRANCH  17  21
HETATM   21  C   UNL     1     -39.482  50.245 -53.536  1.00  0.00     0.147 C 
HETATM   22  C   UNL     1     -40.506  50.042 -54.643  1.00  0.00     0.044 C 
BRANCH  21  23
HETATM   23  O   UNL     1     -39.406  49.055 -52.753  1.00  0.00    -0.391 OA
HETATM   24  H   UNL     1     -39.866  48.361 -53.256  1.00  0.00     0.210 HD
ENDBRANCH  21  23
ENDBRANCH  17  21
ENDBRANCH  12  15
ENDBRANCH   1  11
BRANCH   4  25
HETATM   25  C   UNL     1     -42.648  60.776 -56.305  1.00  0.00     0.409 C 
HETATM   26  F   UNL     1     -42.693  61.626 -55.260  1.00  0.00    -0.169 F 
HETATM   27  F   UNL     1     -41.359  60.650 -56.696  1.00  0.00    -0.169 F 
HETATM   28  F   UNL     1     -43.303  61.397 -57.324  1.00  0.00    -0.169 F 
ENDBRANCH   4  25
BRANCH   6  29
HETATM   29  C   UNL     1     -44.360  56.568 -58.417  1.00  0.00    -0.035 A 
HETATM   30  C   UNL     1     -45.408  57.017 -59.239  1.00  0.00     0.009 A 
HETATM   31  C   UNL     1     -45.728  56.342 -60.419  1.00  0.00     0.001 A 
HETATM   32  C   UNL     1     -45.003  55.213 -60.794  1.00  0.00     0.000 A 
HETATM   33  C   UNL     1     -43.957  54.759 -59.993  1.00  0.00     0.001 A 
HETATM   34  C   UNL     1     -43.637  55.432 -58.812  1.00  0.00     0.009 A 
ENDBRANCH   6  29
TORSDOF 6
ENDMDL
MODEL 7
REMARK VINA RESULT:      -8.6      2.552      3.734
REMARK  6 active torsions:
REMARK  status: ('A' for Active; 'I' for Inactive)
REMARK    1  A    between atoms: C_2  and  O_3 
REMARK    2  A    between atoms: C_2  and  C_4 
REMARK    3  A    between atoms: C_6  and  N_7 
REMARK       I    between atoms: N_7  and  C_8 
REMARK    4  A    between atoms: C_8  and  C_9 
REMARK    5  A    between atoms: C_12  and  C_13 
REMARK    6  A    between atoms: C_18  and  C_19 
ROOT
HETATM    1  C   UNL     1     -42.636  59.433 -55.751  1.00  0.00     0.096 C 
HETATM    2  C   UNL     1     -42.064  58.616 -54.793  1.00  0.00     0.138 C 
HETATM    3  N   UNL     1     -41.877  59.410 -53.684  1.00  0.00    -0.240 N 
HETATM    4  C   UNL     1     -41.274  58.960 -52.441  1.00  0.00     0.221 C 
HETATM    5  C   UNL     1     -41.222  57.421 -52.389  1.00  0.00     0.066 C 
HETATM    6  C   UNL     1     -40.766  56.860 -53.740  1.00  0.00     0.118 C 
HETATM    7  N   UNL     1     -41.692  57.306 -54.789  1.00  0.00    -0.365 N 
HETATM    8  N   UNL     1     -42.110  60.710 -53.917  1.00  0.00    -0.181 NA
HETATM    9  C   UNL     1     -42.605  60.719 -55.158  1.00  0.00     0.160 C 
HETATM   10  H   UNL     1     -41.460  56.874 -55.687  1.00  0.00     0.161 HD
ENDROOT
BRANCH   1  11
HETATM   11  C   UNL     1     -43.127  59.105 -57.080  1.00  0.00     0.261 C 
HETATM   12  N   UNL     1     -44.376  58.513 -57.071  1.00  0.00    -0.323 N 
HETATM   13  H   UNL     1     -44.827  58.468 -56.164  1.00  0.00     0.169 HD
HETATM   14  O   UNL     1     -42.466  59.385 -58.072  1.00  0.00    -0.267 OA
BRANCH  12  15
HETATM   15  C   UNL     1     -45.131  58.065 -58.172  1.00  0.00     0.035 A 
HETATM   16  C   UNL     1     -44.973  56.811 -58.768  1.00  0.00     0.039 A 
HETATM   17  C   UNL     1     -45.753  56.429 -59.874  1.00  0.00    -0.028 A 
HETATM   18  C   UNL     1     -46.696  57.333 -60.382  1.00  0.00     0.010 A 
HETATM   19  C   UNL     1     -46.870  58.580 -59.787  1.00  0.00     0.003 A 
HETATM   20  C   UNL     1     -46.093  58.942 -58.685  1.00  0.00     0.029 A 
BRANCH  17  21
HETATM   21  C   UNL     1     -45.539  55.074 -60.514  1.00  0.00     0.147 C 
HETATM   22  C   UNL     1     -44.552  54.222 -59.730  1.00  0.00     0.044 C 
BRANCH  21  23
HETATM   23  O   UNL     1     -45.061  55.224 -61.850  1.00  0.00    -0.391 OA
HETATM   24  H   UNL     1     -45.820  55.505 -62.388  1.00  0.00     0.210 HD
ENDBRANCH  21  23
ENDBRANCH  17  21
ENDBRANCH  12  15
ENDBRANCH   1  11
BRANCH   4  25
HETATM   25  C   UNL     1     -42.022  59.481 -51.233  1.00  0.00     0.409 C 
HETATM   26  F   UNL     1     -41.771  60.777 -50.957  1.00  0.00    -0.169 F 
HETATM   27  F   UNL     1     -43.360  59.322 -51.347  1.00  0.00    -0.169 F 
HETATM   28  F   UNL     1     -41.642  58.782 -50.128  1.00  0.00    -0.169 F 
ENDBRANCH   4  25
BRANCH   6  29
HETATM   29  C   UNL     1     -40.704  55.345 -53.733  1.00  0.00    -0.035 A 
HETATM   30  C   UNL     1     -40.308  54.624 -54.872  1.00  0.00     0.009 A 
HETATM   31  C   UNL     1     -40.267  53.229 -54.855  1.00  0.00     0.001 A 
HETATM   32  C   UNL     1     -40.619  52.537 -53.698  1.00  0.00     0.000 A 
HETATM   33  C   UNL     1     -41.009  53.237 -52.559  1.00  0.00     0.001 A 
HETATM   34  C   UNL     1     -41.051  54.633 -52.575  1.00  0.00     0.009 A 
ENDBRANCH   6  29
TORSDOF 6
ENDMDL
MODEL 8
REMARK VINA RESULT:      -8.4      3.010      7.823
REMARK  6 active torsions:
REMARK  status: ('A' for Active; 'I' for Inactive)
REMARK    1  A    between atoms: C_2  and  O_3 
REMARK    2  A    between atoms: C_2  and  C_4 
REMARK    3  A    between atoms: C_6  and  N_7 
REMARK       I    between atoms: N_7  and  C_8 
REMARK    4  A    between atoms: C_8  and  C_9 
REMARK    5  A    between atoms: C_12  and  C_13 
REMARK    6  A    between atoms: C_18  and  C_19 
ROOT
HETATM    1  C   UNL     1     -43.220  56.542 -52.836  1.00  0.00     0.096 C 
HETATM    2  C   UNL     1     -43.284  57.312 -53.983  1.00  0.00     0.138 C 
HETATM    3  N   UNL     1     -43.584  58.588 -53.564  1.00  0.00    -0.240 N 
HETATM    4  C   UNL     1     -43.772  59.724 -54.451  1.00  0.00     0.221 C 
HETATM    5  C   UNL     1     -43.228  59.410 -55.857  1.00  0.00     0.066 C 
HETATM    6  C   UNL     1     -43.639  57.996 -56.282  1.00  0.00     0.118 C 
HETATM    7  N   UNL     1     -43.126  57.027 -55.306  1.00  0.00    -0.365 N 
HETATM    8  N   UNL     1     -43.901  58.658 -52.262  1.00  0.00    -0.181 NA
HETATM    9  C   UNL     1     -43.645  57.426 -51.814  1.00  0.00     0.160 C 
HETATM   10  H   UNL     1     -43.312  56.068 -55.612  1.00  0.00     0.161 HD
ENDROOT
BRANCH   1  11
HETATM   11  C   UNL     1     -42.853  55.145 -52.673  1.00  0.00     0.261 C 
HETATM   12  N   UNL     1     -41.607  54.842 -53.192  1.00  0.00    -0.323 N 
HETATM   13  H   UNL     1     -41.075  55.636 -53.531  1.00  0.00     0.169 HD
HETATM   14  O   UNL     1     -43.602  54.370 -52.091  1.00  0.00    -0.267 OA
BRANCH  12  15
HETATM   15  C   UNL     1     -40.957  53.593 -53.212  1.00  0.00     0.035 A 
HETATM   16  C   UNL     1     -40.611  52.875 -52.063  1.00  0.00     0.039 A 
HETATM   17  C   UNL     1     -39.953  51.636 -52.154  1.00  0.00    -0.028 A 
HETATM   18  C   UNL     1     -39.636  51.127 -53.420  1.00  0.00     0.010 A 
HETATM   19  C   UNL     1     -39.989  51.829 -54.570  1.00  0.00     0.003 A 
HETATM   20  C   UNL     1     -40.649  53.054 -54.466  1.00  0.00     0.029 A 
BRANCH  17  21
HETATM   21  C   UNL     1     -39.567  50.896 -50.890  1.00  0.00     0.147 C 
HETATM   22  C   UNL     1     -39.734  49.391 -51.037  1.00  0.00     0.044 C 
BRANCH  21  23
HETATM   23  O   UNL     1     -40.359  51.343 -49.790  1.00  0.00    -0.391 OA
HETATM   24  H   UNL     1     -41.282  51.350 -50.096  1.00  0.00     0.210 HD
ENDBRANCH  21  23
ENDBRANCH  17  21
ENDBRANCH  12  15
ENDBRANCH   1  11
BRANCH   4  25
HETATM   25  C   UNL     1     -43.101  60.971 -53.916  1.00  0.00     0.409 C 
HETATM   26  F   UNL     1     -43.838  61.634 -53.003  1.00  0.00    -0.169 F 
HETATM   27  F   UNL     1     -41.887  60.712 -53.378  1.00  0.00    -0.169 F 
HETATM   28  F   UNL     1     -42.892  61.846 -54.938  1.00  0.00    -0.169 F 
ENDBRANCH   4  25
BRANCH   6  29
HETATM   29  C   UNL     1     -43.120  57.644 -57.662  1.00  0.00    -0.035 A 
HETATM   30  C   UNL     1     -43.286  56.357 -58.199  1.00  0.00     0.009 A 
HETATM   31  C   UNL     1     -42.792  56.044 -59.467  1.00  0.00     0.001 A 
HETATM   32  C   UNL     1     -42.129  57.014 -60.215  1.00  0.00     0.000 A 
HETATM   33  C   UNL     1     -41.961  58.298 -59.698  1.00  0.00     0.001 A 
HETATM   34  C   UNL     1     -42.454  58.611 -58.430  1.00  0.00     0.009 A 
ENDBRANCH   6  29
TORSDOF 6
ENDMDL
MODEL 9
REMARK VINA RESULT:      -8.3      4.356      8.873
REMARK  6 active torsions:
REMARK  status: ('A' for Active; 'I' for Inactive)
REMARK    1  A    between atoms: C_2  and  O_3 
REMARK    2  A    between atoms: C_2  and  C_4 
REMARK    3  A    between atoms: C_6  and  N_7 
REMARK       I    between atoms: N_7  and  C_8 
REMARK    4  A    between atoms: C_8  and  C_9 
REMARK    5  A    between atoms: C_12  and  C_13 
REMARK    6  A    between atoms: C_18  and  C_19 
ROOT
HETATM    1  C   UNL     1     -43.132  55.851 -55.637  1.00  0.00     0.096 C 
HETATM    2  C   UNL     1     -43.777  57.074 -55.642  1.00  0.00     0.138 C 
HETATM    3  N   UNL     1     -43.925  57.415 -56.968  1.00  0.00    -0.240 N 
HETATM    4  C   UNL     1     -44.536  58.648 -57.438  1.00  0.00     0.221 C 
HETATM    5  C   UNL     1     -45.323  59.331 -56.303  1.00  0.00     0.066 C 
HETATM    6  C   UNL     1     -44.516  59.293 -55.000  1.00  0.00     0.118 C 
HETATM    7  N   UNL     1     -44.222  57.897 -54.652  1.00  0.00    -0.365 N 
HETATM    8  N   UNL     1     -43.262  56.602 -57.803  1.00  0.00    -0.181 NA
HETATM    9  C   UNL     1     -42.812  55.633 -56.999  1.00  0.00     0.160 C 
HETATM   10  H   UNL     1     -43.760  57.838 -53.741  1.00  0.00     0.161 HD
ENDROOT
BRANCH   1  11
HETATM   11  C   UNL     1     -42.799  54.981 -54.520  1.00  0.00     0.261 C 
HETATM   12  N   UNL     1     -41.499  54.512 -54.560  1.00  0.00    -0.323 N 
HETATM   13  H   UNL     1     -40.921  54.901 -55.297  1.00  0.00     0.169 HD
HETATM   14  O   UNL     1     -43.624  54.754 -53.643  1.00  0.00    -0.267 OA
BRANCH  12  15
HETATM   15  C   UNL     1     -40.862  53.649 -53.648  1.00  0.00     0.035 A 
HETATM   16  C   UNL     1     -40.386  52.377 -53.979  1.00  0.00     0.039 A 
HETATM   17  C   UNL     1     -39.766  51.561 -53.016  1.00  0.00    -0.028 A 
HETATM   18  C   UNL     1     -39.636  52.039 -51.704  1.00  0.00     0.010 A 
HETATM   19  C   UNL     1     -40.095  53.310 -51.369  1.00  0.00     0.003 A 
HETATM   20  C   UNL     1     -40.701  54.112 -52.337  1.00  0.00     0.029 A 
BRANCH  17  21
HETATM   21  C   UNL     1     -39.286  50.177 -53.399  1.00  0.00     0.147 C 
HETATM   22  C   UNL     1     -39.919  49.692 -54.695  1.00  0.00     0.044 C 
BRANCH  21  23
HETATM   23  O   UNL     1     -39.583  49.243 -52.362  1.00  0.00    -0.391 OA
HETATM   24  H   UNL     1     -39.120  49.554 -51.566  1.00  0.00     0.210 HD
ENDBRANCH  21  23
ENDBRANCH  17  21
ENDBRANCH  12  15
ENDBRANCH   1  11
BRANCH   4  25
HETATM   25  C   UNL     1     -45.456  58.405 -58.615  1.00  0.00     0.409 C 
HETATM   26  F   UNL     1     -44.817  58.359 -59.801  1.00  0.00    -0.169 F 
HETATM   27  F   UNL     1     -46.180  57.271 -58.478  1.00  0.00    -0.169 F 
HETATM   28  F   UNL     1     -46.350  59.427 -58.709  1.00  0.00    -0.169 F 
ENDBRANCH   4  25
BRANCH   6  29
HETATM   29  C   UNL     1     -45.257  59.952 -53.854  1.00  0.00    -0.035 A 
HETATM   30  C   UNL     1     -45.963  61.153 -54.035  1.00  0.00     0.009 A 
HETATM   31  C   UNL     1     -46.631  61.756 -52.967  1.00  0.00     0.001 A 
HETATM   32  C   UNL     1     -46.605  61.164 -51.707  1.00  0.00     0.000 A 
HETATM   33  C   UNL     1     -45.913  59.970 -51.512  1.00  0.00     0.001 A 
HETATM   34  C   UNL     1     -45.244  59.367 -52.579  1.00  0.00     0.009 A 
ENDBRANCH   6  29
TORSDOF 6
ENDMDL
MODEL 10
REMARK VINA RESULT:      -8.3      3.391      5.960
REMARK  6 active torsions:
REMARK  status: ('A' for Active; 'I' for Inactive)
REMARK    1  A    between atoms: C_2  and  O_3 
REMARK    2  A    between atoms: C_2  and  C_4 
REMARK    3  A    between atoms: C_6  and  N_7 
REMARK       I    between atoms: N_7  and  C_8 
REMARK    4  A    between atoms: C_8  and  C_9 
REMARK    5  A    between atoms: C_12  and  C_13 
REMARK    6  A    between atoms: C_18  and  C_19 
ROOT
HETATM    1  C   UNL     1     -42.860  56.456 -56.461  1.00  0.00     0.096 C 
HETATM    2  C   UNL     1     -42.534  56.401 -55.119  1.00  0.00     0.138 C 
HETATM    3  N   UNL     1     -42.321  55.070 -54.837  1.00  0.00    -0.240 N 
HETATM    4  C   UNL     1     -41.978  54.550 -53.525  1.00  0.00     0.221 C 
HETATM    5  C   UNL     1     -41.516  55.688 -52.594  1.00  0.00     0.066 C 
HETATM    6  C   UNL     1     -42.433  56.906 -52.749  1.00  0.00     0.118 C 
HETATM    7  N   UNL     1     -42.418  57.351 -54.149  1.00  0.00    -0.365 N 
HETATM    8  N   UNL     1     -42.667  54.253 -55.844  1.00  0.00    -0.181 NA
HETATM    9  C   UNL     1     -42.959  55.095 -56.840  1.00  0.00     0.160 C 
HETATM   10  H   UNL     1     -42.954  58.215 -54.262  1.00  0.00     0.161 HD
ENDROOT
BRANCH   1  11
HETATM   11  C   UNL     1     -43.098  57.610 -57.313  1.00  0.00     0.261 C 
HETATM   12  N   UNL     1     -41.977  58.014 -58.014  1.00  0.00    -0.323 N 
HETATM   13  H   UNL     1     -41.167  57.409 -57.922  1.00  0.00     0.169 HD
HETATM   14  O   UNL     1     -44.215  58.108 -57.387  1.00  0.00    -0.267 OA
BRANCH  12  15
HETATM   15  C   UNL     1     -41.857  59.092 -58.912  1.00  0.00     0.035 A 
HETATM   16  C   UNL     1     -41.473  60.382 -58.535  1.00  0.00     0.039 A 
HETATM   17  C   UNL     1     -41.383  61.418 -59.482  1.00  0.00    -0.028 A 
HETATM   18  C   UNL     1     -41.694  61.142 -60.821  1.00  0.00     0.010 A 
HETATM   19  C   UNL     1     -42.065  59.857 -61.208  1.00  0.00     0.003 A 
HETATM   20  C   UNL     1     -42.142  58.837 -60.258  1.00  0.00     0.029 A 
BRANCH  17  21
HETATM   21  C   UNL     1     -40.990  62.811 -59.038  1.00  0.00     0.147 C 
HETATM   22  C   UNL     1     -39.554  63.146 -59.410  1.00  0.00     0.044 C 
BRANCH  21  23
HETATM   23  O   UNL     1     -41.144  62.945 -57.625  1.00  0.00    -0.391 OA
HETATM   24  H   UNL     1     -40.379  62.503 -57.219  1.00  0.00     0.210 HD
ENDBRANCH  21  23
ENDBRANCH  17  21
ENDBRANCH  12  15
ENDBRANCH   1  11
BRANCH   4  25
HETATM   25  C   UNL     1     -40.898  53.493 -53.604  1.00  0.00     0.409 C 
HETATM   26  F   UNL     1     -41.363  52.264 -53.906  1.00  0.00    -0.169 F 
HETATM   27  F   UNL     1     -39.930  53.812 -54.494  1.00  0.00    -0.169 F 
HETATM   28  F   UNL     1     -40.287  53.377 -52.393  1.00  0.00    -0.169 F 
ENDBRANCH   4  25
BRANCH   6  29
HETATM   29  C   UNL     1     -42.011  58.052 -51.852  1.00  0.00    -0.035 A 
HETATM   30  C   UNL     1     -42.901  59.087 -51.518  1.00  0.00     0.009 A 
HETATM   31  C   UNL     1     -42.494  60.142 -50.701  1.00  0.00     0.001 A 
HETATM   32  C   UNL     1     -41.193  60.176 -50.204  1.00  0.00     0.000 A 
HETATM   33  C   UNL     1     -40.299  59.155 -50.521  1.00  0.00     0.001 A 
HETATM   34  C   UNL     1     -40.705  58.099 -51.339  1.00  0.00     0.009 A 
ENDBRANCH   6  29
TORSDOF 6
ENDMDL
