MODEL 1
REMARK VINA RESULT:      -8.6      0.000      0.000
REMARK  5 active torsions:
REMARK  status: ('A' for Active; 'I' for Inactive)
REMARK    1  A    between atoms: C_5  and  O_6 
REMARK    2  A    between atoms: O_6  and  C_7 
REMARK    3  A    between atoms: C_7  and  C_8 
REMARK       I    between atoms: C_8  and  N_9 
REMARK    4  A    between atoms: N_9  and  N_10 
REMARK    5  A    between atoms: C_11  and  C_12 
ROOT
HETATM    1  C   UNL     1     -42.785  55.963 -55.845  1.00  0.00     0.261 C 
HETATM    2  N   UNL     1     -41.715  55.083 -55.926  1.00  0.00    -0.246 N 
HETATM    3  O   UNL     1     -43.628  55.976 -54.949  1.00  0.00    -0.269 OA
HETATM    4  H   UNL     1     -41.038  55.187 -56.676  1.00  0.00     0.192 HD
ENDROOT
BRANCH   2   5
HETATM    5  N   UNL     1     -41.539  54.146 -54.951  1.00  0.00    -0.184 NA
HETATM    6  C   UNL     1     -40.661  54.414 -54.042  1.00  0.00     0.153 C 
BRANCH   6   7
HETATM    7  C   UNL     1     -40.419  53.460 -52.973  1.00  0.00     0.018 A 
HETATM    8  C   UNL     1     -40.080  52.068 -53.073  1.00  0.00     0.004 A 
HETATM    9  C   UNL     1     -39.947  51.574 -51.776  1.00  0.00     0.043 A 
HETATM   10  C   UNL     1     -39.877  51.172 -54.146  1.00  0.00     0.014 A 
HETATM   11  C   UNL     1     -39.623  50.240 -51.496  1.00  0.00     0.030 A 
HETATM   12  N   UNL     1     -40.187  52.620 -50.919  1.00  0.00    -0.358 N 
HETATM   13  C   UNL     1     -39.430  49.378 -52.579  1.00  0.00     0.002 A 
HETATM   14  C   UNL     1     -39.555  49.835 -53.887  1.00  0.00     0.001 A 
HETATM   15  H   UNL     1     -40.151  52.544 -49.912  1.00  0.00     0.166 HD
HETATM   16  C   UNL     1     -40.475  53.767 -51.619  1.00  0.00     0.018 A 
HETATM   17  C   UNL     1     -40.753  55.045 -50.914  1.00  0.00     0.069 C 
ENDBRANCH   6   7
ENDBRANCH   2   5
BRANCH   1  18
HETATM   18  C   UNL     1     -42.905  56.877 -57.058  1.00  0.00     0.280 C 
BRANCH  18  19
HETATM   19  O   UNL     1     -42.828  56.134 -58.278  1.00  0.00    -0.342 OA
BRANCH  19  20
HETATM   20  C   UNL     1     -43.988  56.247 -58.999  1.00  0.00     0.069 A 
HETATM   21  C   UNL     1     -44.227  55.300 -59.991  1.00  0.00     0.037 A 
HETATM   22  C   UNL     1     -45.395  55.369 -60.756  1.00  0.00     0.009 A 
HETATM   23  C   UNL     1     -46.341  56.373 -60.515  1.00  0.00    -0.062 A 
HETATM   24  C   UNL     1     -47.587  56.476 -61.345  1.00  0.00     0.048 C 
HETATM   25  C   UNL     1     -46.100  57.307 -59.498  1.00  0.00     0.009 A 
HETATM   26  C   UNL     1     -44.933  57.239 -58.735  1.00  0.00     0.037 A 
ENDBRANCH  19  20
ENDBRANCH  18  19
ENDBRANCH   1  18
TORSDOF 5
ENDMDL
MODEL 2
REMARK VINA RESULT:      -8.0      1.261      1.826
REMARK  5 active torsions:
REMARK  status: ('A' for Active; 'I' for Inactive)
REMARK    1  A    between atoms: C_5  and  O_6 
REMARK    2  A    between atoms: O_6  and  C_7 
REMARK    3  A    between atoms: C_7  and  C_8 
REMARK       I    between atoms: C_8  and  N_9 
REMARK    4  A    between atoms: N_9  and  N_10 
REMARK    5  A    between atoms: C_11  and  C_12 
ROOT
HETATM    1  C   UNL     1     -43.018  56.332 -57.081  1.00  0.00     0.261 C 
HETATM    2  N   UNL     1     -43.067  54.974 -56.798  1.00  0.00    -0.246 N 
HETATM    3  O   UNL     1     -42.677  57.211 -56.292  1.00  0.00    -0.269 OA
HETATM    4  H   UNL     1     -43.309  54.318 -57.534  1.00  0.00     0.192 HD
ENDROOT
BRANCH   2   5
HETATM    5  N   UNL     1     -42.707  54.532 -55.559  1.00  0.00    -0.184 NA
HETATM    6  C   UNL     1     -41.447  54.326 -55.361  1.00  0.00     0.153 C 
BRANCH   6   7
HETATM    7  C   UNL     1     -40.991  53.852 -54.066  1.00  0.00     0.018 A 
HETATM    8  C   UNL     1     -40.511  52.547 -53.706  1.00  0.00     0.004 A 
HETATM    9  C   UNL     1     -40.191  52.577 -52.349  1.00  0.00     0.043 A 
HETATM   10  C   UNL     1     -40.321  51.335 -54.405  1.00  0.00     0.014 A 
HETATM   11  C   UNL     1     -39.692  51.465 -51.658  1.00  0.00     0.030 A 
HETATM   12  N   UNL     1     -40.457  53.846 -51.899  1.00  0.00    -0.358 N 
HETATM   13  C   UNL     1     -39.517  50.279 -52.376  1.00  0.00     0.002 A 
HETATM   14  C   UNL     1     -39.825  50.212 -53.732  1.00  0.00     0.001 A 
HETATM   15  H   UNL     1     -40.309  54.150 -50.946  1.00  0.00     0.166 HD
HETATM   16  C   UNL     1     -40.942  54.633 -52.916  1.00  0.00     0.018 A 
HETATM   17  C   UNL     1     -41.287  56.059 -52.684  1.00  0.00     0.069 C 
ENDBRANCH   6   7
ENDBRANCH   2   5
BRANCH   1  18
HETATM   18  C   UNL     1     -43.549  56.676 -58.468  1.00  0.00     0.280 C 
BRANCH  18  19
HETATM   19  O   UNL     1     -44.586  57.658 -58.398  1.00  0.00    -0.342 OA
BRANCH  19  20
HETATM   20  C   UNL     1     -45.558  57.416 -59.334  1.00  0.00     0.069 A 
HETATM   21  C   UNL     1     -46.339  58.493 -59.746  1.00  0.00     0.037 A 
HETATM   22  C   UNL     1     -47.344  58.302 -60.699  1.00  0.00     0.009 A 
HETATM   23  C   UNL     1     -47.557  57.037 -61.261  1.00  0.00    -0.062 A 
HETATM   24  C   UNL     1     -48.649  56.811 -62.265  1.00  0.00     0.048 C 
HETATM   25  C   UNL     1     -46.749  55.967 -60.855  1.00  0.00     0.009 A 
HETATM   26  C   UNL     1     -45.746  56.157 -59.903  1.00  0.00     0.037 A 
ENDBRANCH  19  20
ENDBRANCH  18  19
ENDBRANCH   1  18
TORSDOF 5
ENDMDL
MODEL 3
REMARK VINA RESULT:      -8.0      0.993      2.752
REMARK  5 active torsions:
REMARK  status: ('A' for Active; 'I' for Inactive)
REMARK    1  A    between atoms: C_5  and  O_6 
REMARK    2  A    between atoms: O_6  and  C_7 
REMARK    3  A    between atoms: C_7  and  C_8 
REMARK       I    between atoms: C_8  and  N_9 
REMARK    4  A    between atoms: N_9  and  N_10 
REMARK    5  A    between atoms: C_11  and  C_12 
ROOT
HETATM    1  C   UNL     1     -42.335  56.664 -55.907  1.00  0.00     0.261 C 
HETATM    2  N   UNL     1     -41.204  55.866 -55.811  1.00  0.00    -0.246 N 
HETATM    3  O   UNL     1     -43.062  56.984 -54.967  1.00  0.00    -0.269 OA
HETATM    4  H   UNL     1     -40.637  55.702 -56.637  1.00  0.00     0.192 HD
ENDROOT
BRANCH   2   5
HETATM    5  N   UNL     1     -40.824  55.382 -54.594  1.00  0.00    -0.184 NA
HETATM    6  C   UNL     1     -41.076  54.137 -54.360  1.00  0.00     0.153 C 
BRANCH   6   7
HETATM    7  C   UNL     1     -40.701  53.555 -53.084  1.00  0.00     0.018 A 
HETATM    8  C   UNL     1     -40.833  54.116 -51.768  1.00  0.00     0.004 A 
HETATM    9  C   UNL     1     -40.335  53.181 -50.861  1.00  0.00     0.043 A 
HETATM   10  C   UNL     1     -41.326  55.337 -51.257  1.00  0.00     0.014 A 
HETATM   11  C   UNL     1     -40.305  53.401 -49.478  1.00  0.00     0.030 A 
HETATM   12  N   UNL     1     -39.922  52.092 -51.589  1.00  0.00    -0.358 N 
HETATM   13  C   UNL     1     -40.798  54.619 -49.003  1.00  0.00     0.002 A 
HETATM   14  C   UNL     1     -41.303  55.576 -49.878  1.00  0.00     0.001 A 
HETATM   15  H   UNL     1     -39.523  51.258 -51.180  1.00  0.00     0.166 HD
HETATM   16  C   UNL     1     -40.132  52.295 -52.932  1.00  0.00     0.018 A 
HETATM   17  C   UNL     1     -39.784  51.250 -53.928  1.00  0.00     0.069 C 
ENDBRANCH   6   7
ENDBRANCH   2   5
BRANCH   1  18
HETATM   18  C   UNL     1     -42.688  57.037 -57.342  1.00  0.00     0.280 C 
BRANCH  18  19
HETATM   19  O   UNL     1     -42.952  55.873 -58.131  1.00  0.00    -0.342 OA
BRANCH  19  20
HETATM   20  C   UNL     1     -44.072  56.045 -58.903  1.00  0.00     0.069 A 
HETATM   21  C   UNL     1     -44.301  55.122 -59.920  1.00  0.00     0.037 A 
HETATM   22  C   UNL     1     -45.428  55.251 -60.738  1.00  0.00     0.009 A 
HETATM   23  C   UNL     1     -46.343  56.290 -60.525  1.00  0.00    -0.062 A 
HETATM   24  C   UNL     1     -47.544  56.456 -61.411  1.00  0.00     0.048 C 
HETATM   25  C   UNL     1     -46.113  57.198 -59.484  1.00  0.00     0.009 A 
HETATM   26  C   UNL     1     -44.987  57.071 -58.668  1.00  0.00     0.037 A 
ENDBRANCH  19  20
ENDBRANCH  18  19
ENDBRANCH   1  18
TORSDOF 5
ENDMDL
MODEL 4
REMARK VINA RESULT:      -8.0      2.357      3.014
REMARK  5 active torsions:
REMARK  status: ('A' for Active; 'I' for Inactive)
REMARK    1  A    between atoms: C_5  and  O_6 
REMARK    2  A    between atoms: O_6  and  C_7 
REMARK    3  A    between atoms: C_7  and  C_8 
REMARK       I    between atoms: C_8  and  N_9 
REMARK    4  A    between atoms: N_9  and  N_10 
REMARK    5  A    between atoms: C_11  and  C_12 
ROOT
HETATM    1  C   UNL     1     -42.539  55.594 -56.398  1.00  0.00     0.261 C 
HETATM    2  N   UNL     1     -41.403  55.849 -55.641  1.00  0.00    -0.246 N 
HETATM    3  O   UNL     1     -43.130  54.516 -56.451  1.00  0.00    -0.269 OA
HETATM    4  H   UNL     1     -41.019  56.789 -55.619  1.00  0.00     0.192 HD
ENDROOT
BRANCH   2   5
HETATM    5  N   UNL     1     -40.871  54.858 -54.871  1.00  0.00    -0.184 NA
HETATM    6  C   UNL     1     -41.270  54.799 -53.644  1.00  0.00     0.153 C 
BRANCH   6   7
HETATM    7  C   UNL     1     -40.744  53.771 -52.764  1.00  0.00     0.018 A 
HETATM    8  C   UNL     1     -40.383  52.417 -53.081  1.00  0.00     0.004 A 
HETATM    9  C   UNL     1     -39.927  51.818 -51.907  1.00  0.00     0.043 A 
HETATM   10  C   UNL     1     -40.404  51.637 -54.258  1.00  0.00     0.014 A 
HETATM   11  C   UNL     1     -39.493  50.488 -51.848  1.00  0.00     0.030 A 
HETATM   12  N   UNL     1     -40.000  52.765 -50.916  1.00  0.00    -0.358 N 
HETATM   13  C   UNL     1     -39.527  49.740 -53.029  1.00  0.00     0.002 A 
HETATM   14  C   UNL     1     -39.975  50.304 -54.219  1.00  0.00     0.001 A 
HETATM   15  H   UNL     1     -39.723  52.602 -49.958  1.00  0.00     0.166 HD
HETATM   16  C   UNL     1     -40.490  53.951 -51.409  1.00  0.00     0.018 A 
HETATM   17  C   UNL     1     -40.645  55.140 -50.532  1.00  0.00     0.069 C 
ENDBRANCH   6   7
ENDBRANCH   2   5
BRANCH   1  18
HETATM   18  C   UNL     1     -42.948  56.766 -57.281  1.00  0.00     0.280 C 
BRANCH  18  19
HETATM   19  O   UNL     1     -42.334  57.983 -56.848  1.00  0.00    -0.342 OA
BRANCH  19  20
HETATM   20  C   UNL     1     -42.142  58.840 -57.900  1.00  0.00     0.069 A 
HETATM   21  C   UNL     1     -42.417  58.363 -59.179  1.00  0.00     0.037 A 
HETATM   22  C   UNL     1     -42.238  59.196 -60.288  1.00  0.00     0.009 A 
HETATM   23  C   UNL     1     -41.807  60.518 -60.119  1.00  0.00    -0.062 A 
HETATM   24  C   UNL     1     -41.587  61.416 -61.301  1.00  0.00     0.048 C 
HETATM   25  C   UNL     1     -41.557  60.993 -58.824  1.00  0.00     0.009 A 
HETATM   26  C   UNL     1     -41.734  60.161 -57.717  1.00  0.00     0.037 A 
ENDBRANCH  19  20
ENDBRANCH  18  19
ENDBRANCH   1  18
TORSDOF 5
ENDMDL
MODEL 5
REMARK VINA RESULT:      -7.9      2.325      8.880
REMARK  5 active torsions:
REMARK  status: ('A' for Active; 'I' for Inactive)
REMARK    1  A    between atoms: C_5  and  O_6 
REMARK    2  A    between atoms: O_6  and  C_7 
REMARK    3  A    between atoms: C_7  and  C_8 
REMARK       I    between atoms: C_8  and  N_9 
REMARK    4  A    between atoms: N_9  and  N_10 
REMARK    5  A    between atoms: C_11  and  C_12 
ROOT
HETATM    1  C   UNL     1     -42.681  56.176 -53.761  1.00  0.00     0.261 C 
HETATM    2  N   UNL     1     -43.155  55.516 -54.887  1.00  0.00    -0.246 N 
HETATM    3  O   UNL     1     -42.446  57.381 -53.689  1.00  0.00    -0.269 OA
HETATM    4  H   UNL     1     -43.372  54.526 -54.831  1.00  0.00     0.192 HD
ENDROOT
BRANCH   2   5
HETATM    5  N   UNL     1     -43.403  56.224 -56.025  1.00  0.00    -0.184 NA
HETATM    6  C   UNL     1     -42.904  55.754 -57.120  1.00  0.00     0.153 C 
BRANCH   6   7
HETATM    7  C   UNL     1     -43.125  56.457 -58.372  1.00  0.00     0.018 A 
HETATM    8  C   UNL     1     -42.728  57.789 -58.736  1.00  0.00     0.004 A 
HETATM    9  C   UNL     1     -43.166  58.016 -60.040  1.00  0.00     0.043 A 
HETATM   10  C   UNL     1     -42.039  58.831 -58.078  1.00  0.00     0.014 A 
HETATM   11  C   UNL     1     -42.951  59.223 -60.718  1.00  0.00     0.030 A 
HETATM   12  N   UNL     1     -43.798  56.871 -60.459  1.00  0.00    -0.358 N 
HETATM   13  C   UNL     1     -42.268  60.236 -60.039  1.00  0.00     0.002 A 
HETATM   14  C   UNL     1     -41.816  60.046 -58.737  1.00  0.00     0.001 A 
HETATM   15  H   UNL     1     -44.208  56.756 -61.376  1.00  0.00     0.166 HD
HETATM   16  C   UNL     1     -43.786  55.918 -59.469  1.00  0.00     0.018 A 
HETATM   17  C   UNL     1     -44.394  54.579 -59.687  1.00  0.00     0.069 C 
ENDBRANCH   6   7
ENDBRANCH   2   5
BRANCH   1  18
HETATM   18  C   UNL     1     -42.354  55.235 -52.607  1.00  0.00     0.280 C 
BRANCH  18  19
HETATM   19  O   UNL     1     -40.941  55.053 -52.470  1.00  0.00    -0.342 OA
BRANCH  19  20
HETATM   20  C   UNL     1     -40.571  53.783 -52.831  1.00  0.00     0.069 A 
HETATM   21  C   UNL     1     -40.146  52.924 -51.820  1.00  0.00     0.037 A 
HETATM   22  C   UNL     1     -39.757  51.618 -52.132  1.00  0.00     0.009 A 
HETATM   23  C   UNL     1     -39.814  51.159 -53.454  1.00  0.00    -0.062 A 
HETATM   24  C   UNL     1     -39.375  49.768 -53.809  1.00  0.00     0.048 C 
HETATM   25  C   UNL     1     -40.265  52.026 -54.458  1.00  0.00     0.009 A 
HETATM   26  C   UNL     1     -40.652  53.331 -54.147  1.00  0.00     0.037 A 
ENDBRANCH  19  20
ENDBRANCH  18  19
ENDBRANCH   1  18
TORSDOF 5
ENDMDL
MODEL 6
REMARK VINA RESULT:      -7.8      2.489      3.155
REMARK  5 active torsions:
REMARK  status: ('A' for Active; 'I' for Inactive)
REMARK    1  A    between atoms: C_5  and  O_6 
REMARK    2  A    between atoms: O_6  and  C_7 
REMARK    3  A    between atoms: C_7  and  C_8 
REMARK       I    between atoms: C_8  and  N_9 
REMARK    4  A    between atoms: N_9  and  N_10 
REMARK    5  A    between atoms: C_11  and  C_12 
ROOT
HETATM    1  C   UNL     1     -41.305  58.814 -53.947  1.00  0.00     0.261 C 
HETATM    2  N   UNL     1     -41.811  57.523 -53.885  1.00  0.00    -0.246 N 
HETATM    3  O   UNL     1     -40.244  59.187 -53.447  1.00  0.00    -0.269 OA
HETATM    4  H   UNL     1     -42.670  57.300 -54.378  1.00  0.00     0.192 HD
ENDROOT
BRANCH   2   5
HETATM    5  N   UNL     1     -41.105  56.555 -53.235  1.00  0.00    -0.184 NA
HETATM    6  C   UNL     1     -41.717  55.437 -53.022  1.00  0.00     0.153 C 
BRANCH   6   7
HETATM    7  C   UNL     1     -41.028  54.360 -52.332  1.00  0.00     0.018 A 
HETATM    8  C   UNL     1     -40.623  53.081 -52.845  1.00  0.00     0.004 A 
HETATM    9  C   UNL     1     -39.997  52.392 -51.806  1.00  0.00     0.043 A 
HETATM   10  C   UNL     1     -40.732  52.435 -54.096  1.00  0.00     0.014 A 
HETATM   11  C   UNL     1     -39.476  51.099 -51.952  1.00  0.00     0.030 A 
HETATM   12  N   UNL     1     -40.012  53.216 -50.708  1.00  0.00    -0.358 N 
HETATM   13  C   UNL     1     -39.601  50.486 -53.202  1.00  0.00     0.002 A 
HETATM   14  C   UNL     1     -40.220  51.143 -54.262  1.00  0.00     0.001 A 
HETATM   15  H   UNL     1     -39.616  52.968 -49.811  1.00  0.00     0.166 HD
HETATM   16  C   UNL     1     -40.630  54.408 -51.001  1.00  0.00     0.018 A 
HETATM   17  C   UNL     1     -40.755  55.478 -49.978  1.00  0.00     0.069 C 
ENDBRANCH   6   7
ENDBRANCH   2   5
BRANCH   1  18
HETATM   18  C   UNL     1     -42.255  59.802 -54.614  1.00  0.00     0.280 C 
BRANCH  18  19
HETATM   19  O   UNL     1     -41.712  60.298 -55.841  1.00  0.00    -0.342 OA
BRANCH  19  20
HETATM   20  C   UNL     1     -42.291  59.683 -56.920  1.00  0.00     0.069 A 
HETATM   21  C   UNL     1     -43.529  59.075 -56.729  1.00  0.00     0.037 A 
HETATM   22  C   UNL     1     -44.164  58.433 -57.796  1.00  0.00     0.009 A 
HETATM   23  C   UNL     1     -43.574  58.418 -59.066  1.00  0.00    -0.062 A 
HETATM   24  C   UNL     1     -44.231  57.712 -60.216  1.00  0.00     0.048 C 
HETATM   25  C   UNL     1     -42.339  59.054 -59.251  1.00  0.00     0.009 A 
HETATM   26  C   UNL     1     -41.704  59.693 -58.185  1.00  0.00     0.037 A 
ENDBRANCH  19  20
ENDBRANCH  18  19
ENDBRANCH   1  18
TORSDOF 5
ENDMDL
MODEL 7
REMARK VINA RESULT:      -7.7      4.804      6.181
REMARK  5 active torsions:
REMARK  status: ('A' for Active; 'I' for Inactive)
REMARK    1  A    between atoms: C_5  and  O_6 
REMARK    2  A    between atoms: O_6  and  C_7 
REMARK    3  A    between atoms: C_7  and  C_8 
REMARK       I    between atoms: C_8  and  N_9 
REMARK    4  A    between atoms: N_9  and  N_10 
REMARK    5  A    between atoms: C_11  and  C_12 
ROOT
HETATM    1  C   UNL     1     -43.755  56.739 -51.883  1.00  0.00     0.261 C 
HETATM    2  N   UNL     1     -43.072  55.942 -52.792  1.00  0.00    -0.246 N 
HETATM    3  O   UNL     1     -44.011  56.431 -50.720  1.00  0.00    -0.269 OA
HETATM    4  H   UNL     1     -42.860  56.307 -53.715  1.00  0.00     0.192 HD
ENDROOT
BRANCH   2   5
HETATM    5  N   UNL     1     -42.620  54.715 -52.404  1.00  0.00    -0.184 NA
HETATM    6  C   UNL     1     -41.344  54.591 -52.247  1.00  0.00     0.153 C 
BRANCH   6   7
HETATM    7  C   UNL     1     -40.790  53.312 -51.838  1.00  0.00     0.018 A 
HETATM    8  C   UNL     1     -40.418  52.192 -52.656  1.00  0.00     0.004 A 
HETATM    9  C   UNL     1     -39.936  51.195 -51.809  1.00  0.00     0.043 A 
HETATM   10  C   UNL     1     -40.448  51.926 -54.043  1.00  0.00     0.014 A 
HETATM   11  C   UNL     1     -39.484  49.953 -52.273  1.00  0.00     0.030 A 
HETATM   12  N   UNL     1     -40.004  51.685 -50.529  1.00  0.00    -0.358 N 
HETATM   13  C   UNL     1     -39.529  49.718 -53.651  1.00  0.00     0.002 A 
HETATM   14  C   UNL     1     -40.003  50.690 -54.526  1.00  0.00     0.001 A 
HETATM   15  H   UNL     1     -39.709  51.169 -49.711  1.00  0.00     0.166 HD
HETATM   16  C   UNL     1     -40.517  52.960 -50.521  1.00  0.00     0.018 A 
HETATM   17  C   UNL     1     -40.672  53.716 -49.251  1.00  0.00     0.069 C 
ENDBRANCH   6   7
ENDBRANCH   2   5
BRANCH   1  18
HETATM   18  C   UNL     1     -44.285  58.030 -52.496  1.00  0.00     0.280 C 
BRANCH  18  19
HETATM   19  O   UNL     1     -43.266  58.710 -53.235  1.00  0.00    -0.342 OA
BRANCH  19  20
HETATM   20  C   UNL     1     -42.185  58.991 -52.441  1.00  0.00     0.069 A 
HETATM   21  C   UNL     1     -40.921  58.705 -52.948  1.00  0.00     0.037 A 
HETATM   22  C   UNL     1     -39.783  58.971 -52.180  1.00  0.00     0.009 A 
HETATM   23  C   UNL     1     -39.906  59.548 -50.909  1.00  0.00    -0.062 A 
HETATM   24  C   UNL     1     -38.697  59.817 -50.062  1.00  0.00     0.048 C 
HETATM   25  C   UNL     1     -41.183  59.854 -50.420  1.00  0.00     0.009 A 
HETATM   26  C   UNL     1     -42.319  59.586 -51.186  1.00  0.00     0.037 A 
ENDBRANCH  19  20
ENDBRANCH  18  19
ENDBRANCH   1  18
TORSDOF 5
ENDMDL
MODEL 8
REMARK VINA RESULT:      -7.6      1.370      1.923
REMARK  5 active torsions:
REMARK  status: ('A' for Active; 'I' for Inactive)
REMARK    1  A    between atoms: C_5  and  O_6 
REMARK    2  A    between atoms: O_6  and  C_7 
REMARK    3  A    between atoms: C_7  and  C_8 
REMARK       I    between atoms: C_8  and  N_9 
REMARK    4  A    between atoms: N_9  and  N_10 
REMARK    5  A    between atoms: C_11  and  C_12 
ROOT
HETATM    1  C   UNL     1     -42.270  57.291 -54.663  1.00  0.00     0.261 C 
HETATM    2  N   UNL     1     -42.503  55.941 -54.886  1.00  0.00    -0.246 N 
HETATM    3  O   UNL     1     -41.798  57.770 -53.633  1.00  0.00    -0.269 OA
HETATM    4  H   UNL     1     -42.845  55.636 -55.793  1.00  0.00     0.192 HD
ENDROOT
BRANCH   2   5
HETATM    5  N   UNL     1     -42.189  55.034 -53.917  1.00  0.00    -0.184 NA
HETATM    6  C   UNL     1     -41.002  54.528 -53.960  1.00  0.00     0.153 C 
BRANCH   6   7
HETATM    7  C   UNL     1     -40.598  53.554 -52.961  1.00  0.00     0.018 A 
HETATM    8  C   UNL     1     -40.237  52.176 -53.146  1.00  0.00     0.004 A 
HETATM    9  C   UNL     1     -39.926  51.652 -51.892  1.00  0.00     0.043 A 
HETATM   10  C   UNL     1     -40.147  51.317 -54.264  1.00  0.00     0.014 A 
HETATM   11  C   UNL     1     -39.531  50.322 -51.697  1.00  0.00     0.030 A 
HETATM   12  N   UNL     1     -40.084  52.666 -50.980  1.00  0.00    -0.358 N 
HETATM   13  C   UNL     1     -39.454  49.495 -52.822  1.00  0.00     0.002 A 
HETATM   14  C   UNL     1     -39.757  49.984 -54.089  1.00  0.00     0.001 A 
HETATM   15  H   UNL     1     -39.917  52.564 -49.988  1.00  0.00     0.166 HD
HETATM   16  C   UNL     1     -40.490  53.822 -51.601  1.00  0.00     0.018 A 
HETATM   17  C   UNL     1     -40.712  55.071 -50.828  1.00  0.00     0.069 C 
ENDBRANCH   6   7
ENDBRANCH   2   5
BRANCH   1  18
HETATM   18  C   UNL     1     -42.769  58.182 -55.794  1.00  0.00     0.280 C 
BRANCH  18  19
HETATM   19  O   UNL     1     -44.176  58.417 -55.687  1.00  0.00    -0.342 OA
BRANCH  19  20
HETATM   20  C   UNL     1     -44.829  58.029 -56.829  1.00  0.00     0.069 A 
HETATM   21  C   UNL     1     -46.178  58.356 -56.942  1.00  0.00     0.037 A 
HETATM   22  C   UNL     1     -46.892  57.984 -58.086  1.00  0.00     0.009 A 
HETATM   23  C   UNL     1     -46.253  57.304 -59.130  1.00  0.00    -0.062 A 
HETATM   24  C   UNL     1     -47.011  56.876 -60.352  1.00  0.00     0.048 C 
HETATM   25  C   UNL     1     -44.889  57.003 -59.013  1.00  0.00     0.009 A 
HETATM   26  C   UNL     1     -44.177  57.372 -57.871  1.00  0.00     0.037 A 
ENDBRANCH  19  20
ENDBRANCH  18  19
ENDBRANCH   1  18
TORSDOF 5
ENDMDL
MODEL 9
REMARK VINA RESULT:      -7.6      5.532      7.839
REMARK  5 active torsions:
REMARK  status: ('A' for Active; 'I' for Inactive)
REMARK    1  A    between atoms: C_5  and  O_6 
REMARK    2  A    between atoms: O_6  and  C_7 
REMARK    3  A    between atoms: C_7  and  C_8 
REMARK       I    between atoms: C_8  and  N_9 
REMARK    4  A    between atoms: N_9  and  N_10 
REMARK    5  A    between atoms: C_11  and  C_12 
ROOT
HETATM    1  C   UNL     1     -44.407  57.807 -51.022  1.00  0.00     0.261 C 
HETATM    2  N   UNL     1     -43.173  57.569 -51.610  1.00  0.00    -0.246 N 
HETATM    3  O   UNL     1     -45.144  56.947 -50.543  1.00  0.00    -0.269 OA
HETATM    4  H   UNL     1     -42.611  58.353 -51.928  1.00  0.00     0.192 HD
ENDROOT
BRANCH   2   5
HETATM    5  N   UNL     1     -42.694  56.293 -51.676  1.00  0.00    -0.184 NA
HETATM    6  C   UNL     1     -41.553  56.073 -51.111  1.00  0.00     0.153 C 
BRANCH   6   7
HETATM    7  C   UNL     1     -40.980  54.739 -51.143  1.00  0.00     0.018 A 
HETATM    8  C   UNL     1     -40.658  53.928 -52.284  1.00  0.00     0.004 A 
HETATM    9  C   UNL     1     -40.131  52.728 -51.811  1.00  0.00     0.043 A 
HETATM   10  C   UNL     1     -40.769  54.097 -53.682  1.00  0.00     0.014 A 
HETATM   11  C   UNL     1     -39.709  51.693 -52.656  1.00  0.00     0.030 A 
HETATM   12  N   UNL     1     -40.124  52.802 -50.440  1.00  0.00    -0.358 N 
HETATM   13  C   UNL     1     -39.833  51.889 -54.035  1.00  0.00     0.002 A 
HETATM   14  C   UNL     1     -40.355  53.075 -54.543  1.00  0.00     0.001 A 
HETATM   15  H   UNL     1     -39.784  52.066 -49.836  1.00  0.00     0.166 HD
HETATM   16  C   UNL     1     -40.632  54.006 -50.014  1.00  0.00     0.018 A 
HETATM   17  C   UNL     1     -40.713  54.336 -48.568  1.00  0.00     0.069 C 
ENDBRANCH   6   7
ENDBRANCH   2   5
BRANCH   1  18
HETATM   18  C   UNL     1     -44.848  59.263 -51.120  1.00  0.00     0.280 C 
BRANCH  18  19
HETATM   19  O   UNL     1     -45.766  59.599 -50.075  1.00  0.00    -0.342 OA
BRANCH  19  20
HETATM   20  C   UNL     1     -45.436  60.796 -49.496  1.00  0.00     0.069 A 
HETATM   21  C   UNL     1     -45.224  61.883 -50.340  1.00  0.00     0.037 A 
HETATM   22  C   UNL     1     -44.885  63.129 -49.802  1.00  0.00     0.009 A 
HETATM   23  C   UNL     1     -44.781  63.297 -48.415  1.00  0.00    -0.062 A 
HETATM   24  C   UNL     1     -44.393  64.621 -47.824  1.00  0.00     0.048 C 
HETATM   25  C   UNL     1     -45.020  62.201 -47.576  1.00  0.00     0.009 A 
HETATM   26  C   UNL     1     -45.357  60.957 -48.113  1.00  0.00     0.037 A 
ENDBRANCH  19  20
ENDBRANCH  18  19
ENDBRANCH   1  18
TORSDOF 5
ENDMDL
MODEL 10
REMARK VINA RESULT:      -7.4      5.078      6.577
REMARK  5 active torsions:
REMARK  status: ('A' for Active; 'I' for Inactive)
REMARK    1  A    between atoms: C_5  and  O_6 
REMARK    2  A    between atoms: O_6  and  C_7 
REMARK    3  A    between atoms: C_7  and  C_8 
REMARK       I    between atoms: C_8  and  N_9 
REMARK    4  A    between atoms: N_9  and  N_10 
REMARK    5  A    between atoms: C_11  and  C_12 
ROOT
HETATM    1  C   UNL     1     -41.182  59.036 -53.065  1.00  0.00     0.261 C 
HETATM    2  N   UNL     1     -41.872  57.868 -52.771  1.00  0.00    -0.246 N 
HETATM    3  O   UNL     1     -39.959  59.137 -53.150  1.00  0.00    -0.269 OA
HETATM    4  H   UNL     1     -42.887  57.873 -52.779  1.00  0.00     0.192 HD
ENDROOT
BRANCH   2   5
HETATM    5  N   UNL     1     -41.179  56.713 -52.559  1.00  0.00    -0.184 NA
HETATM    6  C   UNL     1     -41.751  55.822 -51.820  1.00  0.00     0.153 C 
BRANCH   6   7
HETATM    7  C   UNL     1     -41.071  54.567 -51.549  1.00  0.00     0.018 A 
HETATM    8  C   UNL     1     -40.659  53.551 -52.477  1.00  0.00     0.004 A 
HETATM    9  C   UNL     1     -40.047  52.536 -51.743  1.00  0.00     0.043 A 
HETATM   10  C   UNL     1     -40.752  53.393 -53.877  1.00  0.00     0.014 A 
HETATM   11  C   UNL     1     -39.524  51.377 -52.332  1.00  0.00     0.030 A 
HETATM   12  N   UNL     1     -40.076  52.917 -50.424  1.00  0.00    -0.358 N 
HETATM   13  C   UNL     1     -39.633  51.248 -53.720  1.00  0.00     0.002 A 
HETATM   14  C   UNL     1     -40.238  52.241 -54.484  1.00  0.00     0.001 A 
HETATM   15  H   UNL     1     -39.691  52.366 -49.669  1.00  0.00     0.166 HD
HETATM   16  C   UNL     1     -40.690  54.138 -50.283  1.00  0.00     0.018 A 
HETATM   17  C   UNL     1     -40.829  54.776 -48.948  1.00  0.00     0.069 C 
ENDBRANCH   6   7
ENDBRANCH   2   5
BRANCH   1  18
HETATM   18  C   UNL     1     -42.087  60.258 -53.171  1.00  0.00     0.280 C 
BRANCH  18  19
HETATM   19  O   UNL     1     -43.464  59.899 -53.029  1.00  0.00    -0.342 OA
BRANCH  19  20
HETATM   20  C   UNL     1     -44.029  60.526 -51.949  1.00  0.00     0.069 A 
HETATM   21  C   UNL     1     -43.213  60.772 -50.847  1.00  0.00     0.037 A 
HETATM   22  C   UNL     1     -43.738  61.408 -49.719  1.00  0.00     0.009 A 
HETATM   23  C   UNL     1     -45.075  61.823 -49.697  1.00  0.00    -0.062 A 
HETATM   24  C   UNL     1     -45.660  62.485 -48.483  1.00  0.00     0.048 C 
HETATM   25  C   UNL     1     -45.879  61.591 -50.821  1.00  0.00     0.009 A 
HETATM   26  C   UNL     1     -45.356  60.954 -51.947  1.00  0.00     0.037 A 
ENDBRANCH  19  20
ENDBRANCH  18  19
ENDBRANCH   1  18
TORSDOF 5
ENDMDL
