MODEL 1
REMARK VINA RESULT:      -8.0      0.000      0.000
REMARK  4 active torsions:
REMARK  status: ('A' for Active; 'I' for Inactive)
REMARK    1  A    between atoms: N_6  and  N_7 
REMARK       I    between atoms: N_7  and  C_8 
REMARK    2  A    between atoms: C_8  and  C_9 
REMARK    3  A    between atoms: C_10  and  O_11 
REMARK    4  A    between atoms: C_14  and  N_15 
ROOT
HETATM    1  N   UNL     1     -40.880  54.413 -55.373  1.00  0.00    -0.242 N 
HETATM    2  C   UNL     1     -42.180  54.805 -55.638  1.00  0.00     0.274 C 
HETATM    3  O   UNL     1     -43.185  54.108 -55.519  1.00  0.00    -0.266 OA
HETATM    4  H   UNL     1     -40.114  55.064 -55.473  1.00  0.00     0.192 HD
ENDROOT
BRANCH   1   5
HETATM    5  N   UNL     1     -40.592  53.117 -55.088  1.00  0.00    -0.166 NA
HETATM    6  C   UNL     1     -40.406  52.774 -53.852  1.00  0.00     0.157 A 
HETATM    7  C   UNL     1     -39.869  51.378 -53.482  1.00  0.00     0.279 A 
HETATM    8  C   UNL     1     -40.600  53.482 -52.578  1.00  0.00     0.029 A 
HETATM    9  N   UNL     1     -39.713  51.402 -52.108  1.00  0.00    -0.316 N 
HETATM   10  O   UNL     1     -39.625  50.485 -54.265  1.00  0.00    -0.265 OA
HETATM   11  C   UNL     1     -39.238  50.290 -51.328  1.00  0.00     0.159 C 
HETATM   12  C   UNL     1     -40.147  52.621 -51.573  1.00  0.00     0.050 A 
HETATM   13  C   UNL     1     -40.189  52.989 -50.237  1.00  0.00     0.032 A 
HETATM   14  C   UNL     1     -40.716  54.245 -49.919  1.00  0.00     0.026 A 
HETATM   15  C   UNL     1     -41.206  55.088 -50.929  1.00  0.00     0.035 A 
HETATM   16  C   UNL     1     -41.165  54.711 -52.273  1.00  0.00     0.040 A 
HETATM   17 CL   UNL     1     -41.876  56.615 -50.503  1.00  0.00    -0.084 Cl
ENDBRANCH   1   5
BRANCH   2  18
HETATM   18  C   UNL     1     -42.355  56.239 -55.987  1.00  0.00     0.068 A 
HETATM   19  C   UNL     1     -43.131  56.580 -57.101  1.00  0.00     0.081 A 
HETATM   20  C   UNL     1     -43.414  57.913 -57.376  1.00  0.00     0.039 A 
HETATM   21  C   UNL     1     -42.890  58.917 -56.558  1.00  0.00     0.026 A 
HETATM   22  C   UNL     1     -42.026  58.602 -55.505  1.00  0.00     0.006 A 
HETATM   23  C   UNL     1     -41.797  57.258 -55.199  1.00  0.00     0.043 A 
BRANCH  19  24
HETATM   24  O   UNL     1     -43.674  55.651 -57.948  1.00  0.00    -0.360 OA
HETATM   25  H   UNL     1     -44.061  56.131 -58.716  1.00  0.00     0.217 HD
ENDBRANCH  19  24
BRANCH  22  26
HETATM   26  N   UNL     1     -41.594  59.603 -54.625  1.00  0.00    -0.303 NA
HETATM   27  H   UNL     1     -41.670  60.542 -55.007  1.00  0.00     0.124 HD
HETATM   28  H   UNL     1     -40.678  59.437 -54.220  1.00  0.00     0.124 HD
ENDBRANCH  22  26
ENDBRANCH   2  18
TORSDOF 4
ENDMDL
MODEL 2
REMARK VINA RESULT:      -8.0      4.098      4.961
REMARK  4 active torsions:
REMARK  status: ('A' for Active; 'I' for Inactive)
REMARK    1  A    between atoms: N_6  and  N_7 
REMARK       I    between atoms: N_7  and  C_8 
REMARK    2  A    between atoms: C_8  and  C_9 
REMARK    3  A    between atoms: C_10  and  O_11 
REMARK    4  A    between atoms: C_14  and  N_15 
ROOT
HETATM    1  N   UNL     1     -42.653  57.187 -50.872  1.00  0.00    -0.242 N 
HETATM    2  C   UNL     1     -44.026  57.031 -50.931  1.00  0.00     0.274 C 
HETATM    3  O   UNL     1     -44.673  56.116 -50.426  1.00  0.00    -0.266 OA
HETATM    4  H   UNL     1     -42.206  57.988 -51.294  1.00  0.00     0.192 HD
ENDROOT
BRANCH   1   5
HETATM    5  N   UNL     1     -41.866  56.211 -50.349  1.00  0.00    -0.166 NA
HETATM    6  C   UNL     1     -41.374  55.312 -51.142  1.00  0.00     0.157 A 
HETATM    7  C   UNL     1     -40.658  54.065 -50.589  1.00  0.00     0.279 A 
HETATM    8  C   UNL     1     -41.339  55.181 -52.607  1.00  0.00     0.029 A 
HETATM    9  N   UNL     1     -40.354  53.298 -51.700  1.00  0.00    -0.316 N 
HETATM   10  O   UNL     1     -40.448  53.833 -49.418  1.00  0.00    -0.265 OA
HETATM   11  C   UNL     1     -39.665  52.036 -51.649  1.00  0.00     0.159 C 
HETATM   12  C   UNL     1     -40.739  53.947 -52.880  1.00  0.00     0.050 A 
HETATM   13  C   UNL     1     -40.553  53.511 -54.182  1.00  0.00     0.032 A 
HETATM   14  C   UNL     1     -40.968  54.350 -55.221  1.00  0.00     0.026 A 
HETATM   15  C   UNL     1     -41.534  55.604 -54.941  1.00  0.00     0.035 A 
HETATM   16  C   UNL     1     -41.715  56.041 -53.626  1.00  0.00     0.040 A 
HETATM   17 CL   UNL     1     -42.007  56.627 -56.241  1.00  0.00    -0.084 Cl
ENDBRANCH   1   5
BRANCH   2  18
HETATM   18  C   UNL     1     -44.768  58.147 -51.573  1.00  0.00     0.068 A 
HETATM   19  C   UNL     1     -45.573  58.975 -50.782  1.00  0.00     0.081 A 
HETATM   20  C   UNL     1     -46.177  60.099 -51.335  1.00  0.00     0.039 A 
HETATM   21  C   UNL     1     -46.008  60.381 -52.693  1.00  0.00     0.026 A 
HETATM   22  C   UNL     1     -45.296  59.509 -53.520  1.00  0.00     0.006 A 
HETATM   23  C   UNL     1     -44.643  58.414 -52.946  1.00  0.00     0.043 A 
BRANCH  19  24
HETATM   24  O   UNL     1     -45.786  58.759 -49.448  1.00  0.00    -0.360 OA
HETATM   25  H   UNL     1     -45.069  59.214 -48.949  1.00  0.00     0.217 HD
ENDBRANCH  19  24
BRANCH  22  26
HETATM   26  N   UNL     1     -45.040  59.854 -54.853  1.00  0.00    -0.303 NA
HETATM   27  H   UNL     1     -45.007  59.056 -55.482  1.00  0.00     0.124 HD
HETATM   28  H   UNL     1     -44.238  60.464 -54.981  1.00  0.00     0.124 HD
ENDBRANCH  22  26
ENDBRANCH   2  18
TORSDOF 4
ENDMDL
MODEL 3
REMARK VINA RESULT:      -7.7      3.862      4.811
REMARK  4 active torsions:
REMARK  status: ('A' for Active; 'I' for Inactive)
REMARK    1  A    between atoms: N_6  and  N_7 
REMARK       I    between atoms: N_7  and  C_8 
REMARK    2  A    between atoms: C_8  and  C_9 
REMARK    3  A    between atoms: C_10  and  O_11 
REMARK    4  A    between atoms: C_14  and  N_15 
ROOT
HETATM    1  N   UNL     1     -41.947  57.081 -50.578  1.00  0.00    -0.242 N 
HETATM    2  C   UNL     1     -41.134  58.148 -50.920  1.00  0.00     0.274 C 
HETATM    3  O   UNL     1     -39.938  58.260 -50.659  1.00  0.00    -0.266 OA
HETATM    4  H   UNL     1     -42.916  57.060 -50.858  1.00  0.00     0.192 HD
ENDROOT
BRANCH   1   5
HETATM    5  N   UNL     1     -41.491  56.098 -49.759  1.00  0.00    -0.166 NA
HETATM    6  C   UNL     1     -41.160  54.956 -50.276  1.00  0.00     0.157 A 
HETATM    7  C   UNL     1     -40.843  53.738 -49.388  1.00  0.00     0.279 A 
HETATM    8  C   UNL     1     -41.006  54.494 -51.664  1.00  0.00     0.029 A 
HETATM    9  N   UNL     1     -40.627  52.693 -50.268  1.00  0.00    -0.316 N 
HETATM   10  O   UNL     1     -40.822  53.735 -48.176  1.00  0.00    -0.265 OA
HETATM   11  C   UNL     1     -40.287  51.354 -49.867  1.00  0.00     0.159 C 
HETATM   12  C   UNL     1     -40.709  53.129 -51.597  1.00  0.00     0.050 A 
HETATM   13  C   UNL     1     -40.503  52.380 -52.745  1.00  0.00     0.032 A 
HETATM   14  C   UNL     1     -40.582  53.034 -53.978  1.00  0.00     0.026 A 
HETATM   15  C   UNL     1     -40.840  54.413 -54.037  1.00  0.00     0.035 A 
HETATM   16  C   UNL     1     -41.044  55.164 -52.877  1.00  0.00     0.040 A 
HETATM   17 CL   UNL     1     -40.902  55.196 -55.568  1.00  0.00    -0.084 Cl
ENDBRANCH   1   5
BRANCH   2  18
HETATM   18  C   UNL     1     -41.768  59.182 -51.778  1.00  0.00     0.068 A 
HETATM   19  C   UNL     1     -42.556  60.174 -51.181  1.00  0.00     0.081 A 
HETATM   20  C   UNL     1     -43.056  61.223 -51.943  1.00  0.00     0.039 A 
HETATM   21  C   UNL     1     -42.801  61.268 -53.316  1.00  0.00     0.026 A 
HETATM   22  C   UNL     1     -42.107  60.232 -53.948  1.00  0.00     0.006 A 
HETATM   23  C   UNL     1     -41.556  59.213 -53.165  1.00  0.00     0.043 A 
BRANCH  19  24
HETATM   24  O   UNL     1     -42.849  60.193 -49.844  1.00  0.00    -0.360 OA
HETATM   25  H   UNL     1     -42.503  61.035 -49.470  1.00  0.00     0.217 HD
ENDBRANCH  19  24
BRANCH  22  26
HETATM   26  N   UNL     1     -41.762  60.338 -55.301  1.00  0.00    -0.303 NA
HETATM   27  H   UNL     1     -40.921  60.886 -55.466  1.00  0.00     0.124 HD
HETATM   28  H   UNL     1     -42.524  60.632 -55.905  1.00  0.00     0.124 HD
ENDBRANCH  22  26
ENDBRANCH   2  18
TORSDOF 4
ENDMDL
MODEL 4
REMARK VINA RESULT:      -7.6      4.045      7.729
REMARK  4 active torsions:
REMARK  status: ('A' for Active; 'I' for Inactive)
REMARK    1  A    between atoms: N_6  and  N_7 
REMARK       I    between atoms: N_7  and  C_8 
REMARK    2  A    between atoms: C_8  and  C_9 
REMARK    3  A    between atoms: C_10  and  O_11 
REMARK    4  A    between atoms: C_14  and  N_15 
ROOT
HETATM    1  N   UNL     1     -43.616  55.473 -50.886  1.00  0.00    -0.242 N 
HETATM    2  C   UNL     1     -42.278  55.551 -50.543  1.00  0.00     0.274 C 
HETATM    3  O   UNL     1     -41.758  56.422 -49.849  1.00  0.00    -0.266 OA
HETATM    4  H   UNL     1     -43.962  54.704 -51.441  1.00  0.00     0.192 HD
ENDROOT
BRANCH   1   5
HETATM    5  N   UNL     1     -44.469  56.486 -50.584  1.00  0.00    -0.166 NA
HETATM    6  C   UNL     1     -44.732  57.374 -51.490  1.00  0.00     0.157 A 
HETATM    7  C   UNL     1     -45.514  58.657 -51.149  1.00  0.00     0.279 A 
HETATM    8  C   UNL     1     -44.420  57.462 -52.925  1.00  0.00     0.029 A 
HETATM    9  N   UNL     1     -45.524  59.397 -52.317  1.00  0.00    -0.316 N 
HETATM   10  O   UNL     1     -45.984  58.930 -50.065  1.00  0.00    -0.265 OA
HETATM   11  C   UNL     1     -46.163  60.679 -52.458  1.00  0.00     0.159 C 
HETATM   12  C   UNL     1     -44.898  58.703 -53.359  1.00  0.00     0.050 A 
HETATM   13  C   UNL     1     -44.760  59.104 -54.679  1.00  0.00     0.032 A 
HETATM   14  C   UNL     1     -44.143  58.223 -55.572  1.00  0.00     0.026 A 
HETATM   15  C   UNL     1     -43.701  56.963 -55.139  1.00  0.00     0.035 A 
HETATM   16  C   UNL     1     -43.846  56.561 -53.809  1.00  0.00     0.040 A 
HETATM   17 CL   UNL     1     -42.973  55.889 -56.268  1.00  0.00    -0.084 Cl
ENDBRANCH   1   5
BRANCH   2  18
HETATM   18  C   UNL     1     -41.440  54.403 -50.976  1.00  0.00     0.068 A 
HETATM   19  C   UNL     1     -40.938  53.523 -50.011  1.00  0.00     0.081 A 
HETATM   20  C   UNL     1     -40.259  52.373 -50.397  1.00  0.00     0.039 A 
HETATM   21  C   UNL     1     -40.045  52.115 -51.754  1.00  0.00     0.026 A 
HETATM   22  C   UNL     1     -40.446  53.034 -52.727  1.00  0.00     0.006 A 
HETATM   23  C   UNL     1     -41.181  54.157 -52.334  1.00  0.00     0.043 A 
BRANCH  19  24
HETATM   24  O   UNL     1     -41.105  53.713 -48.666  1.00  0.00    -0.360 OA
HETATM   25  H   UNL     1     -40.259  53.478 -48.219  1.00  0.00     0.217 HD
ENDBRANCH  19  24
BRANCH  22  26
HETATM   26  N   UNL     1     -40.327  52.718 -54.086  1.00  0.00    -0.303 NA
HETATM   27  H   UNL     1     -39.572  53.212 -54.555  1.00  0.00     0.124 HD
HETATM   28  H   UNL     1     -41.196  52.781 -54.609  1.00  0.00     0.124 HD
ENDBRANCH  22  26
ENDBRANCH   2  18
TORSDOF 4
ENDMDL
MODEL 5
REMARK VINA RESULT:      -7.6      1.761      6.608
REMARK  4 active torsions:
REMARK  status: ('A' for Active; 'I' for Inactive)
REMARK    1  A    between atoms: N_6  and  N_7 
REMARK       I    between atoms: N_7  and  C_8 
REMARK    2  A    between atoms: C_8  and  C_9 
REMARK    3  A    between atoms: C_10  and  O_11 
REMARK    4  A    between atoms: C_14  and  N_15 
ROOT
HETATM    1  N   UNL     1     -42.203  54.261 -54.732  1.00  0.00    -0.242 N 
HETATM    2  C   UNL     1     -40.931  53.812 -54.420  1.00  0.00     0.274 C 
HETATM    3  O   UNL     1     -39.938  53.895 -55.139  1.00  0.00    -0.266 OA
HETATM    4  H   UNL     1     -42.957  54.176 -54.067  1.00  0.00     0.192 HD
ENDROOT
BRANCH   1   5
HETATM    5  N   UNL     1     -42.490  54.718 -55.978  1.00  0.00    -0.166 NA
HETATM    6  C   UNL     1     -42.535  55.997 -56.181  1.00  0.00     0.157 A 
HETATM    7  C   UNL     1     -43.062  56.578 -57.507  1.00  0.00     0.279 A 
HETATM    8  C   UNL     1     -42.169  57.155 -55.351  1.00  0.00     0.029 A 
HETATM    9  N   UNL     1     -43.050  57.951 -57.333  1.00  0.00    -0.316 N 
HETATM   10  O   UNL     1     -43.423  55.932 -58.467  1.00  0.00    -0.265 OA
HETATM   11  C   UNL     1     -43.457  58.898 -58.336  1.00  0.00     0.159 C 
HETATM   12  C   UNL     1     -42.521  58.295 -56.082  1.00  0.00     0.050 A 
HETATM   13  C   UNL     1     -42.307  59.567 -55.577  1.00  0.00     0.032 A 
HETATM   14  C   UNL     1     -41.711  59.682 -54.318  1.00  0.00     0.026 A 
HETATM   15  C   UNL     1     -41.324  58.536 -53.606  1.00  0.00     0.035 A 
HETATM   16  C   UNL     1     -41.538  57.255 -54.121  1.00  0.00     0.040 A 
HETATM   17 CL   UNL     1     -40.565  58.710 -52.071  1.00  0.00    -0.084 Cl
ENDBRANCH   1   5
BRANCH   2  18
HETATM   18  C   UNL     1     -40.760  53.289 -53.040  1.00  0.00     0.068 A 
HETATM   19  C   UNL     1     -39.997  52.133 -52.838  1.00  0.00     0.081 A 
HETATM   20  C   UNL     1     -39.718  51.695 -51.549  1.00  0.00     0.039 A 
HETATM   21  C   UNL     1     -40.232  52.390 -50.452  1.00  0.00     0.026 A 
HETATM   22  C   UNL     1     -41.083  53.484 -50.635  1.00  0.00     0.006 A 
HETATM   23  C   UNL     1     -41.310  53.954 -51.932  1.00  0.00     0.043 A 
BRANCH  19  24
HETATM   24  O   UNL     1     -39.465  51.400 -53.864  1.00  0.00    -0.360 OA
HETATM   25  H   UNL     1     -39.643  50.448 -53.681  1.00  0.00     0.217 HD
ENDBRANCH  19  24
BRANCH  22  26
HETATM   26  N   UNL     1     -41.505  54.240 -49.534  1.00  0.00    -0.303 NA
HETATM   27  H   UNL     1     -41.949  55.118 -49.789  1.00  0.00     0.124 HD
HETATM   28  H   UNL     1     -40.794  54.374 -48.821  1.00  0.00     0.124 HD
ENDBRANCH  22  26
ENDBRANCH   2  18
TORSDOF 4
ENDMDL
MODEL 6
REMARK VINA RESULT:      -7.5      3.951      4.839
REMARK  4 active torsions:
REMARK  status: ('A' for Active; 'I' for Inactive)
REMARK    1  A    between atoms: N_6  and  N_7 
REMARK       I    between atoms: N_7  and  C_8 
REMARK    2  A    between atoms: C_8  and  C_9 
REMARK    3  A    between atoms: C_10  and  O_11 
REMARK    4  A    between atoms: C_14  and  N_15 
ROOT
HETATM    1  N   UNL     1     -41.810  57.334 -50.525  1.00  0.00    -0.242 N 
HETATM    2  C   UNL     1     -41.096  58.465 -50.878  1.00  0.00     0.274 C 
HETATM    3  O   UNL     1     -39.875  58.598 -50.824  1.00  0.00    -0.266 OA
HETATM    4  H   UNL     1     -42.814  57.304 -50.629  1.00  0.00     0.192 HD
ENDROOT
BRANCH   1   5
HETATM    5  N   UNL     1     -41.192  56.284 -49.925  1.00  0.00    -0.166 NA
HETATM    6  C   UNL     1     -40.975  55.208 -50.613  1.00  0.00     0.157 A 
HETATM    7  C   UNL     1     -40.477  53.915 -49.940  1.00  0.00     0.279 A 
HETATM    8  C   UNL     1     -41.112  54.891 -52.043  1.00  0.00     0.029 A 
HETATM    9  N   UNL     1     -40.448  52.968 -50.948  1.00  0.00    -0.316 N 
HETATM   10  O   UNL     1     -40.204  53.791 -48.765  1.00  0.00    -0.265 OA
HETATM   11  C   UNL     1     -40.029  51.604 -50.766  1.00  0.00     0.159 C 
HETATM   12  C   UNL     1     -40.806  53.532 -52.179  1.00  0.00     0.050 A 
HETATM   13  C   UNL     1     -40.843  52.907 -53.415  1.00  0.00     0.032 A 
HETATM   14  C   UNL     1     -41.178  53.679 -54.531  1.00  0.00     0.026 A 
HETATM   15  C   UNL     1     -41.446  55.051 -54.394  1.00  0.00     0.035 A 
HETATM   16  C   UNL     1     -41.404  55.677 -53.147  1.00  0.00     0.040 A 
HETATM   17 CL   UNL     1     -41.826  55.981 -55.791  1.00  0.00    -0.084 Cl
ENDBRANCH   1   5
BRANCH   2  18
HETATM   18  C   UNL     1     -41.897  59.563 -51.480  1.00  0.00     0.068 A 
HETATM   19  C   UNL     1     -41.680  59.912 -52.818  1.00  0.00     0.081 A 
HETATM   20  C   UNL     1     -42.500  60.847 -53.439  1.00  0.00     0.039 A 
HETATM   21  C   UNL     1     -43.520  61.467 -52.714  1.00  0.00     0.026 A 
HETATM   22  C   UNL     1     -43.685  61.210 -51.350  1.00  0.00     0.006 A 
HETATM   23  C   UNL     1     -42.896  60.225 -50.748  1.00  0.00     0.043 A 
BRANCH  19  24
HETATM   24  O   UNL     1     -40.698  59.350 -53.588  1.00  0.00    -0.360 OA
HETATM   25  H   UNL     1     -40.792  58.371 -53.532  1.00  0.00     0.217 HD
ENDBRANCH  19  24
BRANCH  22  26
HETATM   26  N   UNL     1     -44.776  61.751 -50.658  1.00  0.00    -0.303 NA
HETATM   27  H   UNL     1     -45.627  61.800 -51.213  1.00  0.00     0.124 HD
HETATM   28  H   UNL     1     -44.582  62.633 -50.193  1.00  0.00     0.124 HD
ENDBRANCH  22  26
ENDBRANCH   2  18
TORSDOF 4
ENDMDL
MODEL 7
REMARK VINA RESULT:      -7.5     14.407     15.665
REMARK  4 active torsions:
REMARK  status: ('A' for Active; 'I' for Inactive)
REMARK    1  A    between atoms: N_6  and  N_7 
REMARK       I    between atoms: N_7  and  C_8 
REMARK    2  A    between atoms: C_8  and  C_9 
REMARK    3  A    between atoms: C_10  and  O_11 
REMARK    4  A    between atoms: C_14  and  N_15 
ROOT
HETATM    1  N   UNL     1     -36.462  41.639 -55.599  1.00  0.00    -0.242 N 
HETATM    2  C   UNL     1     -37.627  41.279 -56.254  1.00  0.00     0.274 C 
HETATM    3  O   UNL     1     -38.733  41.139 -55.739  1.00  0.00    -0.266 OA
HETATM    4  H   UNL     1     -35.599  41.757 -56.109  1.00  0.00     0.192 HD
ENDROOT
BRANCH   1   5
HETATM    5  N   UNL     1     -36.428  41.725 -54.244  1.00  0.00    -0.166 NA
HETATM    6  C   UNL     1     -35.415  41.223 -53.610  1.00  0.00     0.157 A 
HETATM    7  C   UNL     1     -35.417  41.097 -52.075  1.00  0.00     0.279 A 
HETATM    8  C   UNL     1     -34.124  40.680 -54.058  1.00  0.00     0.029 A 
HETATM    9  N   UNL     1     -34.236  40.446 -51.763  1.00  0.00    -0.316 N 
HETATM   10  O   UNL     1     -36.298  41.479 -51.336  1.00  0.00    -0.265 OA
HETATM   11  C   UNL     1     -33.818  40.125 -50.424  1.00  0.00     0.159 C 
HETATM   12  C   UNL     1     -33.473  40.209 -52.913  1.00  0.00     0.050 A 
HETATM   13  C   UNL     1     -32.218  39.627 -52.988  1.00  0.00     0.032 A 
HETATM   14  C   UNL     1     -31.609  39.538 -54.243  1.00  0.00     0.026 A 
HETATM   15  C   UNL     1     -32.250  40.048 -55.383  1.00  0.00     0.035 A 
HETATM   16  C   UNL     1     -33.514  40.638 -55.302  1.00  0.00     0.040 A 
HETATM   17 CL   UNL     1     -31.463  39.951 -56.910  1.00  0.00    -0.084 Cl
ENDBRANCH   1   5
BRANCH   2  18
HETATM   18  C   UNL     1     -37.518  41.169 -57.732  1.00  0.00     0.068 A 
HETATM   19  C   UNL     1     -37.722  39.925 -58.341  1.00  0.00     0.081 A 
HETATM   20  C   UNL     1     -37.751  39.819 -59.726  1.00  0.00     0.039 A 
HETATM   21  C   UNL     1     -37.539  40.953 -60.514  1.00  0.00     0.026 A 
HETATM   22  C   UNL     1     -37.229  42.183 -59.926  1.00  0.00     0.006 A 
HETATM   23  C   UNL     1     -37.262  42.293 -58.533  1.00  0.00     0.043 A 
BRANCH  19  24
HETATM   24  O   UNL     1     -37.932  38.772 -57.633  1.00  0.00    -0.360 OA
HETATM   25  H   UNL     1     -38.046  38.037 -58.279  1.00  0.00     0.217 HD
ENDBRANCH  19  24
BRANCH  22  26
HETATM   26  N   UNL     1     -37.126  43.335 -60.716  1.00  0.00    -0.303 NA
HETATM   27  H   UNL     1     -37.731  44.094 -60.412  1.00  0.00     0.124 HD
HETATM   28  H   UNL     1     -37.212  43.167 -61.714  1.00  0.00     0.124 HD
ENDBRANCH  22  26
ENDBRANCH   2  18
TORSDOF 4
ENDMDL
MODEL 8
REMARK VINA RESULT:      -7.4      3.730      4.504
REMARK  4 active torsions:
REMARK  status: ('A' for Active; 'I' for Inactive)
REMARK    1  A    between atoms: N_6  and  N_7 
REMARK       I    between atoms: N_7  and  C_8 
REMARK    2  A    between atoms: C_8  and  C_9 
REMARK    3  A    between atoms: C_10  and  O_11 
REMARK    4  A    between atoms: C_14  and  N_15 
ROOT
HETATM    1  N   UNL     1     -42.271  56.608 -50.733  1.00  0.00    -0.242 N 
HETATM    2  C   UNL     1     -43.625  56.634 -51.020  1.00  0.00     0.274 C 
HETATM    3  O   UNL     1     -44.496  55.969 -50.464  1.00  0.00    -0.266 OA
HETATM    4  H   UNL     1     -41.628  57.211 -51.224  1.00  0.00     0.192 HD
ENDROOT
BRANCH   1   5
HETATM    5  N   UNL     1     -41.764  55.691 -49.869  1.00  0.00    -0.166 NA
HETATM    6  C   UNL     1     -41.291  54.581 -50.342  1.00  0.00     0.157 A 
HETATM    7  C   UNL     1     -40.902  53.417 -49.410  1.00  0.00     0.279 A 
HETATM    8  C   UNL     1     -41.014  54.113 -51.708  1.00  0.00     0.029 A 
HETATM    9  N   UNL     1     -40.532  52.385 -50.253  1.00  0.00    -0.316 N 
HETATM   10  O   UNL     1     -40.948  53.437 -48.199  1.00  0.00    -0.265 OA
HETATM   11  C   UNL     1     -40.081  51.095 -49.804  1.00  0.00     0.159 C 
HETATM   12  C   UNL     1     -40.585  52.786 -51.594  1.00  0.00     0.050 A 
HETATM   13  C   UNL     1     -40.241  52.043 -52.712  1.00  0.00     0.032 A 
HETATM   14  C   UNL     1     -40.317  52.664 -53.962  1.00  0.00     0.026 A 
HETATM   15  C   UNL     1     -40.710  54.008 -54.067  1.00  0.00     0.035 A 
HETATM   16  C   UNL     1     -41.052  54.754 -52.937  1.00  0.00     0.040 A 
HETATM   17 CL   UNL     1     -40.765  54.754 -55.616  1.00  0.00    -0.084 Cl
ENDBRANCH   1   5
BRANCH   2  18
HETATM   18  C   UNL     1     -44.045  57.650 -52.020  1.00  0.00     0.068 A 
HETATM   19  C   UNL     1     -43.840  59.007 -51.742  1.00  0.00     0.081 A 
HETATM   20  C   UNL     1     -44.107  59.968 -52.709  1.00  0.00     0.039 A 
HETATM   21  C   UNL     1     -44.618  59.581 -53.951  1.00  0.00     0.026 A 
HETATM   22  C   UNL     1     -44.930  58.243 -54.209  1.00  0.00     0.006 A 
HETATM   23  C   UNL     1     -44.601  57.276 -53.254  1.00  0.00     0.043 A 
BRANCH  19  24
HETATM   24  O   UNL     1     -43.346  59.459 -50.548  1.00  0.00    -0.360 OA
HETATM   25  H   UNL     1     -43.648  58.842 -49.842  1.00  0.00     0.217 HD
ENDBRANCH  19  24
BRANCH  22  26
HETATM   26  N   UNL     1     -45.337  57.849 -55.490  1.00  0.00    -0.303 NA
HETATM   27  H   UNL     1     -44.577  57.507 -56.072  1.00  0.00     0.124 HD
HETATM   28  H   UNL     1     -45.903  58.537 -55.979  1.00  0.00     0.124 HD
ENDBRANCH  22  26
ENDBRANCH   2  18
TORSDOF 4
ENDMDL
MODEL 9
REMARK VINA RESULT:      -7.1      2.174      6.802
REMARK  4 active torsions:
REMARK  status: ('A' for Active; 'I' for Inactive)
REMARK    1  A    between atoms: N_6  and  N_7 
REMARK       I    between atoms: N_7  and  C_8 
REMARK    2  A    between atoms: C_8  and  C_9 
REMARK    3  A    between atoms: C_10  and  O_11 
REMARK    4  A    between atoms: C_14  and  N_15 
ROOT
HETATM    1  N   UNL     1     -41.893  54.372 -54.869  1.00  0.00    -0.242 N 
HETATM    2  C   UNL     1     -40.590  54.048 -54.535  1.00  0.00     0.274 C 
HETATM    3  O   UNL     1     -39.586  54.313 -55.194  1.00  0.00    -0.266 OA
HETATM    4  H   UNL     1     -42.657  54.138 -54.252  1.00  0.00     0.192 HD
ENDROOT
BRANCH   1   5
HETATM    5  N   UNL     1     -42.185  54.905 -56.083  1.00  0.00    -0.166 NA
HETATM    6  C   UNL     1     -42.979  55.928 -56.144  1.00  0.00     0.157 A 
HETATM    7  C   UNL     1     -43.517  56.443 -57.492  1.00  0.00     0.279 A 
HETATM    8  C   UNL     1     -43.556  56.808 -55.116  1.00  0.00     0.029 A 
HETATM    9  N   UNL     1     -44.389  57.468 -57.167  1.00  0.00    -0.316 N 
HETATM   10  O   UNL     1     -43.230  56.000 -58.583  1.00  0.00    -0.265 OA
HETATM   11  C   UNL     1     -45.118  58.247 -58.132  1.00  0.00     0.159 C 
HETATM   12  C   UNL     1     -44.409  57.693 -55.785  1.00  0.00     0.050 A 
HETATM   13  C   UNL     1     -45.120  58.663 -55.098  1.00  0.00     0.032 A 
HETATM   14  C   UNL     1     -44.948  58.746 -53.713  1.00  0.00     0.026 A 
HETATM   15  C   UNL     1     -44.062  57.881 -53.052  1.00  0.00     0.035 A 
HETATM   16  C   UNL     1     -43.344  56.906 -53.750  1.00  0.00     0.040 A 
HETATM   17 CL   UNL     1     -43.849  58.026 -51.351  1.00  0.00    -0.084 Cl
ENDBRANCH   1   5
BRANCH   2  18
HETATM   18  C   UNL     1     -40.410  53.424 -53.199  1.00  0.00     0.068 A 
HETATM   19  C   UNL     1     -40.753  54.152 -52.054  1.00  0.00     0.081 A 
HETATM   20  C   UNL     1     -40.714  53.548 -50.803  1.00  0.00     0.039 A 
HETATM   21  C   UNL     1     -40.294  52.221 -50.685  1.00  0.00     0.026 A 
HETATM   22  C   UNL     1     -39.847  51.511 -51.802  1.00  0.00     0.006 A 
HETATM   23  C   UNL     1     -39.947  52.105 -53.064  1.00  0.00     0.043 A 
BRANCH  19  24
HETATM   24  O   UNL     1     -41.169  55.455 -52.093  1.00  0.00    -0.360 OA
HETATM   25  H   UNL     1     -42.147  55.465 -51.972  1.00  0.00     0.217 HD
ENDBRANCH  19  24
BRANCH  22  26
HETATM   26  N   UNL     1     -39.533  50.150 -51.693  1.00  0.00    -0.303 NA
HETATM   27  H   UNL     1     -38.654  49.972 -51.213  1.00  0.00     0.124 HD
HETATM   28  H   UNL     1     -39.592  49.636 -52.567  1.00  0.00     0.124 HD
ENDBRANCH  22  26
ENDBRANCH   2  18
TORSDOF 4
ENDMDL
MODEL 10
REMARK VINA RESULT:      -7.1      3.699      4.575
REMARK  4 active torsions:
REMARK  status: ('A' for Active; 'I' for Inactive)
REMARK    1  A    between atoms: N_6  and  N_7 
REMARK       I    between atoms: N_7  and  C_8 
REMARK    2  A    between atoms: C_8  and  C_9 
REMARK    3  A    between atoms: C_10  and  O_11 
REMARK    4  A    between atoms: C_14  and  N_15 
ROOT
HETATM    1  N   UNL     1     -43.519  56.792 -52.730  1.00  0.00    -0.242 N 
HETATM    2  C   UNL     1     -42.933  58.030 -52.928  1.00  0.00     0.274 C 
HETATM    3  O   UNL     1     -42.352  58.401 -53.946  1.00  0.00    -0.266 OA
HETATM    4  H   UNL     1     -44.002  56.582 -51.868  1.00  0.00     0.192 HD
ENDROOT
BRANCH   1   5
HETATM    5  N   UNL     1     -43.358  55.796 -53.639  1.00  0.00    -0.166 NA
HETATM    6  C   UNL     1     -42.530  54.835 -53.375  1.00  0.00     0.157 A 
HETATM    7  C   UNL     1     -42.142  53.797 -54.445  1.00  0.00     0.279 A 
HETATM    8  C   UNL     1     -41.784  54.463 -52.163  1.00  0.00     0.029 A 
HETATM    9  N   UNL     1     -41.188  52.996 -53.845  1.00  0.00    -0.316 N 
HETATM   10  O   UNL     1     -42.587  53.745 -55.572  1.00  0.00    -0.265 OA
HETATM   11  C   UNL     1     -40.549  51.877 -54.487  1.00  0.00     0.159 C 
HETATM   12  C   UNL     1     -40.981  53.371 -52.512  1.00  0.00     0.050 A 
HETATM   13  C   UNL     1     -40.142  52.772 -51.586  1.00  0.00     0.032 A 
HETATM   14  C   UNL     1     -40.132  53.279 -50.283  1.00  0.00     0.026 A 
HETATM   15  C   UNL     1     -40.969  54.349 -49.930  1.00  0.00     0.035 A 
HETATM   16  C   UNL     1     -41.816  54.948 -50.865  1.00  0.00     0.040 A 
HETATM   17 CL   UNL     1     -40.957  54.932 -48.311  1.00  0.00    -0.084 Cl
ENDBRANCH   1   5
BRANCH   2  18
HETATM   18  C   UNL     1     -43.141  59.016 -51.836  1.00  0.00     0.068 A 
HETATM   19  C   UNL     1     -42.058  59.787 -51.398  1.00  0.00     0.081 A 
HETATM   20  C   UNL     1     -42.251  60.802 -50.468  1.00  0.00     0.039 A 
HETATM   21  C   UNL     1     -43.525  61.027 -49.941  1.00  0.00     0.026 A 
HETATM   22  C   UNL     1     -44.598  60.199 -50.286  1.00  0.00     0.006 A 
HETATM   23  C   UNL     1     -44.408  59.221 -51.266  1.00  0.00     0.043 A 
BRANCH  19  24
HETATM   24  O   UNL     1     -40.783  59.620 -51.867  1.00  0.00    -0.360 OA
HETATM   25  H   UNL     1     -40.651  60.247 -52.616  1.00  0.00     0.217 HD
ENDBRANCH  19  24
BRANCH  22  26
HETATM   26  N   UNL     1     -45.891  60.499 -49.839  1.00  0.00    -0.303 NA
HETATM   27  H   UNL     1     -46.582  59.798 -50.092  1.00  0.00     0.124 HD
HETATM   28  H   UNL     1     -46.207  61.436 -50.070  1.00  0.00     0.124 HD
ENDBRANCH  22  26
ENDBRANCH   2  18
TORSDOF 4
ENDMDL
