MODEL 1
REMARK VINA RESULT:      -8.3      0.000      0.000
REMARK  10 active torsions:
REMARK  status: ('A' for Active; 'I' for Inactive)
REMARK    1  A    between atoms: O_2  and  C_3 
REMARK    2  A    between atoms: C_6  and  C_7 
REMARK    3  A    between atoms: C_7  and  C_8 
REMARK    4  A    between atoms: C_8  and  N_9 
REMARK    5  A    between atoms: N_12  and  C_13 
REMARK    6  A    between atoms: C_16  and  O_17 
REMARK    7  A    between atoms: C_23  and  C_24 
REMARK    8  A    between atoms: C_24  and  C_25 
REMARK       I    between atoms: C_25  and  N_26 
REMARK    9  A    between atoms: N_26  and  C_27 
REMARK   10  A    between atoms: C_30  and  O_31 
ROOT
HETATM    1  N   UNL     1     -42.466  57.970 -55.377  1.00  0.00    -0.319 N 
HETATM    2  C   UNL     1     -42.252  59.131 -56.133  1.00  0.00     0.332 C 
HETATM    3  O   UNL     1     -41.631  60.091 -55.701  1.00  0.00    -0.246 OA
HETATM    4  N   UNL     1     -42.908  58.996 -57.339  1.00  0.00    -0.232 N 
HETATM    5  C   UNL     1     -43.728  57.899 -57.260  1.00  0.00     0.256 C 
HETATM    6  O   UNL     1     -44.624  57.540 -58.020  1.00  0.00    -0.270 OA
HETATM    7  C   UNL     1     -43.337  57.038 -56.065  1.00  0.00     0.190 C 
ENDROOT
BRANCH   7   8
HETATM    8  C   UNL     1     -42.586  55.824 -56.610  1.00  0.00     0.138 C 
BRANCH   8   9
HETATM    9  C   UNL     1     -42.411  54.683 -55.619  1.00  0.00     0.224 C 
HETATM   10  N   UNL     1     -41.115  54.239 -55.460  1.00  0.00    -0.327 N 
HETATM   11  H   UNL     1     -40.412  54.527 -56.141  1.00  0.00     0.169 HD
HETATM   12  O   UNL     1     -43.386  54.274 -54.992  1.00  0.00    -0.273 OA
BRANCH  10  13
HETATM   13  C   UNL     1     -40.613  53.407 -54.440  1.00  0.00     0.034 A 
HETATM   14  C   UNL     1     -40.516  53.961 -53.159  1.00  0.00     0.032 A 
HETATM   15  C   UNL     1     -40.090  53.183 -52.081  1.00  0.00     0.039 A 
HETATM   16  C   UNL     1     -39.799  51.833 -52.259  1.00  0.00     0.068 A 
HETATM   17  C   UNL     1     -39.875  51.279 -53.537  1.00  0.00     0.039 A 
HETATM   18  C   UNL     1     -40.273  52.066 -54.626  1.00  0.00     0.032 A 
BRANCH  16  19
HETATM   19  O   UNL     1     -39.427  51.159 -51.129  1.00  0.00    -0.356 OA
HETATM   20  C   UNL     1     -39.524  49.741 -51.213  1.00  0.00     0.210 C 
ENDBRANCH  16  19
ENDBRANCH  10  13
ENDBRANCH   8   9
ENDBRANCH   7   8
BRANCH   1  21
HETATM   21  C   UNL     1     -42.296  57.985 -53.925  1.00  0.00     0.133 C 
BRANCH  21  22
HETATM   22  C   UNL     1     -43.418  57.309 -53.134  1.00  0.00     0.058 C 
BRANCH  22  23
HETATM   23  C   UNL     1     -42.885  56.547 -51.946  1.00  0.00    -0.057 A 
HETATM   24  C   UNL     1     -41.720  56.964 -51.289  1.00  0.00     0.010 A 
HETATM   25  C   UNL     1     -41.220  56.245 -50.195  1.00  0.00     0.037 A 
HETATM   26  C   UNL     1     -41.879  55.102 -49.746  1.00  0.00     0.068 A 
HETATM   27  C   UNL     1     -43.035  54.681 -50.404  1.00  0.00     0.037 A 
HETATM   28  C   UNL     1     -43.537  55.396 -51.496  1.00  0.00     0.010 A 
BRANCH  26  29
HETATM   29  O   UNL     1     -41.502  54.314 -48.694  1.00  0.00    -0.356 OA
HETATM   30  C   UNL     1     -40.108  54.085 -48.527  1.00  0.00     0.210 C 
ENDBRANCH  26  29
ENDBRANCH  22  23
ENDBRANCH  21  22
ENDBRANCH   1  21
BRANCH   4  31
HETATM   31  C   UNL     1     -42.806  59.876 -58.460  1.00  0.00     0.047 A 
HETATM   32  C   UNL     1     -43.371  61.159 -58.453  1.00  0.00     0.033 A 
HETATM   33  C   UNL     1     -43.192  62.045 -59.527  1.00  0.00     0.039 A 
HETATM   34  C   UNL     1     -42.427  61.686 -60.631  1.00  0.00     0.068 A 
HETATM   35  C   UNL     1     -41.877  60.413 -60.674  1.00  0.00     0.039 A 
HETATM   36  C   UNL     1     -42.065  59.524 -59.603  1.00  0.00     0.033 A 
BRANCH  34  37
HETATM   37  O   UNL     1     -42.297  62.648 -61.592  1.00  0.00    -0.356 OA
HETATM   38  C   UNL     1     -41.001  63.214 -61.749  1.00  0.00     0.210 C 
ENDBRANCH  34  37
ENDBRANCH   4  31
TORSDOF 10
ENDMDL
MODEL 2
REMARK VINA RESULT:      -8.2      3.344      7.762
REMARK  10 active torsions:
REMARK  status: ('A' for Active; 'I' for Inactive)
REMARK    1  A    between atoms: O_2  and  C_3 
REMARK    2  A    between atoms: C_6  and  C_7 
REMARK    3  A    between atoms: C_7  and  C_8 
REMARK    4  A    between atoms: C_8  and  N_9 
REMARK    5  A    between atoms: N_12  and  C_13 
REMARK    6  A    between atoms: C_16  and  O_17 
REMARK    7  A    between atoms: C_23  and  C_24 
REMARK    8  A    between atoms: C_24  and  C_25 
REMARK       I    between atoms: C_25  and  N_26 
REMARK    9  A    between atoms: N_26  and  C_27 
REMARK   10  A    between atoms: C_30  and  O_31 
ROOT
HETATM    1  N   UNL     1     -41.784  56.762 -54.416  1.00  0.00    -0.319 N 
HETATM    2  C   UNL     1     -42.197  57.323 -53.201  1.00  0.00     0.332 C 
HETATM    3  O   UNL     1     -41.520  57.262 -52.185  1.00  0.00    -0.246 OA
HETATM    4  N   UNL     1     -43.462  57.848 -53.367  1.00  0.00    -0.232 N 
HETATM    5  C   UNL     1     -43.951  57.411 -54.572  1.00  0.00     0.256 C 
HETATM    6  O   UNL     1     -45.095  57.472 -55.017  1.00  0.00    -0.270 OA
HETATM    7  C   UNL     1     -42.817  56.857 -55.427  1.00  0.00     0.190 C 
ENDROOT
BRANCH   7   8
HETATM    8  C   UNL     1     -42.503  57.905 -56.493  1.00  0.00     0.138 C 
BRANCH   8   9
HETATM    9  C   UNL     1     -43.016  57.575 -57.886  1.00  0.00     0.224 C 
HETATM   10  N   UNL     1     -44.082  56.700 -57.925  1.00  0.00    -0.327 N 
HETATM   11  H   UNL     1     -44.313  56.173 -57.084  1.00  0.00     0.169 HD
HETATM   12  O   UNL     1     -42.515  58.131 -58.861  1.00  0.00    -0.273 OA
BRANCH  10  13
HETATM   13  C   UNL     1     -44.928  56.427 -59.019  1.00  0.00     0.034 A 
HETATM   14  C   UNL     1     -46.108  57.174 -59.109  1.00  0.00     0.032 A 
HETATM   15  C   UNL     1     -46.968  57.011 -60.197  1.00  0.00     0.039 A 
HETATM   16  C   UNL     1     -46.638  56.135 -61.229  1.00  0.00     0.068 A 
HETATM   17  C   UNL     1     -45.473  55.373 -61.136  1.00  0.00     0.039 A 
HETATM   18  C   UNL     1     -44.624  55.514 -60.029  1.00  0.00     0.032 A 
BRANCH  16  19
HETATM   19  O   UNL     1     -47.534  56.081 -62.260  1.00  0.00    -0.356 OA
HETATM   20  C   UNL     1     -48.551  57.078 -62.229  1.00  0.00     0.210 C 
ENDBRANCH  16  19
ENDBRANCH  10  13
ENDBRANCH   8   9
ENDBRANCH   7   8
BRANCH   1  21
HETATM   21  C   UNL     1     -40.721  55.758 -54.450  1.00  0.00     0.133 C 
BRANCH  21  22
HETATM   22  C   UNL     1     -41.172  54.350 -54.844  1.00  0.00     0.058 C 
BRANCH  22  23
HETATM   23  C   UNL     1     -40.632  53.304 -53.900  1.00  0.00    -0.057 A 
HETATM   24  C   UNL     1     -40.578  53.541 -52.520  1.00  0.00     0.010 A 
HETATM   25  C   UNL     1     -40.061  52.573 -51.649  1.00  0.00     0.037 A 
HETATM   26  C   UNL     1     -39.595  51.358 -52.146  1.00  0.00     0.068 A 
HETATM   27  C   UNL     1     -39.641  51.123 -53.521  1.00  0.00     0.037 A 
HETATM   28  C   UNL     1     -40.155  52.087 -54.394  1.00  0.00     0.010 A 
BRANCH  26  29
HETATM   29  O   UNL     1     -39.072  50.331 -51.409  1.00  0.00    -0.356 OA
HETATM   30  C   UNL     1     -39.936  49.712 -50.465  1.00  0.00     0.210 C 
ENDBRANCH  26  29
ENDBRANCH  22  23
ENDBRANCH  21  22
ENDBRANCH   1  21
BRANCH   4  31
HETATM   31  C   UNL     1     -44.174  58.654 -52.426  1.00  0.00     0.047 A 
HETATM   32  C   UNL     1     -45.042  58.099 -51.476  1.00  0.00     0.033 A 
HETATM   33  C   UNL     1     -45.669  58.893 -50.503  1.00  0.00     0.039 A 
HETATM   34  C   UNL     1     -45.433  60.262 -50.436  1.00  0.00     0.068 A 
HETATM   35  C   UNL     1     -44.598  60.840 -51.381  1.00  0.00     0.039 A 
HETATM   36  C   UNL     1     -43.978  60.046 -52.359  1.00  0.00     0.033 A 
BRANCH  34  37
HETATM   37  O   UNL     1     -46.073  60.918 -49.423  1.00  0.00    -0.356 OA
HETATM   38  C   UNL     1     -45.384  60.989 -48.181  1.00  0.00     0.210 C 
ENDBRANCH  34  37
ENDBRANCH   4  31
TORSDOF 10
ENDMDL
MODEL 3
REMARK VINA RESULT:      -7.6      1.521      4.025
REMARK  10 active torsions:
REMARK  status: ('A' for Active; 'I' for Inactive)
REMARK    1  A    between atoms: O_2  and  C_3 
REMARK    2  A    between atoms: C_6  and  C_7 
REMARK    3  A    between atoms: C_7  and  C_8 
REMARK    4  A    between atoms: C_8  and  N_9 
REMARK    5  A    between atoms: N_12  and  C_13 
REMARK    6  A    between atoms: C_16  and  O_17 
REMARK    7  A    between atoms: C_23  and  C_24 
REMARK    8  A    between atoms: C_24  and  C_25 
REMARK       I    between atoms: C_25  and  N_26 
REMARK    9  A    between atoms: N_26  and  C_27 
REMARK   10  A    between atoms: C_30  and  O_31 
ROOT
HETATM    1  N   UNL     1     -42.562  56.766 -56.175  1.00  0.00    -0.319 N 
HETATM    2  C   UNL     1     -42.802  56.992 -57.537  1.00  0.00     0.332 C 
HETATM    3  O   UNL     1     -42.970  56.082 -58.335  1.00  0.00    -0.246 OA
HETATM    4  N   UNL     1     -42.736  58.350 -57.774  1.00  0.00    -0.232 N 
HETATM    5  C   UNL     1     -42.216  58.954 -56.658  1.00  0.00     0.256 C 
HETATM    6  O   UNL     1     -41.805  60.103 -56.514  1.00  0.00    -0.270 OA
HETATM    7  C   UNL     1     -42.269  57.999 -55.472  1.00  0.00     0.190 C 
ENDROOT
BRANCH   7   8
HETATM    8  C   UNL     1     -43.422  58.453 -54.578  1.00  0.00     0.138 C 
BRANCH   8   9
HETATM    9  C   UNL     1     -43.217  58.200 -53.092  1.00  0.00     0.224 C 
HETATM   10  N   UNL     1     -42.933  56.893 -52.755  1.00  0.00    -0.327 N 
HETATM   11  H   UNL     1     -43.089  56.163 -53.450  1.00  0.00     0.169 HD
HETATM   12  O   UNL     1     -43.253  59.146 -52.309  1.00  0.00    -0.273 OA
BRANCH  10  13
HETATM   13  C   UNL     1     -42.436  56.413 -51.527  1.00  0.00     0.034 A 
HETATM   14  C   UNL     1     -43.024  55.252 -51.014  1.00  0.00     0.032 A 
HETATM   15  C   UNL     1     -42.545  54.675 -49.836  1.00  0.00     0.039 A 
HETATM   16  C   UNL     1     -41.445  55.224 -49.181  1.00  0.00     0.068 A 
HETATM   17  C   UNL     1     -40.866  56.392 -49.676  1.00  0.00     0.039 A 
HETATM   18  C   UNL     1     -41.365  56.990 -50.842  1.00  0.00     0.032 A 
BRANCH  16  19
HETATM   19  O   UNL     1     -41.039  54.558 -48.059  1.00  0.00    -0.356 OA
HETATM   20  C   UNL     1     -40.507  53.257 -48.289  1.00  0.00     0.210 C 
ENDBRANCH  16  19
ENDBRANCH  10  13
ENDBRANCH   8   9
ENDBRANCH   7   8
BRANCH   1  21
HETATM   21  C   UNL     1     -42.123  55.453 -55.704  1.00  0.00     0.133 C 
BRANCH  21  22
HETATM   22  C   UNL     1     -40.764  55.436 -55.002  1.00  0.00     0.058 C 
BRANCH  22  23
HETATM   23  C   UNL     1     -40.510  54.122 -54.305  1.00  0.00    -0.057 A 
HETATM   24  C   UNL     1     -40.490  54.043 -52.907  1.00  0.00     0.010 A 
HETATM   25  C   UNL     1     -40.238  52.825 -52.263  1.00  0.00     0.037 A 
HETATM   26  C   UNL     1     -40.004  51.671 -53.011  1.00  0.00     0.068 A 
HETATM   27  C   UNL     1     -40.017  51.750 -54.404  1.00  0.00     0.037 A 
HETATM   28  C   UNL     1     -40.267  52.965 -55.049  1.00  0.00     0.010 A 
BRANCH  26  29
HETATM   29  O   UNL     1     -39.751  50.424 -52.511  1.00  0.00    -0.356 OA
HETATM   30  C   UNL     1     -39.555  50.319 -51.107  1.00  0.00     0.210 C 
ENDBRANCH  26  29
ENDBRANCH  22  23
ENDBRANCH  21  22
ENDBRANCH   1  21
BRANCH   4  31
HETATM   31  C   UNL     1     -43.086  59.014 -58.990  1.00  0.00     0.047 A 
HETATM   32  C   UNL     1     -42.119  59.441 -59.910  1.00  0.00     0.033 A 
HETATM   33  C   UNL     1     -42.479  60.015 -61.139  1.00  0.00     0.039 A 
HETATM   34  C   UNL     1     -43.815  60.163 -61.497  1.00  0.00     0.068 A 
HETATM   35  C   UNL     1     -44.792  59.771 -60.593  1.00  0.00     0.039 A 
HETATM   36  C   UNL     1     -44.430  59.204 -59.360  1.00  0.00     0.033 A 
BRANCH  34  37
HETATM   37  O   UNL     1     -44.035  60.701 -62.732  1.00  0.00    -0.356 OA
HETATM   38  C   UNL     1     -43.170  61.760 -63.124  1.00  0.00     0.210 C 
ENDBRANCH  34  37
ENDBRANCH   4  31
TORSDOF 10
ENDMDL
MODEL 4
REMARK VINA RESULT:      -7.5      4.022      7.475
REMARK  10 active torsions:
REMARK  status: ('A' for Active; 'I' for Inactive)
REMARK    1  A    between atoms: O_2  and  C_3 
REMARK    2  A    between atoms: C_6  and  C_7 
REMARK    3  A    between atoms: C_7  and  C_8 
REMARK    4  A    between atoms: C_8  and  N_9 
REMARK    5  A    between atoms: N_12  and  C_13 
REMARK    6  A    between atoms: C_16  and  O_17 
REMARK    7  A    between atoms: C_23  and  C_24 
REMARK    8  A    between atoms: C_24  and  C_25 
REMARK       I    between atoms: C_25  and  N_26 
REMARK    9  A    between atoms: N_26  and  C_27 
REMARK   10  A    between atoms: C_30  and  O_31 
ROOT
HETATM    1  N   UNL     1     -43.365  58.816 -52.922  1.00  0.00    -0.319 N 
HETATM    2  C   UNL     1     -43.954  60.004 -52.470  1.00  0.00     0.332 C 
HETATM    3  O   UNL     1     -44.864  60.556 -53.070  1.00  0.00    -0.246 OA
HETATM    4  N   UNL     1     -43.287  60.421 -51.336  1.00  0.00    -0.232 N 
HETATM    5  C   UNL     1     -42.145  59.670 -51.212  1.00  0.00     0.256 C 
HETATM    6  O   UNL     1     -41.178  59.840 -50.474  1.00  0.00    -0.270 OA
HETATM    7  C   UNL     1     -42.228  58.439 -52.107  1.00  0.00     0.190 C 
ENDROOT
BRANCH   7   8
HETATM    8  C   UNL     1     -42.523  57.244 -51.203  1.00  0.00     0.138 C 
BRANCH   8   9
HETATM    9  C   UNL     1     -42.374  55.885 -51.870  1.00  0.00     0.224 C 
HETATM   10  N   UNL     1     -41.089  55.384 -51.898  1.00  0.00    -0.327 N 
HETATM   11  H   UNL     1     -40.314  56.012 -51.686  1.00  0.00     0.169 HD
HETATM   12  O   UNL     1     -43.375  55.300 -52.278  1.00  0.00    -0.273 OA
BRANCH  10  13
HETATM   13  C   UNL     1     -40.689  54.066 -52.193  1.00  0.00     0.034 A 
HETATM   14  C   UNL     1     -40.691  53.688 -53.540  1.00  0.00     0.032 A 
HETATM   15  C   UNL     1     -40.246  52.421 -53.921  1.00  0.00     0.039 A 
HETATM   16  C   UNL     1     -39.751  51.533 -52.969  1.00  0.00     0.068 A 
HETATM   17  C   UNL     1     -39.764  51.896 -51.622  1.00  0.00     0.039 A 
HETATM   18  C   UNL     1     -40.239  53.156 -51.234  1.00  0.00     0.032 A 
BRANCH  16  19
HETATM   19  O   UNL     1     -39.308  50.336 -53.458  1.00  0.00    -0.356 OA
HETATM   20  C   UNL     1     -39.933  49.909 -54.665  1.00  0.00     0.210 C 
ENDBRANCH  16  19
ENDBRANCH  10  13
ENDBRANCH   8   9
ENDBRANCH   7   8
BRANCH   1  21
HETATM   21  C   UNL     1     -43.535  58.381 -54.308  1.00  0.00     0.133 C 
BRANCH  21  22
HETATM   22  C   UNL     1     -42.302  58.551 -55.197  1.00  0.00     0.058 C 
BRANCH  22  23
HETATM   23  C   UNL     1     -42.474  57.865 -56.531  1.00  0.00    -0.057 A 
HETATM   24  C   UNL     1     -42.257  58.558 -57.728  1.00  0.00     0.010 A 
HETATM   25  C   UNL     1     -42.433  57.922 -58.964  1.00  0.00     0.037 A 
HETATM   26  C   UNL     1     -42.826  56.586 -59.016  1.00  0.00     0.068 A 
HETATM   27  C   UNL     1     -43.050  55.896 -57.824  1.00  0.00     0.037 A 
HETATM   28  C   UNL     1     -42.876  56.528 -56.589  1.00  0.00     0.010 A 
BRANCH  26  29
HETATM   29  O   UNL     1     -43.029  55.848 -60.149  1.00  0.00    -0.356 OA
HETATM   30  C   UNL     1     -44.378  55.604 -60.527  1.00  0.00     0.210 C 
ENDBRANCH  26  29
ENDBRANCH  22  23
ENDBRANCH  21  22
ENDBRANCH   1  21
BRANCH   4  31
HETATM   31  C   UNL     1     -43.675  61.490 -50.471  1.00  0.00     0.047 A 
HETATM   32  C   UNL     1     -44.581  61.303 -49.417  1.00  0.00     0.033 A 
HETATM   33  C   UNL     1     -44.889  62.341 -48.523  1.00  0.00     0.039 A 
HETATM   34  C   UNL     1     -44.287  63.589 -48.640  1.00  0.00     0.068 A 
HETATM   35  C   UNL     1     -43.405  63.807 -49.690  1.00  0.00     0.039 A 
HETATM   36  C   UNL     1     -43.105  62.770 -50.589  1.00  0.00     0.033 A 
BRANCH  34  37
HETATM   37  O   UNL     1     -44.641  64.502 -47.688  1.00  0.00    -0.356 OA
HETATM   38  C   UNL     1     -45.144  63.978 -46.465  1.00  0.00     0.210 C 
ENDBRANCH  34  37
ENDBRANCH   4  31
TORSDOF 10
ENDMDL
MODEL 5
REMARK VINA RESULT:      -7.4      4.986      8.350
REMARK  10 active torsions:
REMARK  status: ('A' for Active; 'I' for Inactive)
REMARK    1  A    between atoms: O_2  and  C_3 
REMARK    2  A    between atoms: C_6  and  C_7 
REMARK    3  A    between atoms: C_7  and  C_8 
REMARK    4  A    between atoms: C_8  and  N_9 
REMARK    5  A    between atoms: N_12  and  C_13 
REMARK    6  A    between atoms: C_16  and  O_17 
REMARK    7  A    between atoms: C_23  and  C_24 
REMARK    8  A    between atoms: C_24  and  C_25 
REMARK       I    between atoms: C_25  and  N_26 
REMARK    9  A    between atoms: N_26  and  C_27 
REMARK   10  A    between atoms: C_30  and  O_31 
ROOT
HETATM    1  N   UNL     1     -44.094  59.101 -51.083  1.00  0.00    -0.319 N 
HETATM    2  C   UNL     1     -45.133  59.591 -50.282  1.00  0.00     0.332 C 
HETATM    3  O   UNL     1     -46.206  59.015 -50.172  1.00  0.00    -0.246 OA
HETATM    4  N   UNL     1     -44.743  60.802 -49.749  1.00  0.00    -0.232 N 
HETATM    5  C   UNL     1     -43.598  61.203 -50.391  1.00  0.00     0.256 C 
HETATM    6  O   UNL     1     -43.037  62.295 -50.372  1.00  0.00    -0.270 OA
HETATM    7  C   UNL     1     -42.983  60.030 -51.145  1.00  0.00     0.190 C 
ENDROOT
BRANCH   7   8
HETATM    8  C   UNL     1     -41.776  59.558 -50.335  1.00  0.00     0.138 C 
BRANCH   8   9
HETATM    9  C   UNL     1     -41.063  58.339 -50.902  1.00  0.00     0.224 C 
HETATM   10  N   UNL     1     -41.301  57.158 -50.232  1.00  0.00    -0.327 N 
HETATM   11  H   UNL     1     -41.735  57.196 -49.310  1.00  0.00     0.169 HD
HETATM   12  O   UNL     1     -40.389  58.456 -51.924  1.00  0.00    -0.273 OA
BRANCH  10  13
HETATM   13  C   UNL     1     -41.011  55.850 -50.670  1.00  0.00     0.034 A 
HETATM   14  C   UNL     1     -41.452  55.498 -51.950  1.00  0.00     0.032 A 
HETATM   15  C   UNL     1     -41.149  54.244 -52.484  1.00  0.00     0.039 A 
HETATM   16  C   UNL     1     -40.364  53.345 -51.766  1.00  0.00     0.068 A 
HETATM   17  C   UNL     1     -39.937  53.682 -50.482  1.00  0.00     0.039 A 
HETATM   18  C   UNL     1     -40.266  54.929 -49.932  1.00  0.00     0.032 A 
BRANCH  16  19
HETATM   19  O   UNL     1     -40.099  52.162 -52.399  1.00  0.00    -0.356 OA
HETATM   20  C   UNL     1     -40.363  52.155 -53.798  1.00  0.00     0.210 C 
ENDBRANCH  16  19
ENDBRANCH  10  13
ENDBRANCH   8   9
ENDBRANCH   7   8
BRANCH   1  21
HETATM   21  C   UNL     1     -44.357  58.101 -52.117  1.00  0.00     0.133 C 
BRANCH  21  22
HETATM   22  C   UNL     1     -44.848  58.661 -53.453  1.00  0.00     0.058 C 
BRANCH  22  23
HETATM   23  C   UNL     1     -44.304  57.879 -54.623  1.00  0.00    -0.057 A 
HETATM   24  C   UNL     1     -44.389  58.385 -55.926  1.00  0.00     0.010 A 
HETATM   25  C   UNL     1     -43.896  57.648 -57.012  1.00  0.00     0.037 A 
HETATM   26  C   UNL     1     -43.312  56.399 -56.806  1.00  0.00     0.068 A 
HETATM   27  C   UNL     1     -43.234  55.891 -55.508  1.00  0.00     0.037 A 
HETATM   28  C   UNL     1     -43.725  56.623 -54.423  1.00  0.00     0.010 A 
BRANCH  26  29
HETATM   29  O   UNL     1     -42.791  55.583 -57.771  1.00  0.00    -0.356 OA
HETATM   30  C   UNL     1     -43.017  55.959 -59.123  1.00  0.00     0.210 C 
ENDBRANCH  26  29
ENDBRANCH  22  23
ENDBRANCH  21  22
ENDBRANCH   1  21
BRANCH   4  31
HETATM   31  C   UNL     1     -45.438  61.549 -48.749  1.00  0.00     0.047 A 
HETATM   32  C   UNL     1     -46.525  62.379 -49.059  1.00  0.00     0.033 A 
HETATM   33  C   UNL     1     -47.252  63.040 -48.057  1.00  0.00     0.039 A 
HETATM   34  C   UNL     1     -46.930  62.878 -46.714  1.00  0.00     0.068 A 
HETATM   35  C   UNL     1     -45.843  62.083 -46.382  1.00  0.00     0.039 A 
HETATM   36  C   UNL     1     -45.111  61.428 -47.386  1.00  0.00     0.033 A 
BRANCH  34  37
HETATM   37  O   UNL     1     -47.734  63.545 -45.834  1.00  0.00    -0.356 OA
HETATM   38  C   UNL     1     -47.080  64.224 -44.769  1.00  0.00     0.210 C 
ENDBRANCH  34  37
ENDBRANCH   4  31
TORSDOF 10
ENDMDL
MODEL 6
REMARK VINA RESULT:      -7.4      3.961      7.251
REMARK  10 active torsions:
REMARK  status: ('A' for Active; 'I' for Inactive)
REMARK    1  A    between atoms: O_2  and  C_3 
REMARK    2  A    between atoms: C_6  and  C_7 
REMARK    3  A    between atoms: C_7  and  C_8 
REMARK    4  A    between atoms: C_8  and  N_9 
REMARK    5  A    between atoms: N_12  and  C_13 
REMARK    6  A    between atoms: C_16  and  O_17 
REMARK    7  A    between atoms: C_23  and  C_24 
REMARK    8  A    between atoms: C_24  and  C_25 
REMARK       I    between atoms: C_25  and  N_26 
REMARK    9  A    between atoms: N_26  and  C_27 
REMARK   10  A    between atoms: C_30  and  O_31 
ROOT
HETATM    1  N   UNL     1     -43.153  57.177 -53.139  1.00  0.00    -0.319 N 
HETATM    2  C   UNL     1     -43.488  56.454 -54.291  1.00  0.00     0.332 C 
HETATM    3  O   UNL     1     -43.934  55.316 -54.246  1.00  0.00    -0.246 OA
HETATM    4  N   UNL     1     -43.159  57.211 -55.396  1.00  0.00    -0.232 N 
HETATM    5  C   UNL     1     -42.401  58.274 -54.976  1.00  0.00     0.256 C 
HETATM    6  O   UNL     1     -41.740  59.070 -55.639  1.00  0.00    -0.270 OA
HETATM    7  C   UNL     1     -42.526  58.443 -53.467  1.00  0.00     0.190 C 
ENDROOT
BRANCH   7   8
HETATM    8  C   UNL     1     -43.449  59.636 -53.222  1.00  0.00     0.138 C 
BRANCH   8   9
HETATM    9  C   UNL     1     -43.313  60.277 -51.849  1.00  0.00     0.224 C 
HETATM   10  N   UNL     1     -44.352  61.109 -51.487  1.00  0.00    -0.327 N 
HETATM   11  H   UNL     1     -45.009  61.414 -52.205  1.00  0.00     0.169 HD
HETATM   12  O   UNL     1     -42.355  59.984 -51.138  1.00  0.00    -0.273 OA
BRANCH  10  13
HETATM   13  C   UNL     1     -44.638  61.615 -50.203  1.00  0.00     0.034 A 
HETATM   14  C   UNL     1     -45.305  60.760 -49.319  1.00  0.00     0.032 A 
HETATM   15  C   UNL     1     -45.567  61.162 -48.007  1.00  0.00     0.039 A 
HETATM   16  C   UNL     1     -45.127  62.402 -47.550  1.00  0.00     0.068 A 
HETATM   17  C   UNL     1     -44.478  63.266 -48.432  1.00  0.00     0.039 A 
HETATM   18  C   UNL     1     -44.242  62.877 -49.757  1.00  0.00     0.032 A 
BRANCH  16  19
HETATM   19  O   UNL     1     -45.406  62.676 -46.240  1.00  0.00    -0.356 OA
HETATM   20  C   UNL     1     -46.769  62.988 -45.967  1.00  0.00     0.210 C 
ENDBRANCH  16  19
ENDBRANCH  10  13
ENDBRANCH   8   9
ENDBRANCH   7   8
BRANCH   1  21
HETATM   21  C   UNL     1     -42.956  56.495 -51.861  1.00  0.00     0.133 C 
BRANCH  21  22
HETATM   22  C   UNL     1     -41.498  56.335 -51.428  1.00  0.00     0.058 C 
BRANCH  22  23
HETATM   23  C   UNL     1     -41.000  54.927 -51.643  1.00  0.00    -0.057 A 
HETATM   24  C   UNL     1     -40.641  54.119 -50.556  1.00  0.00     0.010 A 
HETATM   25  C   UNL     1     -40.165  52.817 -50.760  1.00  0.00     0.037 A 
HETATM   26  C   UNL     1     -40.044  52.308 -52.053  1.00  0.00     0.068 A 
HETATM   27  C   UNL     1     -40.395  53.115 -53.137  1.00  0.00     0.037 A 
HETATM   28  C   UNL     1     -40.870  54.415 -52.936  1.00  0.00     0.010 A 
BRANCH  26  29
HETATM   29  O   UNL     1     -39.600  51.060 -52.390  1.00  0.00    -0.356 OA
HETATM   30  C   UNL     1     -39.557  50.744 -53.775  1.00  0.00     0.210 C 
ENDBRANCH  26  29
ENDBRANCH  22  23
ENDBRANCH  21  22
ENDBRANCH   1  21
BRANCH   4  31
HETATM   31  C   UNL     1     -43.491  56.913 -56.754  1.00  0.00     0.047 A 
HETATM   32  C   UNL     1     -44.377  57.708 -57.495  1.00  0.00     0.033 A 
HETATM   33  C   UNL     1     -44.628  57.455 -58.853  1.00  0.00     0.039 A 
HETATM   34  C   UNL     1     -43.989  56.414 -59.517  1.00  0.00     0.068 A 
HETATM   35  C   UNL     1     -43.126  55.597 -58.800  1.00  0.00     0.039 A 
HETATM   36  C   UNL     1     -42.882  55.847 -57.440  1.00  0.00     0.033 A 
BRANCH  34  37
HETATM   37  O   UNL     1     -44.290  56.293 -60.844  1.00  0.00    -0.356 OA
HETATM   38  C   UNL     1     -45.061  55.158 -61.217  1.00  0.00     0.210 C 
ENDBRANCH  34  37
ENDBRANCH   4  31
TORSDOF 10
ENDMDL
MODEL 7
REMARK VINA RESULT:      -7.3      1.828      2.391
REMARK  10 active torsions:
REMARK  status: ('A' for Active; 'I' for Inactive)
REMARK    1  A    between atoms: O_2  and  C_3 
REMARK    2  A    between atoms: C_6  and  C_7 
REMARK    3  A    between atoms: C_7  and  C_8 
REMARK    4  A    between atoms: C_8  and  N_9 
REMARK    5  A    between atoms: N_12  and  C_13 
REMARK    6  A    between atoms: C_16  and  O_17 
REMARK    7  A    between atoms: C_23  and  C_24 
REMARK    8  A    between atoms: C_24  and  C_25 
REMARK       I    between atoms: C_25  and  N_26 
REMARK    9  A    between atoms: N_26  and  C_27 
REMARK   10  A    between atoms: C_30  and  O_31 
ROOT
HETATM    1  N   UNL     1     -43.714  58.595 -55.522  1.00  0.00    -0.319 N 
HETATM    2  C   UNL     1     -43.548  59.734 -56.320  1.00  0.00     0.332 C 
HETATM    3  O   UNL     1     -44.025  60.820 -56.023  1.00  0.00    -0.246 OA
HETATM    4  N   UNL     1     -42.855  59.375 -57.458  1.00  0.00    -0.232 N 
HETATM    5  C   UNL     1     -42.803  58.005 -57.513  1.00  0.00     0.256 C 
HETATM    6  O   UNL     1     -42.464  57.275 -58.442  1.00  0.00    -0.270 OA
HETATM    7  C   UNL     1     -43.166  57.413 -56.157  1.00  0.00     0.190 C 
ENDROOT
BRANCH   7   8
HETATM    8  C   UNL     1     -41.866  56.945 -55.506  1.00  0.00     0.138 C 
BRANCH   8   9
HETATM    9  C   UNL     1     -41.846  55.480 -55.098  1.00  0.00     0.224 C 
HETATM   10  N   UNL     1     -40.674  55.052 -54.511  1.00  0.00    -0.327 N 
HETATM   11  H   UNL     1     -39.846  55.643 -54.582  1.00  0.00     0.169 HD
HETATM   12  O   UNL     1     -42.857  54.798 -55.249  1.00  0.00    -0.273 OA
BRANCH  10  13
HETATM   13  C   UNL     1     -40.458  53.856 -53.798  1.00  0.00     0.034 A 
HETATM   14  C   UNL     1     -40.142  52.717 -54.547  1.00  0.00     0.032 A 
HETATM   15  C   UNL     1     -39.850  51.509 -53.912  1.00  0.00     0.039 A 
HETATM   16  C   UNL     1     -39.826  51.433 -52.521  1.00  0.00     0.068 A 
HETATM   17  C   UNL     1     -40.159  52.559 -51.768  1.00  0.00     0.039 A 
HETATM   18  C   UNL     1     -40.482  53.765 -52.405  1.00  0.00     0.032 A 
BRANCH  16  19
HETATM   19  O   UNL     1     -39.493  50.212 -52.007  1.00  0.00    -0.356 OA
HETATM   20  C   UNL     1     -39.769  50.046 -50.619  1.00  0.00     0.210 C 
ENDBRANCH  16  19
ENDBRANCH  10  13
ENDBRANCH   8   9
ENDBRANCH   7   8
BRANCH   1  21
HETATM   21  C   UNL     1     -44.765  58.543 -54.507  1.00  0.00     0.133 C 
BRANCH  21  22
HETATM   22  C   UNL     1     -44.473  57.627 -53.317  1.00  0.00     0.058 C 
BRANCH  22  23
HETATM   23  C   UNL     1     -43.386  58.187 -52.432  1.00  0.00    -0.057 A 
HETATM   24  C   UNL     1     -43.336  59.555 -52.135  1.00  0.00     0.010 A 
HETATM   25  C   UNL     1     -42.317  60.073 -51.325  1.00  0.00     0.037 A 
HETATM   26  C   UNL     1     -41.337  59.229 -50.804  1.00  0.00     0.068 A 
HETATM   27  C   UNL     1     -41.382  57.867 -51.105  1.00  0.00     0.037 A 
HETATM   28  C   UNL     1     -42.397  57.347 -51.913  1.00  0.00     0.010 A 
BRANCH  26  29
HETATM   29  O   UNL     1     -40.294  59.603 -50.001  1.00  0.00    -0.356 OA
HETATM   30  C   UNL     1     -38.993  59.557 -50.572  1.00  0.00     0.210 C 
ENDBRANCH  26  29
ENDBRANCH  22  23
ENDBRANCH  21  22
ENDBRANCH   1  21
BRANCH   4  31
HETATM   31  C   UNL     1     -42.333  60.266 -58.446  1.00  0.00     0.047 A 
HETATM   32  C   UNL     1     -41.306  61.176 -58.161  1.00  0.00     0.033 A 
HETATM   33  C   UNL     1     -40.744  61.985 -59.161  1.00  0.00     0.039 A 
HETATM   34  C   UNL     1     -41.176  61.896 -60.480  1.00  0.00     0.068 A 
HETATM   35  C   UNL     1     -42.209  61.020 -60.784  1.00  0.00     0.039 A 
HETATM   36  C   UNL     1     -42.775  60.218 -59.781  1.00  0.00     0.033 A 
BRANCH  34  37
HETATM   37  O   UNL     1     -40.527  62.708 -61.365  1.00  0.00    -0.356 OA
HETATM   38  C   UNL     1     -39.313  63.295 -60.912  1.00  0.00     0.210 C 
ENDBRANCH  34  37
ENDBRANCH   4  31
TORSDOF 10
ENDMDL
MODEL 8
REMARK VINA RESULT:      -7.3      2.040      8.773
REMARK  10 active torsions:
REMARK  status: ('A' for Active; 'I' for Inactive)
REMARK    1  A    between atoms: O_2  and  C_3 
REMARK    2  A    between atoms: C_6  and  C_7 
REMARK    3  A    between atoms: C_7  and  C_8 
REMARK    4  A    between atoms: C_8  and  N_9 
REMARK    5  A    between atoms: N_12  and  C_13 
REMARK    6  A    between atoms: C_16  and  O_17 
REMARK    7  A    between atoms: C_23  and  C_24 
REMARK    8  A    between atoms: C_24  and  C_25 
REMARK       I    between atoms: C_25  and  N_26 
REMARK    9  A    between atoms: N_26  and  C_27 
REMARK   10  A    between atoms: C_30  and  O_31 
ROOT
HETATM    1  N   UNL     1     -43.103  56.068 -54.172  1.00  0.00    -0.319 N 
HETATM    2  C   UNL     1     -42.686  55.143 -53.206  1.00  0.00     0.332 C 
HETATM    3  O   UNL     1     -43.308  54.947 -52.172  1.00  0.00    -0.246 OA
HETATM    4  N   UNL     1     -41.481  54.604 -53.606  1.00  0.00    -0.232 N 
HETATM    5  C   UNL     1     -41.011  55.344 -54.662  1.00  0.00     0.256 C 
HETATM    6  O   UNL     1     -39.898  55.338 -55.183  1.00  0.00    -0.270 OA
HETATM    7  C   UNL     1     -42.129  56.206 -55.236  1.00  0.00     0.190 C 
ENDROOT
BRANCH   7   8
HETATM    8  C   UNL     1     -42.583  55.547 -56.537  1.00  0.00     0.138 C 
BRANCH   8   9
HETATM    9  C   UNL     1     -42.967  56.516 -57.645  1.00  0.00     0.224 C 
HETATM   10  N   UNL     1     -42.147  57.618 -57.769  1.00  0.00    -0.327 N 
HETATM   11  H   UNL     1     -41.498  57.833 -57.012  1.00  0.00     0.169 HD
HETATM   12  O   UNL     1     -43.912  56.245 -58.382  1.00  0.00    -0.273 OA
BRANCH  10  13
HETATM   13  C   UNL     1     -42.085  58.524 -58.846  1.00  0.00     0.034 A 
HETATM   14  C   UNL     1     -42.084  59.887 -58.530  1.00  0.00     0.032 A 
HETATM   15  C   UNL     1     -41.959  60.848 -59.535  1.00  0.00     0.039 A 
HETATM   16  C   UNL     1     -41.788  60.460 -60.862  1.00  0.00     0.068 A 
HETATM   17  C   UNL     1     -41.807  59.103 -61.187  1.00  0.00     0.039 A 
HETATM   18  C   UNL     1     -41.964  58.138 -60.182  1.00  0.00     0.032 A 
BRANCH  16  19
HETATM   19  O   UNL     1     -41.639  61.482 -61.757  1.00  0.00    -0.356 OA
HETATM   20  C   UNL     1     -41.158  62.703 -61.204  1.00  0.00     0.210 C 
ENDBRANCH  16  19
ENDBRANCH  10  13
ENDBRANCH   8   9
ENDBRANCH   7   8
BRANCH   1  21
HETATM   21  C   UNL     1     -44.074  57.109 -53.837  1.00  0.00     0.133 C 
BRANCH  21  22
HETATM   22  C   UNL     1     -43.558  58.544 -53.968  1.00  0.00     0.058 C 
BRANCH  22  23
HETATM   23  C   UNL     1     -42.539  58.872 -52.905  1.00  0.00    -0.057 A 
HETATM   24  C   UNL     1     -42.941  59.280 -51.626  1.00  0.00     0.010 A 
HETATM   25  C   UNL     1     -41.991  59.599 -50.647  1.00  0.00     0.037 A 
HETATM   26  C   UNL     1     -40.630  59.513 -50.934  1.00  0.00     0.068 A 
HETATM   27  C   UNL     1     -40.228  59.113 -52.210  1.00  0.00     0.037 A 
HETATM   28  C   UNL     1     -41.173  58.795 -53.190  1.00  0.00     0.010 A 
BRANCH  26  29
HETATM   29  O   UNL     1     -39.604  59.790 -50.073  1.00  0.00    -0.356 OA
HETATM   30  C   UNL     1     -38.291  59.459 -50.507  1.00  0.00     0.210 C 
ENDBRANCH  26  29
ENDBRANCH  22  23
ENDBRANCH  21  22
ENDBRANCH   1  21
BRANCH   4  31
HETATM   31  C   UNL     1     -40.800  53.507 -52.994  1.00  0.00     0.047 A 
HETATM   32  C   UNL     1     -40.531  53.471 -51.619  1.00  0.00     0.033 A 
HETATM   33  C   UNL     1     -39.938  52.350 -51.017  1.00  0.00     0.039 A 
HETATM   34  C   UNL     1     -39.615  51.223 -51.764  1.00  0.00     0.068 A 
HETATM   35  C   UNL     1     -39.848  51.243 -53.132  1.00  0.00     0.039 A 
HETATM   36  C   UNL     1     -40.434  52.368 -53.734  1.00  0.00     0.033 A 
BRANCH  34  37
HETATM   37  O   UNL     1     -39.078  50.185 -51.058  1.00  0.00    -0.356 OA
HETATM   38  C   UNL     1     -39.872  49.010 -50.957  1.00  0.00     0.210 C 
ENDBRANCH  34  37
ENDBRANCH   4  31
TORSDOF 10
ENDMDL
MODEL 9
REMARK VINA RESULT:      -7.2      3.893      9.988
REMARK  10 active torsions:
REMARK  status: ('A' for Active; 'I' for Inactive)
REMARK    1  A    between atoms: O_2  and  C_3 
REMARK    2  A    between atoms: C_6  and  C_7 
REMARK    3  A    between atoms: C_7  and  C_8 
REMARK    4  A    between atoms: C_8  and  N_9 
REMARK    5  A    between atoms: N_12  and  C_13 
REMARK    6  A    between atoms: C_16  and  O_17 
REMARK    7  A    between atoms: C_23  and  C_24 
REMARK    8  A    between atoms: C_24  and  C_25 
REMARK       I    between atoms: C_25  and  N_26 
REMARK    9  A    between atoms: N_26  and  C_27 
REMARK   10  A    between atoms: C_30  and  O_31 
ROOT
HETATM    1  N   UNL     1     -42.157  57.175 -53.843  1.00  0.00    -0.319 N 
HETATM    2  C   UNL     1     -41.362  56.036 -54.023  1.00  0.00     0.332 C 
HETATM    3  O   UNL     1     -40.625  55.894 -54.988  1.00  0.00    -0.246 OA
HETATM    4  N   UNL     1     -41.627  55.149 -53.000  1.00  0.00    -0.232 N 
HETATM    5  C   UNL     1     -42.741  55.589 -52.331  1.00  0.00     0.256 C 
HETATM    6  O   UNL     1     -43.431  55.006 -51.498  1.00  0.00    -0.270 OA
HETATM    7  C   UNL     1     -43.031  57.040 -52.695  1.00  0.00     0.190 C 
ENDROOT
BRANCH   7   8
HETATM    8  C   UNL     1     -42.586  57.899 -51.513  1.00  0.00     0.138 C 
BRANCH   8   9
HETATM    9  C   UNL     1     -43.202  59.289 -51.465  1.00  0.00     0.224 C 
HETATM   10  N   UNL     1     -44.243  59.437 -50.572  1.00  0.00    -0.327 N 
HETATM   11  H   UNL     1     -44.672  58.601 -50.177  1.00  0.00     0.169 HD
HETATM   12  O   UNL     1     -42.719  60.187 -52.150  1.00  0.00    -0.273 OA
BRANCH  10  13
HETATM   13  C   UNL     1     -44.816  60.641 -50.115  1.00  0.00     0.034 A 
HETATM   14  C   UNL     1     -45.954  61.098 -50.788  1.00  0.00     0.032 A 
HETATM   15  C   UNL     1     -46.619  62.247 -50.355  1.00  0.00     0.039 A 
HETATM   16  C   UNL     1     -46.184  62.927 -49.220  1.00  0.00     0.068 A 
HETATM   17  C   UNL     1     -45.039  62.488 -48.556  1.00  0.00     0.039 A 
HETATM   18  C   UNL     1     -44.352  61.352 -49.007  1.00  0.00     0.032 A 
BRANCH  16  19
HETATM   19  O   UNL     1     -46.931  64.016 -48.867  1.00  0.00    -0.356 OA
HETATM   20  C   UNL     1     -47.476  63.973 -47.552  1.00  0.00     0.210 C 
ENDBRANCH  16  19
ENDBRANCH  10  13
ENDBRANCH   8   9
ENDBRANCH   7   8
BRANCH   1  21
HETATM   21  C   UNL     1     -42.441  58.070 -54.964  1.00  0.00     0.133 C 
BRANCH  21  22
HETATM   22  C   UNL     1     -43.875  58.014 -55.493  1.00  0.00     0.058 C 
BRANCH  22  23
HETATM   23  C   UNL     1     -43.930  57.500 -56.911  1.00  0.00    -0.057 A 
HETATM   24  C   UNL     1     -44.855  58.016 -57.826  1.00  0.00     0.010 A 
HETATM   25  C   UNL     1     -44.913  57.526 -59.137  1.00  0.00     0.037 A 
HETATM   26  C   UNL     1     -44.046  56.514 -59.547  1.00  0.00     0.068 A 
HETATM   27  C   UNL     1     -43.128  55.994 -58.634  1.00  0.00     0.037 A 
HETATM   28  C   UNL     1     -43.068  56.481 -57.325  1.00  0.00     0.010 A 
BRANCH  26  29
HETATM   29  O   UNL     1     -43.995  55.951 -60.792  1.00  0.00    -0.356 OA
HETATM   30  C   UNL     1     -45.094  55.134 -61.176  1.00  0.00     0.210 C 
ENDBRANCH  26  29
ENDBRANCH  22  23
ENDBRANCH  21  22
ENDBRANCH   1  21
BRANCH   4  31
HETATM   31  C   UNL     1     -40.912  53.945 -52.717  1.00  0.00     0.047 A 
HETATM   32  C   UNL     1     -40.356  53.688 -51.456  1.00  0.00     0.033 A 
HETATM   33  C   UNL     1     -39.730  52.465 -51.166  1.00  0.00     0.039 A 
HETATM   34  C   UNL     1     -39.657  51.455 -52.119  1.00  0.00     0.068 A 
HETATM   35  C   UNL     1     -40.177  51.694 -53.383  1.00  0.00     0.039 A 
HETATM   36  C   UNL     1     -40.796  52.920 -53.674  1.00  0.00     0.033 A 
BRANCH  34  37
HETATM   37  O   UNL     1     -39.056  50.300 -51.704  1.00  0.00    -0.356 OA
HETATM   38  C   UNL     1     -39.717  49.579 -50.672  1.00  0.00     0.210 C 
ENDBRANCH  34  37
ENDBRANCH   4  31
TORSDOF 10
ENDMDL
MODEL 10
REMARK VINA RESULT:      -7.2      3.559      7.899
REMARK  10 active torsions:
REMARK  status: ('A' for Active; 'I' for Inactive)
REMARK    1  A    between atoms: O_2  and  C_3 
REMARK    2  A    between atoms: C_6  and  C_7 
REMARK    3  A    between atoms: C_7  and  C_8 
REMARK    4  A    between atoms: C_8  and  N_9 
REMARK    5  A    between atoms: N_12  and  C_13 
REMARK    6  A    between atoms: C_16  and  O_17 
REMARK    7  A    between atoms: C_23  and  C_24 
REMARK    8  A    between atoms: C_24  and  C_25 
REMARK       I    between atoms: C_25  and  N_26 
REMARK    9  A    between atoms: N_26  and  C_27 
REMARK   10  A    between atoms: C_30  and  O_31 
ROOT
HETATM    1  N   UNL     1     -43.511  58.444 -53.339  1.00  0.00    -0.319 N 
HETATM    2  C   UNL     1     -43.326  57.062 -53.473  1.00  0.00     0.332 C 
HETATM    3  O   UNL     1     -44.259  56.282 -53.597  1.00  0.00    -0.246 OA
HETATM    4  N   UNL     1     -41.978  56.788 -53.367  1.00  0.00    -0.232 N 
HETATM    5  C   UNL     1     -41.345  57.920 -52.920  1.00  0.00     0.256 C 
HETATM    6  O   UNL     1     -40.198  58.058 -52.501  1.00  0.00    -0.270 OA
HETATM    7  C   UNL     1     -42.261  59.128 -53.078  1.00  0.00     0.190 C 
ENDROOT
BRANCH   7   8
HETATM    8  C   UNL     1     -41.760  59.918 -54.285  1.00  0.00     0.138 C 
BRANCH   8   9
HETATM    9  C   UNL     1     -42.442  59.576 -55.601  1.00  0.00     0.224 C 
HETATM   10  N   UNL     1     -41.870  58.536 -56.304  1.00  0.00    -0.327 N 
HETATM   11  H   UNL     1     -40.940  58.217 -56.035  1.00  0.00     0.169 HD
HETATM   12  O   UNL     1     -43.463  60.178 -55.926  1.00  0.00    -0.273 OA
BRANCH  10  13
HETATM   13  C   UNL     1     -42.423  57.828 -57.389  1.00  0.00     0.034 A 
HETATM   14  C   UNL     1     -42.131  58.303 -58.672  1.00  0.00     0.032 A 
HETATM   15  C   UNL     1     -42.586  57.620 -59.802  1.00  0.00     0.039 A 
HETATM   16  C   UNL     1     -43.298  56.431 -59.665  1.00  0.00     0.068 A 
HETATM   17  C   UNL     1     -43.610  55.962 -58.389  1.00  0.00     0.039 A 
HETATM   18  C   UNL     1     -43.180  56.663 -57.254  1.00  0.00     0.032 A 
BRANCH  16  19
HETATM   19  O   UNL     1     -43.663  55.828 -60.837  1.00  0.00    -0.356 OA
HETATM   20  C   UNL     1     -44.813  54.992 -60.753  1.00  0.00     0.210 C 
ENDBRANCH  16  19
ENDBRANCH  10  13
ENDBRANCH   8   9
ENDBRANCH   7   8
BRANCH   1  21
HETATM   21  C   UNL     1     -44.815  58.987 -52.959  1.00  0.00     0.133 C 
BRANCH  21  22
HETATM   22  C   UNL     1     -45.144  58.901 -51.467  1.00  0.00     0.058 C 
BRANCH  22  23
HETATM   23  C   UNL     1     -45.087  60.254 -50.801  1.00  0.00    -0.057 A 
HETATM   24  C   UNL     1     -46.217  61.081 -50.757  1.00  0.00     0.010 A 
HETATM   25  C   UNL     1     -46.155  62.342 -50.152  1.00  0.00     0.037 A 
HETATM   26  C   UNL     1     -44.964  62.791 -49.583  1.00  0.00     0.068 A 
HETATM   27  C   UNL     1     -43.836  61.971 -49.633  1.00  0.00     0.037 A 
HETATM   28  C   UNL     1     -43.894  60.711 -50.237  1.00  0.00     0.010 A 
BRANCH  26  29
HETATM   29  O   UNL     1     -44.770  63.993 -48.961  1.00  0.00    -0.356 OA
HETATM   30  C   UNL     1     -45.207  64.099 -47.612  1.00  0.00     0.210 C 
ENDBRANCH  26  29
ENDBRANCH  22  23
ENDBRANCH  21  22
ENDBRANCH   1  21
BRANCH   4  31
HETATM   31  C   UNL     1     -41.348  55.529 -53.614  1.00  0.00     0.047 A 
HETATM   32  C   UNL     1     -41.326  54.506 -52.655  1.00  0.00     0.033 A 
HETATM   33  C   UNL     1     -40.780  53.245 -52.940  1.00  0.00     0.039 A 
HETATM   34  C   UNL     1     -40.258  52.959 -54.197  1.00  0.00     0.068 A 
HETATM   35  C   UNL     1     -40.245  53.962 -55.156  1.00  0.00     0.039 A 
HETATM   36  C   UNL     1     -40.784  55.226 -54.866  1.00  0.00     0.033 A 
BRANCH  34  37
HETATM   37  O   UNL     1     -39.790  51.686 -54.361  1.00  0.00    -0.356 OA
HETATM   38  C   UNL     1     -39.573  50.934 -53.173  1.00  0.00     0.210 C 
ENDBRANCH  34  37
ENDBRANCH   4  31
TORSDOF 10
ENDMDL
