MODEL 1
REMARK VINA RESULT:      -7.7      0.000      0.000
REMARK  5 active torsions:
REMARK  status: ('A' for Active; 'I' for Inactive)
REMARK    1  A    between atoms: C_6  and  C_7 
REMARK    2  A    between atoms: C_7  and  C_8 
REMARK    3  A    between atoms: C_8  and  C_9 
REMARK    4  A    between atoms: C_9  and  N_10 
REMARK    5  A    between atoms: C_9  and  C_14 
ROOT
HETATM    1  C   UNL     1     -42.567  56.055 -50.609  1.00  0.00     0.253 C 
ENDROOT
BRANCH   1   2
HETATM    2  C   UNL     1     -42.165  54.714 -49.963  1.00  0.00     0.048 C 
BRANCH   2   3
HETATM    3  C   UNL     1     -40.665  54.390 -49.910  1.00  0.00     0.081 C 
BRANCH   3   4
HETATM    4  C   UNL     1     -40.309  53.271 -50.823  1.00  0.00     0.105 A 
HETATM    5  N   UNL     1     -40.046  52.039 -50.429  1.00  0.00    -0.233 NA
HETATM    6  C   UNL     1     -39.877  51.319 -51.593  1.00  0.00     0.085 A 
HETATM    7  C   UNL     1     -40.026  52.138 -52.706  1.00  0.00     0.062 A 
HETATM    8  C   UNL     1     -39.618  49.953 -51.774  1.00  0.00     0.034 A 
HETATM    9  C   UNL     1     -39.934  51.672 -54.018  1.00  0.00     0.032 A 
HETATM   10  N   UNL     1     -40.261  53.386 -52.190  1.00  0.00    -0.343 N 
HETATM   11  C   UNL     1     -39.685  50.305 -54.181  1.00  0.00     0.002 A 
HETATM   12  C   UNL     1     -39.527  49.458 -53.082  1.00  0.00     0.002 A 
HETATM   13  H   UNL     1     -40.406  54.228 -52.732  1.00  0.00     0.167 HD
ENDBRANCH   3   4
ENDBRANCH   2   3
ENDBRANCH   1   2
BRANCH   1  14
HETATM   14  N   UNL     1     -41.576  57.113 -50.294  1.00  0.00    -0.068 N 
HETATM   15  H   UNL     1     -41.914  58.037 -50.580  1.00  0.00     0.275 HD
HETATM   16  H   UNL     1     -41.428  57.161 -49.279  1.00  0.00     0.275 HD
HETATM   17  H   UNL     1     -40.669  56.881 -50.740  1.00  0.00     0.275 HD
ENDBRANCH   1  14
BRANCH   1  18
HETATM   18  C   UNL     1     -42.669  55.925 -52.093  1.00  0.00     0.136 A 
HETATM   19  N   UNL     1     -42.941  54.806 -52.735  1.00  0.00    -0.231 NA
HETATM   20  C   UNL     1     -42.897  55.132 -54.072  1.00  0.00     0.085 A 
HETATM   21  C   UNL     1     -42.559  56.470 -54.241  1.00  0.00     0.062 A 
HETATM   22  C   UNL     1     -43.125  54.334 -55.201  1.00  0.00     0.034 A 
HETATM   23  N   UNL     1     -42.425  56.957 -52.967  1.00  0.00    -0.341 N 
HETATM   24  C   UNL     1     -42.416  57.073 -55.491  1.00  0.00     0.032 A 
HETATM   25  H   UNL     1     -42.175  57.910 -52.735  1.00  0.00     0.167 HD
HETATM   26  C   UNL     1     -42.642  56.261 -56.607  1.00  0.00     0.002 A 
HETATM   27  C   UNL     1     -42.994  54.916 -56.468  1.00  0.00     0.002 A 
ENDBRANCH   1  18
TORSDOF 5
ENDMDL
MODEL 2
REMARK VINA RESULT:      -7.7      2.158      3.561
REMARK  5 active torsions:
REMARK  status: ('A' for Active; 'I' for Inactive)
REMARK    1  A    between atoms: C_6  and  C_7 
REMARK    2  A    between atoms: C_7  and  C_8 
REMARK    3  A    between atoms: C_8  and  C_9 
REMARK    4  A    between atoms: C_9  and  N_10 
REMARK    5  A    between atoms: C_9  and  C_14 
ROOT
HETATM    1  C   UNL     1     -43.369  55.083 -54.763  1.00  0.00     0.253 C 
ENDROOT
BRANCH   1   2
HETATM    2  C   UNL     1     -42.319  55.421 -53.685  1.00  0.00     0.048 C 
BRANCH   2   3
HETATM    3  C   UNL     1     -40.852  55.116 -54.022  1.00  0.00     0.081 C 
BRANCH   3   4
HETATM    4  C   UNL     1     -40.440  53.774 -53.531  1.00  0.00     0.105 A 
HETATM    5  N   UNL     1     -40.260  53.465 -52.260  1.00  0.00    -0.233 NA
HETATM    6  C   UNL     1     -39.994  52.112 -52.253  1.00  0.00     0.085 A 
HETATM    7  C   UNL     1     -40.000  51.602 -53.547  1.00  0.00     0.062 A 
HETATM    8  C   UNL     1     -39.763  51.248 -51.175  1.00  0.00     0.034 A 
HETATM    9  C   UNL     1     -39.786  50.255 -53.841  1.00  0.00     0.032 A 
HETATM   10  N   UNL     1     -40.246  52.688 -54.348  1.00  0.00    -0.343 N 
HETATM   11  C   UNL     1     -39.567  49.404 -52.752  1.00  0.00     0.002 A 
HETATM   12  C   UNL     1     -39.553  49.888 -51.441  1.00  0.00     0.002 A 
HETATM   13  H   UNL     1     -40.305  52.672 -55.358  1.00  0.00     0.167 HD
ENDBRANCH   3   4
ENDBRANCH   2   3
ENDBRANCH   1   2
BRANCH   1  14
HETATM   14  N   UNL     1     -44.729  55.475 -54.319  1.00  0.00    -0.068 N 
HETATM   15  H   UNL     1     -45.384  54.689 -54.389  1.00  0.00     0.275 HD
HETATM   16  H   UNL     1     -44.708  55.744 -53.329  1.00  0.00     0.275 HD
HETATM   17  H   UNL     1     -45.050  56.293 -54.868  1.00  0.00     0.275 HD
ENDBRANCH   1  14
BRANCH   1  18
HETATM   18  C   UNL     1     -43.065  55.787 -56.044  1.00  0.00     0.136 A 
HETATM   19  N   UNL     1     -42.659  57.037 -56.140  1.00  0.00    -0.231 NA
HETATM   20  C   UNL     1     -42.541  57.280 -57.490  1.00  0.00     0.085 A 
HETATM   21  C   UNL     1     -42.915  56.162 -58.226  1.00  0.00     0.062 A 
HETATM   22  C   UNL     1     -42.128  58.438 -58.163  1.00  0.00     0.034 A 
HETATM   23  N   UNL     1     -43.239  55.220 -57.284  1.00  0.00    -0.341 N 
HETATM   24  C   UNL     1     -42.919  56.127 -59.621  1.00  0.00     0.032 A 
HETATM   25  H   UNL     1     -43.562  54.283 -57.490  1.00  0.00     0.167 HD
HETATM   26  C   UNL     1     -42.509  57.292 -60.277  1.00  0.00     0.002 A 
HETATM   27  C   UNL     1     -42.116  58.428 -59.564  1.00  0.00     0.002 A 
ENDBRANCH   1  18
TORSDOF 5
ENDMDL
MODEL 3
REMARK VINA RESULT:      -7.4      0.890      5.648
REMARK  5 active torsions:
REMARK  status: ('A' for Active; 'I' for Inactive)
REMARK    1  A    between atoms: C_6  and  C_7 
REMARK    2  A    between atoms: C_7  and  C_8 
REMARK    3  A    between atoms: C_8  and  C_9 
REMARK    4  A    between atoms: C_9  and  N_10 
REMARK    5  A    between atoms: C_9  and  C_14 
ROOT
HETATM    1  C   UNL     1     -40.585  54.798 -50.133  1.00  0.00     0.253 C 
ENDROOT
BRANCH   1   2
HETATM    2  C   UNL     1     -41.993  55.368 -50.404  1.00  0.00     0.048 C 
BRANCH   2   3
HETATM    3  C   UNL     1     -42.067  56.733 -51.103  1.00  0.00     0.081 C 
BRANCH   3   4
HETATM    4  C   UNL     1     -42.342  56.594 -52.558  1.00  0.00     0.105 A 
HETATM    5  N   UNL     1     -42.293  57.586 -53.427  1.00  0.00    -0.233 NA
HETATM    6  C   UNL     1     -42.505  56.998 -54.656  1.00  0.00     0.085 A 
HETATM    7  C   UNL     1     -42.700  55.628 -54.520  1.00  0.00     0.062 A 
HETATM    8  C   UNL     1     -42.519  57.570 -55.935  1.00  0.00     0.034 A 
HETATM    9  C   UNL     1     -42.911  54.772 -55.602  1.00  0.00     0.032 A 
HETATM   10  N   UNL     1     -42.632  55.400 -53.169  1.00  0.00    -0.343 N 
HETATM   11  C   UNL     1     -42.913  55.359 -56.872  1.00  0.00     0.002 A 
HETATM   12  C   UNL     1     -42.723  56.732 -57.040  1.00  0.00     0.002 A 
HETATM   13  H   UNL     1     -42.743  54.500 -52.719  1.00  0.00     0.167 HD
ENDBRANCH   3   4
ENDBRANCH   2   3
ENDBRANCH   1   2
BRANCH   1  14
HETATM   14  N   UNL     1     -40.441  54.397 -48.712  1.00  0.00    -0.068 N 
HETATM   15  H   UNL     1     -39.585  53.853 -48.564  1.00  0.00     0.275 HD
HETATM   16  H   UNL     1     -40.357  55.232 -48.121  1.00  0.00     0.275 HD
HETATM   17  H   UNL     1     -41.285  53.875 -48.412  1.00  0.00     0.275 HD
ENDBRANCH   1  14
BRANCH   1  18
HETATM   18  C   UNL     1     -40.316  53.608 -50.994  1.00  0.00     0.136 A 
HETATM   19  N   UNL     1     -40.388  53.597 -52.309  1.00  0.00    -0.231 NA
HETATM   20  C   UNL     1     -40.104  52.302 -52.681  1.00  0.00     0.085 A 
HETATM   21  C   UNL     1     -39.888  51.507 -51.561  1.00  0.00     0.062 A 
HETATM   22  C   UNL     1     -40.021  51.728 -53.956  1.00  0.00     0.034 A 
HETATM   23  N   UNL     1     -40.021  52.361 -50.498  1.00  0.00    -0.341 N 
HETATM   24  C   UNL     1     -39.604  50.142 -51.633  1.00  0.00     0.032 A 
HETATM   25  H   UNL     1     -39.930  52.094 -49.526  1.00  0.00     0.167 HD
HETATM   26  C   UNL     1     -39.530  49.584 -52.913  1.00  0.00     0.002 A 
HETATM   27  C   UNL     1     -39.732  50.361 -54.057  1.00  0.00     0.002 A 
ENDBRANCH   1  18
TORSDOF 5
ENDMDL
MODEL 4
REMARK VINA RESULT:      -7.2      2.033      6.295
REMARK  5 active torsions:
REMARK  status: ('A' for Active; 'I' for Inactive)
REMARK    1  A    between atoms: C_6  and  C_7 
REMARK    2  A    between atoms: C_7  and  C_8 
REMARK    3  A    between atoms: C_8  and  C_9 
REMARK    4  A    between atoms: C_9  and  N_10 
REMARK    5  A    between atoms: C_9  and  C_14 
ROOT
HETATM    1  C   UNL     1     -43.290  56.277 -52.017  1.00  0.00     0.253 C 
ENDROOT
BRANCH   1   2
HETATM    2  C   UNL     1     -43.966  56.860 -53.275  1.00  0.00     0.048 C 
BRANCH   2   3
HETATM    3  C   UNL     1     -43.200  57.955 -54.032  1.00  0.00     0.081 C 
BRANCH   3   4
HETATM    4  C   UNL     1     -43.095  57.652 -55.485  1.00  0.00     0.105 A 
HETATM    5  N   UNL     1     -42.524  58.442 -56.375  1.00  0.00    -0.233 NA
HETATM    6  C   UNL     1     -42.556  57.733 -57.557  1.00  0.00     0.085 A 
HETATM    7  C   UNL     1     -43.172  56.500 -57.376  1.00  0.00     0.062 A 
HETATM    8  C   UNL     1     -42.053  58.071 -58.821  1.00  0.00     0.034 A 
HETATM    9  C   UNL     1     -43.322  55.560 -58.396  1.00  0.00     0.032 A 
HETATM   10  N   UNL     1     -43.545  56.488 -56.056  1.00  0.00    -0.343 N 
HETATM   11  C   UNL     1     -42.806  55.910 -59.649  1.00  0.00     0.002 A 
HETATM   12  C   UNL     1     -42.184  57.142 -59.862  1.00  0.00     0.002 A 
HETATM   13  H   UNL     1     -44.032  55.734 -55.590  1.00  0.00     0.167 HD
ENDBRANCH   3   4
ENDBRANCH   2   3
ENDBRANCH   1   2
BRANCH   1  14
HETATM   14  N   UNL     1     -44.304  55.813 -51.039  1.00  0.00    -0.068 N 
HETATM   15  H   UNL     1     -44.727  56.602 -50.540  1.00  0.00     0.275 HD
HETATM   16  H   UNL     1     -45.070  55.338 -51.529  1.00  0.00     0.275 HD
HETATM   17  H   UNL     1     -43.869  55.135 -50.386  1.00  0.00     0.275 HD
ENDBRANCH   1  14
BRANCH   1  18
HETATM   18  C   UNL     1     -42.406  55.127 -52.370  1.00  0.00     0.136 A 
HETATM   19  N   UNL     1     -42.412  54.499 -53.528  1.00  0.00    -0.231 NA
HETATM   20  C   UNL     1     -41.480  53.494 -53.404  1.00  0.00     0.085 A 
HETATM   21  C   UNL     1     -40.922  53.495 -52.130  1.00  0.00     0.062 A 
HETATM   22  C   UNL     1     -41.061  52.533 -54.334  1.00  0.00     0.034 A 
HETATM   23  N   UNL     1     -41.522  54.548 -51.490  1.00  0.00    -0.341 N 
HETATM   24  C   UNL     1     -39.965  52.571 -51.710  1.00  0.00     0.032 A 
HETATM   25  H   UNL     1     -41.342  54.823 -50.533  1.00  0.00     0.167 HD
HETATM   26  C   UNL     1     -39.562  51.615 -52.649  1.00  0.00     0.002 A 
HETATM   27  C   UNL     1     -40.097  51.596 -53.940  1.00  0.00     0.002 A 
ENDBRANCH   1  18
TORSDOF 5
ENDMDL
MODEL 5
REMARK VINA RESULT:      -7.1      1.936      6.277
REMARK  5 active torsions:
REMARK  status: ('A' for Active; 'I' for Inactive)
REMARK    1  A    between atoms: C_6  and  C_7 
REMARK    2  A    between atoms: C_7  and  C_8 
REMARK    3  A    between atoms: C_8  and  C_9 
REMARK    4  A    between atoms: C_9  and  N_10 
REMARK    5  A    between atoms: C_9  and  C_14 
ROOT
HETATM    1  C   UNL     1     -42.541  56.251 -52.236  1.00  0.00     0.253 C 
ENDROOT
BRANCH   1   2
HETATM    2  C   UNL     1     -41.889  57.385 -53.053  1.00  0.00     0.048 C 
BRANCH   2   3
HETATM    3  C   UNL     1     -42.806  58.180 -53.994  1.00  0.00     0.081 C 
BRANCH   3   4
HETATM    4  C   UNL     1     -42.684  57.719 -55.403  1.00  0.00     0.105 A 
HETATM    5  N   UNL     1     -43.046  56.526 -55.834  1.00  0.00    -0.233 NA
HETATM    6  C   UNL     1     -42.863  56.566 -57.200  1.00  0.00     0.085 A 
HETATM    7  C   UNL     1     -42.366  57.803 -57.594  1.00  0.00     0.062 A 
HETATM    8  C   UNL     1     -43.124  55.589 -58.170  1.00  0.00     0.034 A 
HETATM    9  C   UNL     1     -42.109  58.138 -58.924  1.00  0.00     0.032 A 
HETATM   10  N   UNL     1     -42.222  58.508 -56.426  1.00  0.00    -0.343 N 
HETATM   11  C   UNL     1     -42.385  57.154 -59.881  1.00  0.00     0.002 A 
HETATM   12  C   UNL     1     -42.881  55.901 -59.514  1.00  0.00     0.002 A 
HETATM   13  H   UNL     1     -41.869  59.453 -56.351  1.00  0.00     0.167 HD
ENDBRANCH   3   4
ENDBRANCH   2   3
ENDBRANCH   1   2
BRANCH   1  14
HETATM   14  N   UNL     1     -43.963  56.073 -52.619  1.00  0.00    -0.068 N 
HETATM   15  H   UNL     1     -44.535  55.806 -51.811  1.00  0.00     0.275 HD
HETATM   16  H   UNL     1     -44.345  56.963 -52.961  1.00  0.00     0.275 HD
HETATM   17  H   UNL     1     -44.031  55.379 -53.385  1.00  0.00     0.275 HD
ENDBRANCH   1  14
BRANCH   1  18
HETATM   18  C   UNL     1     -41.825  54.958 -52.450  1.00  0.00     0.136 A 
HETATM   19  N   UNL     1     -41.132  54.319 -51.530  1.00  0.00    -0.231 NA
HETATM   20  C   UNL     1     -40.618  53.210 -52.164  1.00  0.00     0.085 A 
HETATM   21  C   UNL     1     -40.983  53.197 -53.505  1.00  0.00     0.062 A 
HETATM   22  C   UNL     1     -39.821  52.173 -51.660  1.00  0.00     0.034 A 
HETATM   23  N   UNL     1     -41.757  54.317 -53.664  1.00  0.00    -0.341 N 
HETATM   24  C   UNL     1     -40.584  52.204 -54.400  1.00  0.00     0.032 A 
HETATM   25  H   UNL     1     -42.182  54.608 -54.535  1.00  0.00     0.167 HD
HETATM   26  C   UNL     1     -39.785  51.179 -53.882  1.00  0.00     0.002 A 
HETATM   27  C   UNL     1     -39.412  51.159 -52.536  1.00  0.00     0.002 A 
ENDBRANCH   1  18
TORSDOF 5
ENDMDL
MODEL 6
REMARK VINA RESULT:      -7.0      2.018      3.635
REMARK  5 active torsions:
REMARK  status: ('A' for Active; 'I' for Inactive)
REMARK    1  A    between atoms: C_6  and  C_7 
REMARK    2  A    between atoms: C_7  and  C_8 
REMARK    3  A    between atoms: C_8  and  C_9 
REMARK    4  A    between atoms: C_9  and  N_10 
REMARK    5  A    between atoms: C_9  and  C_14 
ROOT
HETATM    1  C   UNL     1     -43.456  57.884 -54.141  1.00  0.00     0.253 C 
ENDROOT
BRANCH   1   2
HETATM    2  C   UNL     1     -44.017  56.670 -53.374  1.00  0.00     0.048 C 
BRANCH   2   3
HETATM    3  C   UNL     1     -43.232  56.206 -52.137  1.00  0.00     0.081 C 
BRANCH   3   4
HETATM    4  C   UNL     1     -42.427  54.988 -52.419  1.00  0.00     0.105 A 
HETATM    5  N   UNL     1     -42.363  54.388 -53.592  1.00  0.00    -0.233 NA
HETATM    6  C   UNL     1     -41.433  53.383 -53.432  1.00  0.00     0.085 A 
HETATM    7  C   UNL     1     -40.940  53.370 -52.132  1.00  0.00     0.062 A 
HETATM    8  C   UNL     1     -40.940  52.458 -54.363  1.00  0.00     0.034 A 
HETATM    9  C   UNL     1     -39.965  52.476 -51.690  1.00  0.00     0.032 A 
HETATM   10  N   UNL     1     -41.619  54.377 -51.493  1.00  0.00    -0.343 N 
HETATM   11  C   UNL     1     -39.477  51.565 -52.634  1.00  0.00     0.002 A 
HETATM   12  C   UNL     1     -39.955  51.552 -53.947  1.00  0.00     0.002 A 
HETATM   13  H   UNL     1     -41.509  54.635 -50.521  1.00  0.00     0.167 HD
ENDBRANCH   3   4
ENDBRANCH   2   3
ENDBRANCH   1   2
BRANCH   1  14
HETATM   14  N   UNL     1     -42.197  58.367 -53.522  1.00  0.00    -0.068 N 
HETATM   15  H   UNL     1     -41.993  57.861 -52.653  1.00  0.00     0.275 HD
HETATM   16  H   UNL     1     -41.408  58.187 -54.152  1.00  0.00     0.275 HD
HETATM   17  H   UNL     1     -42.258  59.390 -53.366  1.00  0.00     0.275 HD
ENDBRANCH   1  14
BRANCH   1  18
HETATM   18  C   UNL     1     -43.183  57.536 -55.567  1.00  0.00     0.136 A 
HETATM   19  N   UNL     1     -42.598  58.333 -56.439  1.00  0.00    -0.231 NA
HETATM   20  C   UNL     1     -42.586  57.632 -57.624  1.00  0.00     0.085 A 
HETATM   21  C   UNL     1     -43.207  56.397 -57.471  1.00  0.00     0.062 A 
HETATM   22  C   UNL     1     -42.070  57.990 -58.877  1.00  0.00     0.034 A 
HETATM   23  N   UNL     1     -43.573  56.355 -56.151  1.00  0.00    -0.341 N 
HETATM   24  C   UNL     1     -43.363  55.482 -58.513  1.00  0.00     0.032 A 
HETATM   25  H   UNL     1     -44.058  55.584 -55.710  1.00  0.00     0.167 HD
HETATM   26  C   UNL     1     -42.847  55.858 -59.758  1.00  0.00     0.002 A 
HETATM   27  C   UNL     1     -42.208  57.087 -59.939  1.00  0.00     0.002 A 
ENDBRANCH   1  18
TORSDOF 5
ENDMDL
MODEL 7
REMARK VINA RESULT:      -7.0      1.735      6.290
REMARK  5 active torsions:
REMARK  status: ('A' for Active; 'I' for Inactive)
REMARK    1  A    between atoms: C_6  and  C_7 
REMARK    2  A    between atoms: C_7  and  C_8 
REMARK    3  A    between atoms: C_8  and  C_9 
REMARK    4  A    between atoms: C_9  and  N_10 
REMARK    5  A    between atoms: C_9  and  C_14 
ROOT
HETATM    1  C   UNL     1     -40.518  54.462 -50.393  1.00  0.00     0.253 C 
ENDROOT
BRANCH   1   2
HETATM    2  C   UNL     1     -41.957  54.435 -49.839  1.00  0.00     0.048 C 
BRANCH   2   3
HETATM    3  C   UNL     1     -43.074  54.911 -50.780  1.00  0.00     0.081 C 
BRANCH   3   4
HETATM    4  C   UNL     1     -42.706  56.171 -51.480  1.00  0.00     0.105 A 
HETATM    5  N   UNL     1     -42.314  56.241 -52.739  1.00  0.00    -0.233 NA
HETATM    6  C   UNL     1     -42.184  57.588 -53.000  1.00  0.00     0.085 A 
HETATM    7  C   UNL     1     -42.488  58.341 -51.871  1.00  0.00     0.062 A 
HETATM    8  C   UNL     1     -41.833  58.243 -54.189  1.00  0.00     0.034 A 
HETATM    9  C   UNL     1     -42.466  59.736 -51.851  1.00  0.00     0.032 A 
HETATM   10  N   UNL     1     -42.778  57.414 -50.903  1.00  0.00    -0.343 N 
HETATM   11  C   UNL     1     -42.123  60.374 -53.049  1.00  0.00     0.002 A 
HETATM   12  C   UNL     1     -41.810  59.644 -54.198  1.00  0.00     0.002 A 
HETATM   13  H   UNL     1     -43.033  57.624 -49.947  1.00  0.00     0.167 HD
ENDBRANCH   3   4
ENDBRANCH   2   3
ENDBRANCH   1   2
BRANCH   1  14
HETATM   14  N   UNL     1     -39.526  54.426 -49.290  1.00  0.00    -0.068 N 
HETATM   15  H   UNL     1     -39.111  55.350 -49.134  1.00  0.00     0.275 HD
HETATM   16  H   UNL     1     -39.990  54.166 -48.413  1.00  0.00     0.275 HD
HETATM   17  H   UNL     1     -38.805  53.711 -49.497  1.00  0.00     0.275 HD
ENDBRANCH   1  14
BRANCH   1  18
HETATM   18  C   UNL     1     -40.270  53.299 -51.295  1.00  0.00     0.136 A 
HETATM   19  N   UNL     1     -40.412  53.318 -52.605  1.00  0.00    -0.231 NA
HETATM   20  C   UNL     1     -40.121  52.038 -53.022  1.00  0.00     0.085 A 
HETATM   21  C   UNL     1     -39.830  51.221 -51.935  1.00  0.00     0.062 A 
HETATM   22  C   UNL     1     -40.095  51.496 -54.314  1.00  0.00     0.034 A 
HETATM   23  N   UNL     1     -39.925  52.047 -50.846  1.00  0.00    -0.341 N 
HETATM   24  C   UNL     1     -39.523  49.865 -52.055  1.00  0.00     0.032 A 
HETATM   25  H   UNL     1     -39.777  51.759 -49.887  1.00  0.00     0.167 HD
HETATM   26  C   UNL     1     -39.506  49.339 -53.351  1.00  0.00     0.002 A 
HETATM   27  C   UNL     1     -39.783  50.138 -54.463  1.00  0.00     0.002 A 
ENDBRANCH   1  18
TORSDOF 5
ENDMDL
MODEL 8
REMARK VINA RESULT:      -6.9     13.264     15.972
REMARK  5 active torsions:
REMARK  status: ('A' for Active; 'I' for Inactive)
REMARK    1  A    between atoms: C_6  and  C_7 
REMARK    2  A    between atoms: C_7  and  C_8 
REMARK    3  A    between atoms: C_8  and  C_9 
REMARK    4  A    between atoms: C_9  and  N_10 
REMARK    5  A    between atoms: C_9  and  C_14 
ROOT
HETATM    1  C   UNL     1     -36.865  42.274 -55.810  1.00  0.00     0.253 C 
ENDROOT
BRANCH   1   2
HETATM    2  C   UNL     1     -36.178  41.899 -57.139  1.00  0.00     0.048 C 
BRANCH   2   3
HETATM    3  C   UNL     1     -36.927  42.252 -58.433  1.00  0.00     0.081 C 
BRANCH   3   4
HETATM    4  C   UNL     1     -37.374  41.034 -59.161  1.00  0.00     0.105 A 
HETATM    5  N   UNL     1     -38.242  40.158 -58.692  1.00  0.00    -0.233 NA
HETATM    6  C   UNL     1     -38.443  39.264 -59.722  1.00  0.00     0.085 A 
HETATM    7  C   UNL     1     -37.669  39.602 -60.826  1.00  0.00     0.062 A 
HETATM    8  C   UNL     1     -39.294  38.152 -59.794  1.00  0.00     0.034 A 
HETATM    9  C   UNL     1     -37.689  38.888 -62.025  1.00  0.00     0.032 A 
HETATM   10  N   UNL     1     -36.965  40.711 -60.430  1.00  0.00    -0.343 N 
HETATM   11  C   UNL     1     -38.551  37.787 -62.082  1.00  0.00     0.002 A 
HETATM   12  C   UNL     1     -39.339  37.421 -60.988  1.00  0.00     0.002 A 
HETATM   13  H   UNL     1     -36.292  41.212 -60.996  1.00  0.00     0.167 HD
ENDBRANCH   3   4
ENDBRANCH   2   3
ENDBRANCH   1   2
BRANCH   1  14
HETATM   14  N   UNL     1     -38.189  41.616 -55.695  1.00  0.00    -0.068 N 
HETATM   15  H   UNL     1     -38.940  42.306 -55.593  1.00  0.00     0.275 HD
HETATM   16  H   UNL     1     -38.394  41.092 -56.554  1.00  0.00     0.275 HD
HETATM   17  H   UNL     1     -38.174  40.945 -54.905  1.00  0.00     0.275 HD
ENDBRANCH   1  14
BRANCH   1  18
HETATM   18  C   UNL     1     -36.028  41.869 -54.642  1.00  0.00     0.136 A 
HETATM   19  N   UNL     1     -36.105  42.400 -53.439  1.00  0.00    -0.231 NA
HETATM   20  C   UNL     1     -35.138  41.763 -52.695  1.00  0.00     0.085 A 
HETATM   21  C   UNL     1     -34.439  40.849 -53.477  1.00  0.00     0.062 A 
HETATM   22  C   UNL     1     -34.790  41.918 -51.347  1.00  0.00     0.034 A 
HETATM   23  N   UNL     1     -35.028  40.929 -54.712  1.00  0.00    -0.341 N 
HETATM   24  C   UNL     1     -33.384  40.074 -52.994  1.00  0.00     0.032 A 
HETATM   25  H   UNL     1     -34.748  40.391 -55.522  1.00  0.00     0.167 HD
HETATM   26  C   UNL     1     -33.047  40.246 -51.647  1.00  0.00     0.002 A 
HETATM   27  C   UNL     1     -33.738  41.148 -50.835  1.00  0.00     0.002 A 
ENDBRANCH   1  18
TORSDOF 5
ENDMDL
MODEL 9
REMARK VINA RESULT:      -6.9      1.864      6.473
REMARK  5 active torsions:
REMARK  status: ('A' for Active; 'I' for Inactive)
REMARK    1  A    between atoms: C_6  and  C_7 
REMARK    2  A    between atoms: C_7  and  C_8 
REMARK    3  A    between atoms: C_8  and  C_9 
REMARK    4  A    between atoms: C_9  and  N_10 
REMARK    5  A    between atoms: C_9  and  C_14 
ROOT
HETATM    1  C   UNL     1     -41.325  55.610 -52.628  1.00  0.00     0.253 C 
ENDROOT
BRANCH   1   2
HETATM    2  C   UNL     1     -42.780  55.773 -53.115  1.00  0.00     0.048 C 
BRANCH   2   3
HETATM    3  C   UNL     1     -43.126  57.078 -53.846  1.00  0.00     0.081 C 
BRANCH   3   4
HETATM    4  C   UNL     1     -42.888  56.971 -55.310  1.00  0.00     0.105 A 
HETATM    5  N   UNL     1     -43.236  55.937 -56.052  1.00  0.00    -0.233 NA
HETATM    6  C   UNL     1     -42.928  56.302 -57.345  1.00  0.00     0.085 A 
HETATM    7  C   UNL     1     -42.370  57.575 -57.378  1.00  0.00     0.062 A 
HETATM    8  C   UNL     1     -43.121  55.605 -58.546  1.00  0.00     0.034 A 
HETATM    9  C   UNL     1     -41.985  58.213 -58.558  1.00  0.00     0.032 A 
HETATM   10  N   UNL     1     -42.316  57.965 -56.065  1.00  0.00    -0.343 N 
HETATM   11  C   UNL     1     -42.194  57.507 -59.748  1.00  0.00     0.002 A 
HETATM   12  C   UNL     1     -42.750  56.226 -59.746  1.00  0.00     0.002 A 
HETATM   13  H   UNL     1     -41.950  58.847 -55.728  1.00  0.00     0.167 HD
ENDBRANCH   3   4
ENDBRANCH   2   3
ENDBRANCH   1   2
BRANCH   1  14
HETATM   14  N   UNL     1     -41.196  56.009 -51.205  1.00  0.00    -0.068 N 
HETATM   15  H   UNL     1     -41.449  55.238 -50.578  1.00  0.00     0.275 HD
HETATM   16  H   UNL     1     -40.219  56.242 -50.996  1.00  0.00     0.275 HD
HETATM   17  H   UNL     1     -41.772  56.853 -51.029  1.00  0.00     0.275 HD
ENDBRANCH   1  14
BRANCH   1  18
HETATM   18  C   UNL     1     -40.869  54.196 -52.770  1.00  0.00     0.136 A 
HETATM   19  N   UNL     1     -40.941  53.488 -53.879  1.00  0.00    -0.231 NA
HETATM   20  C   UNL     1     -40.452  52.243 -53.551  1.00  0.00     0.085 A 
HETATM   21  C   UNL     1     -40.108  52.190 -52.205  1.00  0.00     0.062 A 
HETATM   22  C   UNL     1     -40.281  51.104 -54.348  1.00  0.00     0.034 A 
HETATM   23  N   UNL     1     -40.375  53.447 -51.729  1.00  0.00    -0.341 N 
HETATM   24  C   UNL     1     -39.607  51.044 -51.586  1.00  0.00     0.032 A 
HETATM   25  H   UNL     1     -40.240  53.744 -50.771  1.00  0.00     0.167 HD
HETATM   26  C   UNL     1     -39.447  49.914 -52.395  1.00  0.00     0.002 A 
HETATM   27  C   UNL     1     -39.774  49.941 -53.753  1.00  0.00     0.002 A 
ENDBRANCH   1  18
TORSDOF 5
ENDMDL
MODEL 10
REMARK VINA RESULT:      -6.8      2.641      7.177
REMARK  5 active torsions:
REMARK  status: ('A' for Active; 'I' for Inactive)
REMARK    1  A    between atoms: C_6  and  C_7 
REMARK    2  A    between atoms: C_7  and  C_8 
REMARK    3  A    between atoms: C_8  and  C_9 
REMARK    4  A    between atoms: C_9  and  N_10 
REMARK    5  A    between atoms: C_9  and  C_14 
ROOT
HETATM    1  C   UNL     1     -40.674  54.793 -50.518  1.00  0.00     0.253 C 
ENDROOT
BRANCH   1   2
HETATM    2  C   UNL     1     -41.513  55.732 -51.409  1.00  0.00     0.048 C 
BRANCH   2   3
HETATM    3  C   UNL     1     -43.039  55.567 -51.348  1.00  0.00     0.081 C 
BRANCH   3   4
HETATM    4  C   UNL     1     -43.744  56.850 -51.611  1.00  0.00     0.105 A 
HETATM    5  N   UNL     1     -43.704  57.505 -52.756  1.00  0.00    -0.233 NA
HETATM    6  C   UNL     1     -44.571  58.564 -52.595  1.00  0.00     0.085 A 
HETATM    7  C   UNL     1     -45.131  58.554 -51.322  1.00  0.00     0.062 A 
HETATM    8  C   UNL     1     -44.949  59.562 -53.504  1.00  0.00     0.034 A 
HETATM    9  C   UNL     1     -46.066  59.494 -50.888  1.00  0.00     0.032 A 
HETATM   10  N   UNL     1     -44.557  57.475 -50.699  1.00  0.00    -0.343 N 
HETATM   11  C   UNL     1     -46.440  60.477 -51.811  1.00  0.00     0.002 A 
HETATM   12  C   UNL     1     -45.892  60.515 -53.096  1.00  0.00     0.002 A 
HETATM   13  H   UNL     1     -44.737  57.182 -49.748  1.00  0.00     0.167 HD
ENDBRANCH   3   4
ENDBRANCH   2   3
ENDBRANCH   1   2
BRANCH   1  14
HETATM   14  N   UNL     1     -41.370  54.515 -49.238  1.00  0.00    -0.068 N 
HETATM   15  H   UNL     1     -41.848  55.351 -48.886  1.00  0.00     0.275 HD
HETATM   16  H   UNL     1     -42.099  53.807 -49.384  1.00  0.00     0.275 HD
HETATM   17  H   UNL     1     -40.692  54.141 -48.550  1.00  0.00     0.275 HD
ENDBRANCH   1  14
BRANCH   1  18
HETATM   18  C   UNL     1     -40.409  53.496 -51.209  1.00  0.00     0.136 A 
HETATM   19  N   UNL     1     -40.099  52.369 -50.601  1.00  0.00    -0.231 NA
HETATM   20  C   UNL     1     -39.905  51.452 -51.609  1.00  0.00     0.085 A 
HETATM   21  C   UNL     1     -40.071  52.048 -52.855  1.00  0.00     0.062 A 
HETATM   22  C   UNL     1     -39.576  50.091 -51.539  1.00  0.00     0.034 A 
HETATM   23  N   UNL     1     -40.398  53.349 -52.575  1.00  0.00    -0.341 N 
HETATM   24  C   UNL     1     -39.911  51.364 -54.060  1.00  0.00     0.032 A 
HETATM   25  H   UNL     1     -40.580  54.062 -53.270  1.00  0.00     0.167 HD
HETATM   26  C   UNL     1     -39.577  50.009 -53.972  1.00  0.00     0.002 A 
HETATM   27  C   UNL     1     -39.416  49.380 -52.735  1.00  0.00     0.002 A 
ENDBRANCH   1  18
TORSDOF 5
ENDMDL
