MODEL 1
REMARK VINA RESULT:      -9.2      0.000      0.000
REMARK  3 active torsions:
REMARK  status: ('A' for Active; 'I' for Inactive)
REMARK    1  A    between atoms: C_3  and  C_4 
REMARK       I    between atoms: C_4  and  N_5 
REMARK    2  A    between atoms: N_5  and  C_6 
REMARK    3  A    between atoms: C_13  and  C_14 
REMARK       I    between atoms: C_14  and  N_15 
ROOT
HETATM    1  C   UNL     1     -42.435  55.374 -56.224  1.00  0.00     0.036 A 
HETATM    2  C   UNL     1     -43.078  55.049 -57.426  1.00  0.00     0.046 A 
HETATM    3  C   UNL     1     -43.570  56.083 -58.256  1.00  0.00     0.030 A 
HETATM    4  C   UNL     1     -43.408  57.402 -57.852  1.00  0.00     0.063 A 
HETATM    5  N   UNL     1     -43.977  58.156 -58.840  1.00  0.00    -0.277 N 
HETATM    6  H   UNL     1     -44.042  59.167 -58.879  1.00  0.00     0.189 HD
HETATM    7  N   UNL     1     -44.494  57.447 -59.854  1.00  0.00    -0.168 NA
HETATM    8  C   UNL     1     -44.252  56.161 -59.508  1.00  0.00     0.156 A 
HETATM    9  C   UNL     1     -42.777  57.762 -56.661  1.00  0.00     0.034 A 
HETATM   10  C   UNL     1     -42.295  56.720 -55.858  1.00  0.00     0.032 A 
ENDROOT
BRANCH   1  11
HETATM   11  N   UNL     1     -41.909  54.420 -55.325  1.00  0.00    -0.322 N 
HETATM   12  C   UNL     1     -40.599  54.273 -54.902  1.00  0.00     0.273 C 
HETATM   13  O   UNL     1     -39.675  55.004 -55.236  1.00  0.00    -0.266 OA
HETATM   14  H   UNL     1     -42.582  53.797 -54.906  1.00  0.00     0.169 HD
BRANCH  12  15
HETATM   15  C   UNL     1     -40.400  53.154 -53.981  1.00  0.00     0.104 A 
HETATM   16  N   UNL     1     -40.508  53.246 -52.599  1.00  0.00    -0.346 N 
HETATM   17  C   UNL     1     -40.879  54.453 -51.883  1.00  0.00     0.156 C 
HETATM   18  C   UNL     1     -40.230  52.031 -51.999  1.00  0.00     0.045 A 
HETATM   19  C   UNL     1     -39.948  51.127 -53.023  1.00  0.00    -0.007 A 
HETATM   20  C   UNL     1     -40.195  51.644 -50.648  1.00  0.00     0.030 A 
HETATM   21  C   UNL     1     -40.051  51.836 -54.247  1.00  0.00     0.049 A 
HETATM   22  C   UNL     1     -39.626  49.794 -52.697  1.00  0.00     0.014 A 
HETATM   23  C   UNL     1     -39.595  49.401 -51.356  1.00  0.00     0.001 A 
HETATM   24  C   UNL     1     -39.875  50.315 -50.347  1.00  0.00     0.002 A 
ENDBRANCH  12  15
ENDBRANCH   1  11
BRANCH   8  25
HETATM   25  C   UNL     1     -44.670  55.051 -60.375  1.00  0.00     0.270 C 
HETATM   26  N   UNL     1     -45.115  53.949 -59.695  1.00  0.00    -0.365 N 
HETATM   27  H   UNL     1     -45.124  53.975 -58.683  1.00  0.00     0.159 HD
HETATM   28  H   UNL     1     -45.424  53.138 -60.207  1.00  0.00     0.159 HD
HETATM   29  O   UNL     1     -44.642  55.070 -61.600  1.00  0.00    -0.266 OA
ENDBRANCH   8  25
TORSDOF 3
ENDMDL
MODEL 2
REMARK VINA RESULT:      -9.1      4.068      5.429
REMARK  3 active torsions:
REMARK  status: ('A' for Active; 'I' for Inactive)
REMARK    1  A    between atoms: C_3  and  C_4 
REMARK       I    between atoms: C_4  and  N_5 
REMARK    2  A    between atoms: N_5  and  C_6 
REMARK    3  A    between atoms: C_13  and  C_14 
REMARK       I    between atoms: C_14  and  N_15 
ROOT
HETATM    1  C   UNL     1     -43.629  56.682 -53.583  1.00  0.00     0.036 A 
HETATM    2  C   UNL     1     -44.041  57.439 -52.477  1.00  0.00     0.046 A 
HETATM    3  C   UNL     1     -44.810  58.607 -52.678  1.00  0.00     0.030 A 
HETATM    4  C   UNL     1     -45.135  58.982 -53.976  1.00  0.00     0.063 A 
HETATM    5  N   UNL     1     -45.866  60.130 -53.850  1.00  0.00    -0.277 N 
HETATM    6  H   UNL     1     -46.270  60.684 -54.596  1.00  0.00     0.189 HD
HETATM    7  N   UNL     1     -46.050  60.537 -52.585  1.00  0.00    -0.168 NA
HETATM    8  C   UNL     1     -45.402  59.606 -51.847  1.00  0.00     0.156 A 
HETATM    9  C   UNL     1     -44.739  58.257 -55.100  1.00  0.00     0.034 A 
HETATM   10  C   UNL     1     -43.980  57.101 -54.875  1.00  0.00     0.032 A 
ENDROOT
BRANCH   1  11
HETATM   11  N   UNL     1     -42.859  55.502 -53.492  1.00  0.00    -0.322 N 
HETATM   12  C   UNL     1     -41.488  55.361 -53.623  1.00  0.00     0.273 C 
HETATM   13  O   UNL     1     -40.709  56.289 -53.808  1.00  0.00    -0.266 OA
HETATM   14  H   UNL     1     -43.369  54.664 -53.259  1.00  0.00     0.169 HD
BRANCH  12  15
HETATM   15  C   UNL     1     -41.023  53.980 -53.497  1.00  0.00     0.104 A 
HETATM   16  N   UNL     1     -40.568  53.410 -52.314  1.00  0.00    -0.346 N 
HETATM   17  C   UNL     1     -40.536  54.091 -51.033  1.00  0.00     0.156 C 
HETATM   18  C   UNL     1     -40.164  52.102 -52.519  1.00  0.00     0.045 A 
HETATM   19  C   UNL     1     -40.378  51.818 -53.867  1.00  0.00    -0.007 A 
HETATM   20  C   UNL     1     -39.627  51.144 -51.643  1.00  0.00     0.030 A 
HETATM   21  C   UNL     1     -40.904  52.991 -54.465  1.00  0.00     0.049 A 
HETATM   22  C   UNL     1     -40.051  50.539 -54.362  1.00  0.00     0.014 A 
HETATM   23  C   UNL     1     -39.520  49.580 -53.496  1.00  0.00     0.001 A 
HETATM   24  C   UNL     1     -39.311  49.881 -52.155  1.00  0.00     0.002 A 
ENDBRANCH  12  15
ENDBRANCH   1  11
BRANCH   8  25
HETATM   25  C   UNL     1     -45.367  59.691 -50.380  1.00  0.00     0.270 C 
HETATM   26  N   UNL     1     -44.317  60.417 -49.887  1.00  0.00    -0.365 N 
HETATM   27  H   UNL     1     -43.663  60.829 -50.542  1.00  0.00     0.159 HD
HETATM   28  H   UNL     1     -44.212  60.531 -48.892  1.00  0.00     0.159 HD
HETATM   29  O   UNL     1     -46.188  59.174 -49.629  1.00  0.00    -0.266 OA
ENDBRANCH   8  25
TORSDOF 3
ENDMDL
MODEL 3
REMARK VINA RESULT:      -8.5      2.230      2.713
REMARK  3 active torsions:
REMARK  status: ('A' for Active; 'I' for Inactive)
REMARK    1  A    between atoms: C_3  and  C_4 
REMARK       I    between atoms: C_4  and  N_5 
REMARK    2  A    between atoms: N_5  and  C_6 
REMARK    3  A    between atoms: C_13  and  C_14 
REMARK       I    between atoms: C_14  and  N_15 
ROOT
HETATM    1  C   UNL     1     -43.472  56.434 -54.229  1.00  0.00     0.036 A 
HETATM    2  C   UNL     1     -43.833  56.810 -55.530  1.00  0.00     0.046 A 
HETATM    3  C   UNL     1     -44.594  57.985 -55.730  1.00  0.00     0.030 A 
HETATM    4  C   UNL     1     -44.971  58.737 -54.625  1.00  0.00     0.063 A 
HETATM    5  N   UNL     1     -45.684  59.789 -55.128  1.00  0.00    -0.277 N 
HETATM    6  H   UNL     1     -46.116  60.543 -54.606  1.00  0.00     0.189 HD
HETATM    7  N   UNL     1     -45.805  59.792 -56.464  1.00  0.00    -0.168 NA
HETATM    8  C   UNL     1     -45.136  58.682 -56.853  1.00  0.00     0.156 A 
HETATM    9  C   UNL     1     -44.634  58.391 -53.316  1.00  0.00     0.034 A 
HETATM   10  C   UNL     1     -43.877  57.224 -53.144  1.00  0.00     0.032 A 
ENDROOT
BRANCH   1  11
HETATM   11  N   UNL     1     -42.717  55.281 -53.919  1.00  0.00    -0.322 N 
HETATM   12  C   UNL     1     -41.340  55.137 -53.911  1.00  0.00     0.273 C 
HETATM   13  O   UNL     1     -40.545  56.039 -54.146  1.00  0.00    -0.266 OA
HETATM   14  H   UNL     1     -43.248  54.476 -53.626  1.00  0.00     0.169 HD
BRANCH  12  15
HETATM   15  C   UNL     1     -40.891  53.787 -53.568  1.00  0.00     0.104 A 
HETATM   16  N   UNL     1     -40.585  53.366 -52.280  1.00  0.00    -0.346 N 
HETATM   17  C   UNL     1     -40.713  54.191 -51.093  1.00  0.00     0.156 C 
HETATM   18  C   UNL     1     -40.157  52.050 -52.279  1.00  0.00     0.045 A 
HETATM   19  C   UNL     1     -40.202  51.607 -53.600  1.00  0.00    -0.007 A 
HETATM   20  C   UNL     1     -39.730  51.208 -51.237  1.00  0.00     0.030 A 
HETATM   21  C   UNL     1     -40.653  52.694 -54.391  1.00  0.00     0.049 A 
HETATM   22  C   UNL     1     -39.815  50.285 -53.898  1.00  0.00     0.014 A 
HETATM   23  C   UNL     1     -39.394  49.441 -52.867  1.00  0.00     0.001 A 
HETATM   24  C   UNL     1     -39.352  49.899 -51.555  1.00  0.00     0.002 A 
ENDBRANCH  12  15
ENDBRANCH   1  11
BRANCH   8  25
HETATM   25  C   UNL     1     -45.029  58.318 -58.273  1.00  0.00     0.270 C 
HETATM   26  N   UNL     1     -45.750  57.208 -58.621  1.00  0.00    -0.365 N 
HETATM   27  H   UNL     1     -46.285  56.733 -57.904  1.00  0.00     0.159 HD
HETATM   28  H   UNL     1     -45.738  56.885 -59.574  1.00  0.00     0.159 HD
HETATM   29  O   UNL     1     -44.367  58.930 -59.104  1.00  0.00    -0.266 OA
ENDBRANCH   8  25
TORSDOF 3
ENDMDL
MODEL 4
REMARK VINA RESULT:      -8.4      2.621      8.867
REMARK  3 active torsions:
REMARK  status: ('A' for Active; 'I' for Inactive)
REMARK    1  A    between atoms: C_3  and  C_4 
REMARK       I    between atoms: C_4  and  N_5 
REMARK    2  A    between atoms: N_5  and  C_6 
REMARK    3  A    between atoms: C_13  and  C_14 
REMARK       I    between atoms: C_14  and  N_15 
ROOT
HETATM    1  C   UNL     1     -40.889  54.238 -54.316  1.00  0.00     0.036 A 
HETATM    2  C   UNL     1     -41.084  54.494 -52.952  1.00  0.00     0.046 A 
HETATM    3  C   UNL     1     -40.706  53.522 -51.998  1.00  0.00     0.030 A 
HETATM    4  C   UNL     1     -40.153  52.327 -52.440  1.00  0.00     0.063 A 
HETATM    5  N   UNL     1     -39.898  51.604 -51.309  1.00  0.00    -0.277 N 
HETATM    6  H   UNL     1     -39.492  50.677 -51.252  1.00  0.00     0.189 HD
HETATM    7  N   UNL     1     -40.234  52.221 -50.166  1.00  0.00    -0.168 NA
HETATM    8  C   UNL     1     -40.736  53.410 -50.575  1.00  0.00     0.156 A 
HETATM    9  C   UNL     1     -39.948  52.036 -53.789  1.00  0.00     0.034 A 
HETATM   10  C   UNL     1     -40.327  53.017 -54.715  1.00  0.00     0.032 A 
ENDROOT
BRANCH   1  11
HETATM   11  N   UNL     1     -41.232  55.139 -55.348  1.00  0.00    -0.322 N 
HETATM   12  C   UNL     1     -42.491  55.582 -55.715  1.00  0.00     0.273 C 
HETATM   13  O   UNL     1     -43.531  55.268 -55.148  1.00  0.00    -0.266 OA
HETATM   14  H   UNL     1     -40.457  55.544 -55.850  1.00  0.00     0.169 HD
BRANCH  12  15
HETATM   15  C   UNL     1     -42.484  56.500 -56.854  1.00  0.00     0.104 A 
HETATM   16  N   UNL     1     -42.331  57.876 -56.752  1.00  0.00    -0.346 N 
HETATM   17  C   UNL     1     -42.110  58.589 -55.506  1.00  0.00     0.156 C 
HETATM   18  C   UNL     1     -42.401  58.476 -57.997  1.00  0.00     0.045 A 
HETATM   19  C   UNL     1     -42.592  57.456 -58.928  1.00  0.00    -0.007 A 
HETATM   20  C   UNL     1     -42.320  59.822 -58.390  1.00  0.00     0.030 A 
HETATM   21  C   UNL     1     -42.647  56.236 -58.208  1.00  0.00     0.049 A 
HETATM   22  C   UNL     1     -42.700  57.781 -60.295  1.00  0.00     0.014 A 
HETATM   23  C   UNL     1     -42.616  59.118 -60.694  1.00  0.00     0.001 A 
HETATM   24  C   UNL     1     -42.429  60.124 -59.752  1.00  0.00     0.002 A 
ENDBRANCH  12  15
ENDBRANCH   1  11
BRANCH   8  25
HETATM   25  C   UNL     1     -41.225  54.400 -49.605  1.00  0.00     0.270 C 
HETATM   26  N   UNL     1     -40.630  54.319 -48.375  1.00  0.00    -0.365 N 
HETATM   27  H   UNL     1     -39.922  53.610 -48.225  1.00  0.00     0.159 HD
HETATM   28  H   UNL     1     -40.900  54.959 -47.647  1.00  0.00     0.159 HD
HETATM   29  O   UNL     1     -42.085  55.242 -49.838  1.00  0.00    -0.266 OA
ENDBRANCH   8  25
TORSDOF 3
ENDMDL
MODEL 5
REMARK VINA RESULT:      -8.3      2.589      8.485
REMARK  3 active torsions:
REMARK  status: ('A' for Active; 'I' for Inactive)
REMARK    1  A    between atoms: C_3  and  C_4 
REMARK       I    between atoms: C_4  and  N_5 
REMARK    2  A    between atoms: N_5  and  C_6 
REMARK    3  A    between atoms: C_13  and  C_14 
REMARK       I    between atoms: C_14  and  N_15 
ROOT
HETATM    1  C   UNL     1     -40.905  54.616 -54.224  1.00  0.00     0.036 A 
HETATM    2  C   UNL     1     -40.601  53.258 -54.393  1.00  0.00     0.046 A 
HETATM    3  C   UNL     1     -40.289  52.467 -53.265  1.00  0.00     0.030 A 
HETATM    4  C   UNL     1     -40.285  53.061 -52.009  1.00  0.00     0.063 A 
HETATM    5  N   UNL     1     -39.951  52.064 -51.136  1.00  0.00    -0.277 N 
HETATM    6  H   UNL     1     -39.852  52.136 -50.130  1.00  0.00     0.189 HD
HETATM    7  N   UNL     1     -39.738  50.869 -51.710  1.00  0.00    -0.168 NA
HETATM    8  C   UNL     1     -39.943  51.102 -53.028  1.00  0.00     0.156 A 
HETATM    9  C   UNL     1     -40.578  54.409 -51.803  1.00  0.00     0.034 A 
HETATM   10  C   UNL     1     -40.888  55.172 -52.937  1.00  0.00     0.032 A 
ENDROOT
BRANCH   1  11
HETATM   11  N   UNL     1     -41.229  55.492 -55.283  1.00  0.00    -0.322 N 
HETATM   12  C   UNL     1     -42.480  55.936 -55.675  1.00  0.00     0.273 C 
HETATM   13  O   UNL     1     -43.529  55.647 -55.111  1.00  0.00    -0.266 OA
HETATM   14  H   UNL     1     -40.445  55.876 -55.788  1.00  0.00     0.169 HD
BRANCH  12  15
HETATM   15  C   UNL     1     -42.453  56.823 -56.839  1.00  0.00     0.104 A 
HETATM   16  N   UNL     1     -42.319  58.203 -56.770  1.00  0.00    -0.346 N 
HETATM   17  C   UNL     1     -42.140  58.952 -55.539  1.00  0.00     0.156 C 
HETATM   18  C   UNL     1     -42.362  58.768 -58.033  1.00  0.00     0.045 A 
HETATM   19  C   UNL     1     -42.515  57.721 -58.941  1.00  0.00    -0.007 A 
HETATM   20  C   UNL     1     -42.286  60.105 -58.460  1.00  0.00     0.030 A 
HETATM   21  C   UNL     1     -42.576  56.520 -58.189  1.00  0.00     0.049 A 
HETATM   22  C   UNL     1     -42.590  58.008 -60.318  1.00  0.00     0.014 A 
HETATM   23  C   UNL     1     -42.511  59.335 -60.751  1.00  0.00     0.001 A 
HETATM   24  C   UNL     1     -42.362  60.368 -59.832  1.00  0.00     0.002 A 
ENDBRANCH  12  15
ENDBRANCH   1  11
BRANCH   8  25
HETATM   25  C   UNL     1     -39.807  50.024 -54.018  1.00  0.00     0.270 C 
HETATM   26  N   UNL     1     -40.941  49.790 -54.748  1.00  0.00    -0.365 N 
HETATM   27  H   UNL     1     -41.762  50.354 -54.562  1.00  0.00     0.159 HD
HETATM   28  H   UNL     1     -40.941  49.071 -55.452  1.00  0.00     0.159 HD
HETATM   29  O   UNL     1     -38.786  49.371 -54.207  1.00  0.00    -0.266 OA
ENDBRANCH   8  25
TORSDOF 3
ENDMDL
MODEL 6
REMARK VINA RESULT:      -8.2      5.346      6.880
REMARK  3 active torsions:
REMARK  status: ('A' for Active; 'I' for Inactive)
REMARK    1  A    between atoms: C_3  and  C_4 
REMARK       I    between atoms: C_4  and  N_5 
REMARK    2  A    between atoms: N_5  and  C_6 
REMARK    3  A    between atoms: C_13  and  C_14 
REMARK       I    between atoms: C_14  and  N_15 
ROOT
HETATM    1  C   UNL     1     -44.073  58.234 -52.449  1.00  0.00     0.036 A 
HETATM    2  C   UNL     1     -44.368  58.879 -51.240  1.00  0.00     0.046 A 
HETATM    3  C   UNL     1     -45.178  60.037 -51.246  1.00  0.00     0.030 A 
HETATM    4  C   UNL     1     -45.659  60.513 -52.459  1.00  0.00     0.063 A 
HETATM    5  N   UNL     1     -46.392  61.624 -52.149  1.00  0.00    -0.277 N 
HETATM    6  H   UNL     1     -46.891  62.229 -52.791  1.00  0.00     0.189 HD
HETATM    7  N   UNL     1     -46.436  61.914 -50.840  1.00  0.00    -0.168 NA
HETATM    8  C   UNL     1     -45.689  60.942 -50.267  1.00  0.00     0.156 A 
HETATM    9  C   UNL     1     -45.382  59.901 -53.682  1.00  0.00     0.034 A 
HETATM   10  C   UNL     1     -44.581  58.752 -53.649  1.00  0.00     0.032 A 
ENDROOT
BRANCH   1  11
HETATM   11  N   UNL     1     -43.275  57.073 -52.553  1.00  0.00    -0.322 N 
HETATM   12  C   UNL     1     -41.897  56.971 -52.466  1.00  0.00     0.273 C 
HETATM   13  O   UNL     1     -41.143  57.910 -52.241  1.00  0.00    -0.266 OA
HETATM   14  H   UNL     1     -43.777  56.206 -52.660  1.00  0.00     0.169 HD
BRANCH  12  15
HETATM   15  C   UNL     1     -41.395  55.609 -52.648  1.00  0.00     0.104 A 
HETATM   16  N   UNL     1     -40.886  54.817 -51.627  1.00  0.00    -0.346 N 
HETATM   17  C   UNL     1     -40.825  55.214 -50.232  1.00  0.00     0.156 C 
HETATM   18  C   UNL     1     -40.459  53.594 -52.115  1.00  0.00     0.045 A 
HETATM   19  C   UNL     1     -40.713  53.593 -53.486  1.00  0.00    -0.007 A 
HETATM   20  C   UNL     1     -39.868  52.490 -51.477  1.00  0.00     0.030 A 
HETATM   21  C   UNL     1     -41.288  54.849 -53.806  1.00  0.00     0.049 A 
HETATM   22  C   UNL     1     -40.374  52.458 -54.249  1.00  0.00     0.014 A 
HETATM   23  C   UNL     1     -39.791  51.355 -53.621  1.00  0.00     0.001 A 
HETATM   24  C   UNL     1     -39.541  51.373 -52.253  1.00  0.00     0.002 A 
ENDBRANCH  12  15
ENDBRANCH   1  11
BRANCH   8  25
HETATM   25  C   UNL     1     -45.485  60.900 -48.812  1.00  0.00     0.270 C 
HETATM   26  N   UNL     1     -44.183  61.070 -48.425  1.00  0.00    -0.365 N 
HETATM   27  H   UNL     1     -43.479  61.208 -49.140  1.00  0.00     0.159 HD
HETATM   28  H   UNL     1     -43.948  61.058 -47.446  1.00  0.00     0.159 HD
HETATM   29  O   UNL     1     -46.375  60.732 -47.985  1.00  0.00    -0.266 OA
ENDBRANCH   8  25
TORSDOF 3
ENDMDL
MODEL 7
REMARK VINA RESULT:      -8.2      1.723      2.080
REMARK  3 active torsions:
REMARK  status: ('A' for Active; 'I' for Inactive)
REMARK    1  A    between atoms: C_3  and  C_4 
REMARK       I    between atoms: C_4  and  N_5 
REMARK    2  A    between atoms: N_5  and  C_6 
REMARK    3  A    between atoms: C_13  and  C_14 
REMARK       I    between atoms: C_14  and  N_15 
ROOT
HETATM    1  C   UNL     1     -42.769  56.666 -57.249  1.00  0.00     0.036 A 
HETATM    2  C   UNL     1     -43.790  56.332 -58.149  1.00  0.00     0.046 A 
HETATM    3  C   UNL     1     -44.233  57.292 -59.088  1.00  0.00     0.030 A 
HETATM    4  C   UNL     1     -43.646  58.550 -59.090  1.00  0.00     0.063 A 
HETATM    5  N   UNL     1     -44.275  59.243 -60.086  1.00  0.00    -0.277 N 
HETATM    6  H   UNL     1     -44.101  60.200 -60.372  1.00  0.00     0.189 HD
HETATM    7  N   UNL     1     -45.219  58.547 -60.738  1.00  0.00    -0.168 NA
HETATM    8  C   UNL     1     -45.207  57.337 -60.132  1.00  0.00     0.156 A 
HETATM    9  C   UNL     1     -42.631  58.919 -58.206  1.00  0.00     0.034 A 
HETATM   10  C   UNL     1     -42.206  57.950 -57.288  1.00  0.00     0.032 A 
ENDROOT
BRANCH   1  11
HETATM   11  N   UNL     1     -42.254  55.784 -56.273  1.00  0.00    -0.322 N 
HETATM   12  C   UNL     1     -42.822  55.418 -55.065  1.00  0.00     0.273 C 
HETATM   13  O   UNL     1     -43.918  55.797 -54.669  1.00  0.00    -0.266 OA
HETATM   14  H   UNL     1     -41.384  55.331 -56.509  1.00  0.00     0.169 HD
BRANCH  12  15
HETATM   15  C   UNL     1     -41.997  54.498 -54.281  1.00  0.00     0.104 A 
HETATM   16  N   UNL     1     -41.591  54.728 -52.973  1.00  0.00    -0.346 N 
HETATM   17  C   UNL     1     -41.966  55.891 -52.189  1.00  0.00     0.156 C 
HETATM   18  C   UNL     1     -40.793  53.695 -52.514  1.00  0.00     0.045 A 
HETATM   19  C   UNL     1     -40.695  52.767 -53.550  1.00  0.00    -0.007 A 
HETATM   20  C   UNL     1     -40.145  53.493 -51.283  1.00  0.00     0.030 A 
HETATM   21  C   UNL     1     -41.440  53.277 -54.642  1.00  0.00     0.049 A 
HETATM   22  C   UNL     1     -39.932  51.597 -53.357  1.00  0.00     0.014 A 
HETATM   23  C   UNL     1     -39.289  51.388 -52.134  1.00  0.00     0.001 A 
HETATM   24  C   UNL     1     -39.394  52.325 -51.113  1.00  0.00     0.002 A 
ENDBRANCH  12  15
ENDBRANCH   1  11
BRANCH   8  25
HETATM   25  C   UNL     1     -46.114  56.264 -60.562  1.00  0.00     0.270 C 
HETATM   26  N   UNL     1     -47.169  56.052 -59.716  1.00  0.00    -0.365 N 
HETATM   27  H   UNL     1     -47.247  56.627 -58.886  1.00  0.00     0.159 HD
HETATM   28  H   UNL     1     -47.844  55.337 -59.931  1.00  0.00     0.159 HD
HETATM   29  O   UNL     1     -45.975  55.597 -61.581  1.00  0.00    -0.266 OA
ENDBRANCH   8  25
TORSDOF 3
ENDMDL
MODEL 8
REMARK VINA RESULT:      -8.1      4.643      5.631
REMARK  3 active torsions:
REMARK  status: ('A' for Active; 'I' for Inactive)
REMARK    1  A    between atoms: C_3  and  C_4 
REMARK       I    between atoms: C_4  and  N_5 
REMARK    2  A    between atoms: N_5  and  C_6 
REMARK    3  A    between atoms: C_13  and  C_14 
REMARK       I    between atoms: C_14  and  N_15 
ROOT
HETATM    1  C   UNL     1     -41.883  57.404 -51.626  1.00  0.00     0.036 A 
HETATM    2  C   UNL     1     -43.036  58.020 -52.132  1.00  0.00     0.046 A 
HETATM    3  C   UNL     1     -43.353  59.340 -51.736  1.00  0.00     0.030 A 
HETATM    4  C   UNL     1     -42.512  59.993 -50.845  1.00  0.00     0.063 A 
HETATM    5  N   UNL     1     -43.071  61.226 -50.655  1.00  0.00    -0.277 N 
HETATM    6  H   UNL     1     -42.724  61.972 -50.062  1.00  0.00     0.189 HD
HETATM    7  N   UNL     1     -44.202  61.436 -51.345  1.00  0.00    -0.168 NA
HETATM    8  C   UNL     1     -44.391  60.278 -52.020  1.00  0.00     0.156 A 
HETATM    9  C   UNL     1     -41.359  59.410 -50.317  1.00  0.00     0.034 A 
HETATM   10  C   UNL     1     -41.065  58.103 -50.727  1.00  0.00     0.032 A 
ENDROOT
BRANCH   1  11
HETATM   11  N   UNL     1     -41.477  56.092 -51.956  1.00  0.00    -0.322 N 
HETATM   12  C   UNL     1     -40.894  55.646 -53.129  1.00  0.00     0.273 C 
HETATM   13  O   UNL     1     -40.602  56.364 -54.077  1.00  0.00    -0.266 OA
HETATM   14  H   UNL     1     -41.587  55.404 -51.227  1.00  0.00     0.169 HD
BRANCH  12  15
HETATM   15  C   UNL     1     -40.626  54.208 -53.144  1.00  0.00     0.104 A 
HETATM   16  N   UNL     1     -40.240  53.470 -52.032  1.00  0.00    -0.346 N 
HETATM   17  C   UNL     1     -40.096  54.015 -50.694  1.00  0.00     0.156 C 
HETATM   18  C   UNL     1     -40.027  52.144 -52.367  1.00  0.00     0.045 A 
HETATM   19  C   UNL     1     -40.296  52.022 -53.730  1.00  0.00    -0.007 A 
HETATM   20  C   UNL     1     -39.618  51.042 -51.598  1.00  0.00     0.030 A 
HETATM   21  C   UNL     1     -40.661  53.308 -54.202  1.00  0.00     0.049 A 
HETATM   22  C   UNL     1     -40.159  50.764 -54.350  1.00  0.00     0.014 A 
HETATM   23  C   UNL     1     -39.757  49.662 -53.590  1.00  0.00     0.001 A 
HETATM   24  C   UNL     1     -39.489  49.801 -52.232  1.00  0.00     0.002 A 
ENDBRANCH  12  15
ENDBRANCH   1  11
BRANCH   8  25
HETATM   25  C   UNL     1     -45.545  60.099 -52.911  1.00  0.00     0.270 C 
HETATM   26  N   UNL     1     -46.720  60.595 -52.411  1.00  0.00    -0.365 N 
HETATM   27  H   UNL     1     -46.711  61.032 -51.497  1.00  0.00     0.159 HD
HETATM   28  H   UNL     1     -47.564  60.518 -52.953  1.00  0.00     0.159 HD
HETATM   29  O   UNL     1     -45.503  59.563 -54.013  1.00  0.00    -0.266 OA
ENDBRANCH   8  25
TORSDOF 3
ENDMDL
MODEL 9
REMARK VINA RESULT:      -8.1     14.224     16.924
REMARK  3 active torsions:
REMARK  status: ('A' for Active; 'I' for Inactive)
REMARK    1  A    between atoms: C_3  and  C_4 
REMARK       I    between atoms: C_4  and  N_5 
REMARK    2  A    between atoms: N_5  and  C_6 
REMARK    3  A    between atoms: C_13  and  C_14 
REMARK       I    between atoms: C_14  and  N_15 
ROOT
HETATM    1  C   UNL     1     -37.328  40.797 -57.192  1.00  0.00     0.036 A 
HETATM    2  C   UNL     1     -37.646  40.760 -55.827  1.00  0.00     0.046 A 
HETATM    3  C   UNL     1     -36.859  41.490 -54.908  1.00  0.00     0.030 A 
HETATM    4  C   UNL     1     -35.781  42.225 -55.382  1.00  0.00     0.063 A 
HETATM    5  N   UNL     1     -35.224  42.808 -54.278  1.00  0.00    -0.277 N 
HETATM    6  H   UNL     1     -34.415  43.417 -54.248  1.00  0.00     0.189 HD
HETATM    7  N   UNL     1     -35.845  42.520 -53.124  1.00  0.00    -0.168 NA
HETATM    8  C   UNL     1     -36.859  41.705 -53.496  1.00  0.00     0.156 A 
HETATM    9  C   UNL     1     -35.432  42.282 -56.732  1.00  0.00     0.034 A 
HETATM   10  C   UNL     1     -36.229  41.553 -57.624  1.00  0.00     0.032 A 
ENDROOT
BRANCH   1  11
HETATM   11  N   UNL     1     -38.047  40.105 -58.192  1.00  0.00    -0.322 N 
HETATM   12  C   UNL     1     -37.809  38.837 -58.695  1.00  0.00     0.273 C 
HETATM   13  O   UNL     1     -36.923  38.088 -58.302  1.00  0.00    -0.266 OA
HETATM   14  H   UNL     1     -38.861  40.578 -58.551  1.00  0.00     0.169 HD
BRANCH  12  15
HETATM   15  C   UNL     1     -38.740  38.439 -59.751  1.00  0.00     0.104 A 
HETATM   16  N   UNL     1     -38.407  38.348 -61.097  1.00  0.00    -0.346 N 
HETATM   17  C   UNL     1     -37.081  38.591 -61.634  1.00  0.00     0.156 C 
HETATM   18  C   UNL     1     -39.506  37.981 -61.854  1.00  0.00     0.045 A 
HETATM   19  C   UNL     1     -40.572  37.817 -60.970  1.00  0.00    -0.007 A 
HETATM   20  C   UNL     1     -39.662  37.783 -63.236  1.00  0.00     0.030 A 
HETATM   21  C   UNL     1     -40.087  38.109 -59.670  1.00  0.00     0.049 A 
HETATM   22  C   UNL     1     -41.833  37.440 -61.473  1.00  0.00     0.014 A 
HETATM   23  C   UNL     1     -41.994  37.236 -62.846  1.00  0.00     0.001 A 
HETATM   24  C   UNL     1     -40.922  37.407 -63.715  1.00  0.00     0.002 A 
ENDBRANCH  12  15
ENDBRANCH   1  11
BRANCH   8  25
HETATM   25  C   UNL     1     -37.796  41.158 -52.504  1.00  0.00     0.270 C 
HETATM   26  N   UNL     1     -39.004  41.802 -52.462  1.00  0.00    -0.365 N 
HETATM   27  H   UNL     1     -39.161  42.578 -53.093  1.00  0.00     0.159 HD
HETATM   28  H   UNL     1     -39.710  41.495 -51.814  1.00  0.00     0.159 HD
HETATM   29  O   UNL     1     -37.557  40.211 -51.763  1.00  0.00    -0.266 OA
ENDBRANCH   8  25
TORSDOF 3
ENDMDL
MODEL 10
REMARK VINA RESULT:      -8.0      4.275      5.293
REMARK  3 active torsions:
REMARK  status: ('A' for Active; 'I' for Inactive)
REMARK    1  A    between atoms: C_3  and  C_4 
REMARK       I    between atoms: C_4  and  N_5 
REMARK    2  A    between atoms: N_5  and  C_6 
REMARK    3  A    between atoms: C_13  and  C_14 
REMARK       I    between atoms: C_14  and  N_15 
ROOT
HETATM    1  C   UNL     1     -44.182  57.663 -52.329  1.00  0.00     0.036 A 
HETATM    2  C   UNL     1     -44.460  58.571 -53.359  1.00  0.00     0.046 A 
HETATM    3  C   UNL     1     -45.318  59.666 -53.111  1.00  0.00     0.030 A 
HETATM    4  C   UNL     1     -45.873  59.811 -51.846  1.00  0.00     0.063 A 
HETATM    5  N   UNL     1     -46.644  60.937 -51.914  1.00  0.00    -0.277 N 
HETATM    6  H   UNL     1     -47.199  61.346 -51.171  1.00  0.00     0.189 HD
HETATM    7  N   UNL     1     -46.641  61.543 -53.111  1.00  0.00    -0.168 NA
HETATM    8  C   UNL     1     -45.825  60.768 -53.864  1.00  0.00     0.156 A 
HETATM    9  C   UNL     1     -45.622  58.925 -50.798  1.00  0.00     0.034 A 
HETATM   10  C   UNL     1     -44.765  57.849 -51.067  1.00  0.00     0.032 A 
ENDROOT
BRANCH   1  11
HETATM   11  N   UNL     1     -43.340  56.537 -52.471  1.00  0.00    -0.322 N 
HETATM   12  C   UNL     1     -41.956  56.498 -52.479  1.00  0.00     0.273 C 
HETATM   13  O   UNL     1     -41.232  57.474 -52.319  1.00  0.00    -0.266 OA
HETATM   14  H   UNL     1     -43.808  55.646 -52.531  1.00  0.00     0.169 HD
BRANCH  12  15
HETATM   15  C   UNL     1     -41.406  55.157 -52.676  1.00  0.00     0.104 A 
HETATM   16  N   UNL     1     -40.893  54.362 -51.659  1.00  0.00    -0.346 N 
HETATM   17  C   UNL     1     -40.876  54.732 -50.256  1.00  0.00     0.156 C 
HETATM   18  C   UNL     1     -40.415  53.164 -52.161  1.00  0.00     0.045 A 
HETATM   19  C   UNL     1     -40.639  53.183 -53.537  1.00  0.00    -0.007 A 
HETATM   20  C   UNL     1     -39.803  52.067 -51.532  1.00  0.00     0.030 A 
HETATM   21  C   UNL     1     -41.248  54.426 -53.846  1.00  0.00     0.049 A 
HETATM   22  C   UNL     1     -40.246  52.075 -54.315  1.00  0.00     0.014 A 
HETATM   23  C   UNL     1     -39.641  50.978 -53.695  1.00  0.00     0.001 A 
HETATM   24  C   UNL     1     -39.422  50.977 -52.322  1.00  0.00     0.002 A 
ENDBRANCH  12  15
ENDBRANCH   1  11
BRANCH   8  25
HETATM   25  C   UNL     1     -45.551  61.098 -55.270  1.00  0.00     0.270 C 
HETATM   26  N   UNL     1     -46.651  61.039 -56.082  1.00  0.00    -0.365 N 
HETATM   27  H   UNL     1     -47.542  60.782 -55.674  1.00  0.00     0.159 HD
HETATM   28  H   UNL     1     -46.559  61.251 -57.062  1.00  0.00     0.159 HD
HETATM   29  O   UNL     1     -44.451  61.407 -55.714  1.00  0.00    -0.266 OA
ENDBRANCH   8  25
TORSDOF 3
ENDMDL
