MODEL 1
REMARK VINA RESULT:      -7.9      0.000      0.000
REMARK  6 active torsions:
REMARK  status: ('A' for Active; 'I' for Inactive)
REMARK    1  A    between atoms: C_3  and  N_4 
REMARK       I    between atoms: N_4  and  C_5 
REMARK       I    between atoms: C_5  and  N_6 
REMARK    2  A    between atoms: N_6  and  C_7 
REMARK    3  A    between atoms: C_7  and  C_8 
REMARK    4  A    between atoms: C_16  and  N_17 
REMARK       I    between atoms: N_17  and  C_18 
REMARK    5  A    between atoms: C_18  and  C_19 
REMARK    6  A    between atoms: C_19  and  C_20 
ROOT
HETATM    1  C   UNL     1     -44.741  58.700 -52.679  1.00  0.00     0.004 A 
HETATM    2  C   UNL     1     -44.093  57.600 -52.118  1.00  0.00     0.029 A 
HETATM    3  C   UNL     1     -43.815  56.476 -52.895  1.00  0.00     0.038 A 
HETATM    4  C   UNL     1     -44.190  56.474 -54.248  1.00  0.00     0.059 A 
HETATM    5  C   UNL     1     -44.836  57.573 -54.823  1.00  0.00     0.036 A 
HETATM    6  C   UNL     1     -45.110  58.688 -54.023  1.00  0.00     0.029 A 
ENDROOT
BRANCH   3   7
HETATM    7  N   UNL     1     -43.155  55.327 -52.409  1.00  0.00    -0.309 N 
HETATM    8  C   UNL     1     -41.799  55.091 -52.376  1.00  0.00     0.320 C 
HETATM    9  N   UNL     1     -41.528  53.820 -51.913  1.00  0.00    -0.339 N 
HETATM   10  O   UNL     1     -40.914  55.872 -52.694  1.00  0.00    -0.247 OA
HETATM   11  H   UNL     1     -42.255  53.124 -51.984  1.00  0.00     0.164 HD
HETATM   12  H   UNL     1     -43.731  54.653 -51.926  1.00  0.00     0.170 HD
BRANCH   9  13
HETATM   13  C   UNL     1     -40.168  53.338 -51.802  1.00  0.00     0.163 C 
BRANCH  13  14
HETATM   14  C   UNL     1     -39.951  51.975 -52.414  1.00  0.00    -0.038 A 
HETATM   15  C   UNL     1     -39.664  50.840 -51.650  1.00  0.00     0.028 A 
HETATM   16  C   UNL     1     -39.522  49.618 -52.291  1.00  0.00     0.116 A 
HETATM   17  N   UNL     1     -39.660  49.447 -53.623  1.00  0.00    -0.273 NA
HETATM   18  C   UNL     1     -39.967  50.545 -54.342  1.00  0.00     0.116 A 
HETATM   19  C   UNL     1     -40.121  51.809 -53.793  1.00  0.00     0.028 A 
ENDBRANCH  13  14
ENDBRANCH   9  13
ENDBRANCH   3   7
BRANCH   5  20
HETATM   20  N   UNL     1     -45.236  57.638 -56.174  1.00  0.00    -0.327 N 
HETATM   21  C   UNL     1     -44.427  57.791 -57.288  1.00  0.00     0.227 C 
HETATM   22  O   UNL     1     -43.202  57.913 -57.287  1.00  0.00    -0.273 OA
HETATM   23  H   UNL     1     -46.235  57.610 -56.338  1.00  0.00     0.169 HD
BRANCH  21  24
HETATM   24  C   UNL     1     -45.207  57.841 -58.600  1.00  0.00     0.159 C 
BRANCH  24  25
HETATM   25  C   UNL     1     -45.027  56.571 -59.370  1.00  0.00     0.017 A 
HETATM   26  N   UNL     1     -44.335  55.498 -58.850  1.00  0.00    -0.369 N 
HETATM   27  H   UNL     1     -43.881  55.488 -57.941  1.00  0.00     0.165 HD
HETATM   28  C   UNL     1     -44.325  54.474 -59.759  1.00  0.00     0.088 A 
HETATM   29  C   UNL     1     -45.034  54.881 -60.867  1.00  0.00     0.019 A 
HETATM   30  C   UNL     1     -45.480  56.202 -60.621  1.00  0.00     0.027 A 
ENDBRANCH  24  25
ENDBRANCH  21  24
ENDBRANCH   5  20
TORSDOF 6
ENDMDL
MODEL 2
REMARK VINA RESULT:      -7.7      3.556      6.996
REMARK  6 active torsions:
REMARK  status: ('A' for Active; 'I' for Inactive)
REMARK    1  A    between atoms: C_3  and  N_4 
REMARK       I    between atoms: N_4  and  C_5 
REMARK       I    between atoms: C_5  and  N_6 
REMARK    2  A    between atoms: N_6  and  C_7 
REMARK    3  A    between atoms: C_7  and  C_8 
REMARK    4  A    between atoms: C_16  and  N_17 
REMARK       I    between atoms: N_17  and  C_18 
REMARK    5  A    between atoms: C_18  and  C_19 
REMARK    6  A    between atoms: C_19  and  C_20 
ROOT
HETATM    1  C   UNL     1     -44.671  57.449 -54.144  1.00  0.00     0.004 A 
HETATM    2  C   UNL     1     -44.021  56.309 -53.671  1.00  0.00     0.029 A 
HETATM    3  C   UNL     1     -43.490  56.287 -52.381  1.00  0.00     0.038 A 
HETATM    4  C   UNL     1     -43.627  57.424 -51.569  1.00  0.00     0.059 A 
HETATM    5  C   UNL     1     -44.279  58.571 -52.032  1.00  0.00     0.036 A 
HETATM    6  C   UNL     1     -44.800  58.573 -53.330  1.00  0.00     0.029 A 
ENDROOT
BRANCH   3   7
HETATM    7  N   UNL     1     -42.829  55.173 -51.822  1.00  0.00    -0.309 N 
HETATM    8  C   UNL     1     -41.501  54.832 -51.958  1.00  0.00     0.320 C 
HETATM    9  N   UNL     1     -41.234  53.626 -51.344  1.00  0.00    -0.339 N 
HETATM   10  O   UNL     1     -40.635  55.479 -52.529  1.00  0.00    -0.247 OA
HETATM   11  H   UNL     1     -42.003  52.991 -51.190  1.00  0.00     0.164 HD
HETATM   12  H   UNL     1     -43.356  54.629 -51.156  1.00  0.00     0.170 HD
BRANCH   9  13
HETATM   13  C   UNL     1     -39.905  53.054 -51.364  1.00  0.00     0.163 C 
BRANCH  13  14
HETATM   14  C   UNL     1     -39.797  51.789 -52.180  1.00  0.00    -0.038 A 
HETATM   15  C   UNL     1     -39.565  50.535 -51.605  1.00  0.00     0.028 A 
HETATM   16  C   UNL     1     -39.524  49.418 -52.427  1.00  0.00     0.116 A 
HETATM   17  N   UNL     1     -39.710  49.459 -53.763  1.00  0.00    -0.273 NA
HETATM   18  C   UNL     1     -39.963  50.671 -54.298  1.00  0.00     0.116 A 
HETATM   19  C   UNL     1     -40.017  51.844 -53.561  1.00  0.00     0.028 A 
ENDBRANCH  13  14
ENDBRANCH   9  13
ENDBRANCH   3   7
BRANCH   5  20
HETATM   20  N   UNL     1     -44.454  59.745 -51.268  1.00  0.00    -0.327 N 
HETATM   21  C   UNL     1     -45.394  59.976 -50.278  1.00  0.00     0.227 C 
HETATM   22  O   UNL     1     -46.262  59.188 -49.900  1.00  0.00    -0.273 OA
HETATM   23  H   UNL     1     -43.844  60.517 -51.505  1.00  0.00     0.169 HD
BRANCH  21  24
HETATM   24  C   UNL     1     -45.305  61.376 -49.673  1.00  0.00     0.159 C 
BRANCH  24  25
HETATM   25  C   UNL     1     -45.797  61.372 -48.261  1.00  0.00     0.017 A 
HETATM   26  N   UNL     1     -45.335  60.464 -47.333  1.00  0.00    -0.369 N 
HETATM   27  H   UNL     1     -44.663  59.727 -47.528  1.00  0.00     0.165 HD
HETATM   28  C   UNL     1     -45.947  60.686 -46.128  1.00  0.00     0.088 A 
HETATM   29  C   UNL     1     -46.795  61.761 -46.273  1.00  0.00     0.019 A 
HETATM   30  C   UNL     1     -46.699  62.196 -47.617  1.00  0.00     0.027 A 
ENDBRANCH  24  25
ENDBRANCH  21  24
ENDBRANCH   5  20
TORSDOF 6
ENDMDL
MODEL 3
REMARK VINA RESULT:      -7.4      1.443      7.841
REMARK  6 active torsions:
REMARK  status: ('A' for Active; 'I' for Inactive)
REMARK    1  A    between atoms: C_3  and  N_4 
REMARK       I    between atoms: N_4  and  C_5 
REMARK       I    between atoms: C_5  and  N_6 
REMARK    2  A    between atoms: N_6  and  C_7 
REMARK    3  A    between atoms: C_7  and  C_8 
REMARK    4  A    between atoms: C_16  and  N_17 
REMARK       I    between atoms: N_17  and  C_18 
REMARK    5  A    between atoms: C_18  and  C_19 
REMARK    6  A    between atoms: C_19  and  C_20 
ROOT
HETATM    1  C   UNL     1     -43.865  58.238 -51.390  1.00  0.00     0.004 A 
HETATM    2  C   UNL     1     -44.682  58.241 -52.520  1.00  0.00     0.029 A 
HETATM    3  C   UNL     1     -44.468  57.320 -53.545  1.00  0.00     0.038 A 
HETATM    4  C   UNL     1     -43.425  56.389 -53.418  1.00  0.00     0.059 A 
HETATM    5  C   UNL     1     -42.601  56.374 -52.288  1.00  0.00     0.036 A 
HETATM    6  C   UNL     1     -42.830  57.309 -51.273  1.00  0.00     0.029 A 
ENDROOT
BRANCH   3   7
HETATM    7  N   UNL     1     -45.254  57.249 -54.715  1.00  0.00    -0.309 N 
HETATM    8  C   UNL     1     -45.004  57.845 -55.931  1.00  0.00     0.320 C 
HETATM    9  N   UNL     1     -46.042  57.627 -56.813  1.00  0.00    -0.339 N 
HETATM   10  O   UNL     1     -44.009  58.486 -56.239  1.00  0.00    -0.247 OA
HETATM   11  H   UNL     1     -46.948  57.399 -56.434  1.00  0.00     0.164 HD
HETATM   12  H   UNL     1     -46.024  56.597 -54.695  1.00  0.00     0.170 HD
BRANCH   9  13
HETATM   13  C   UNL     1     -46.009  58.168 -58.155  1.00  0.00     0.163 C 
BRANCH  13  14
HETATM   14  C   UNL     1     -45.549  57.181 -59.200  1.00  0.00    -0.038 A 
HETATM   15  C   UNL     1     -46.438  56.420 -59.964  1.00  0.00     0.028 A 
HETATM   16  C   UNL     1     -45.930  55.568 -60.935  1.00  0.00     0.116 A 
HETATM   17  N   UNL     1     -44.614  55.434 -61.203  1.00  0.00    -0.273 NA
HETATM   18  C   UNL     1     -43.771  56.197 -60.479  1.00  0.00     0.116 A 
HETATM   19  C   UNL     1     -44.183  57.072 -59.485  1.00  0.00     0.028 A 
ENDBRANCH  13  14
ENDBRANCH   9  13
ENDBRANCH   3   7
BRANCH   5  20
HETATM   20  N   UNL     1     -41.539  55.465 -52.095  1.00  0.00    -0.327 N 
HETATM   21  C   UNL     1     -41.598  54.210 -51.513  1.00  0.00     0.227 C 
HETATM   22  O   UNL     1     -42.600  53.671 -51.042  1.00  0.00    -0.273 OA
HETATM   23  H   UNL     1     -40.625  55.791 -52.381  1.00  0.00     0.169 HD
BRANCH  21  24
HETATM   24  C   UNL     1     -40.242  53.508 -51.451  1.00  0.00     0.159 C 
BRANCH  24  25
HETATM   25  C   UNL     1     -40.145  52.456 -52.510  1.00  0.00     0.017 A 
HETATM   26  N   UNL     1     -39.593  51.219 -52.258  1.00  0.00    -0.369 N 
HETATM   27  H   UNL     1     -39.194  50.933 -51.368  1.00  0.00     0.165 HD
HETATM   28  C   UNL     1     -39.633  50.457 -53.395  1.00  0.00     0.088 A 
HETATM   29  C   UNL     1     -40.235  51.201 -54.385  1.00  0.00     0.019 A 
HETATM   30  C   UNL     1     -40.562  52.461 -53.827  1.00  0.00     0.027 A 
ENDBRANCH  24  25
ENDBRANCH  21  24
ENDBRANCH   5  20
TORSDOF 6
ENDMDL
MODEL 4
REMARK VINA RESULT:      -7.3      4.678      9.350
REMARK  6 active torsions:
REMARK  status: ('A' for Active; 'I' for Inactive)
REMARK    1  A    between atoms: C_3  and  N_4 
REMARK       I    between atoms: N_4  and  C_5 
REMARK       I    between atoms: C_5  and  N_6 
REMARK    2  A    between atoms: N_6  and  C_7 
REMARK    3  A    between atoms: C_7  and  C_8 
REMARK    4  A    between atoms: C_16  and  N_17 
REMARK       I    between atoms: N_17  and  C_18 
REMARK    5  A    between atoms: C_18  and  C_19 
REMARK    6  A    between atoms: C_19  and  C_20 
ROOT
HETATM    1  C   UNL     1     -44.275  57.078 -53.678  1.00  0.00     0.004 A 
HETATM    2  C   UNL     1     -44.526  58.137 -52.806  1.00  0.00     0.029 A 
HETATM    3  C   UNL     1     -43.736  58.315 -51.671  1.00  0.00     0.038 A 
HETATM    4  C   UNL     1     -42.684  57.419 -51.426  1.00  0.00     0.059 A 
HETATM    5  C   UNL     1     -42.420  56.355 -52.295  1.00  0.00     0.036 A 
HETATM    6  C   UNL     1     -43.229  56.192 -53.425  1.00  0.00     0.029 A 
ENDROOT
BRANCH   3   7
HETATM    7  N   UNL     1     -43.915  59.365 -50.745  1.00  0.00    -0.309 N 
HETATM    8  C   UNL     1     -45.057  59.675 -50.040  1.00  0.00     0.320 C 
HETATM    9  N   UNL     1     -44.885  60.824 -49.297  1.00  0.00    -0.339 N 
HETATM   10  O   UNL     1     -46.105  59.044 -50.033  1.00  0.00    -0.247 OA
HETATM   11  H   UNL     1     -44.164  61.469 -49.581  1.00  0.00     0.164 HD
HETATM   12  H   UNL     1     -43.085  59.875 -50.483  1.00  0.00     0.170 HD
BRANCH   9  13
HETATM   13  C   UNL     1     -45.955  61.355 -48.480  1.00  0.00     0.163 C 
BRANCH  13  14
HETATM   14  C   UNL     1     -45.526  61.732 -47.082  1.00  0.00    -0.038 A 
HETATM   15  C   UNL     1     -44.966  60.813 -46.189  1.00  0.00     0.028 A 
HETATM   16  C   UNL     1     -44.559  61.255 -44.939  1.00  0.00     0.116 A 
HETATM   17  N   UNL     1     -44.658  62.537 -44.526  1.00  0.00    -0.273 NA
HETATM   18  C   UNL     1     -45.172  63.416 -45.409  1.00  0.00     0.116 A 
HETATM   19  C   UNL     1     -45.611  63.069 -46.677  1.00  0.00     0.028 A 
ENDBRANCH  13  14
ENDBRANCH   9  13
ENDBRANCH   3   7
BRANCH   5  20
HETATM   20  N   UNL     1     -41.379  55.421 -52.110  1.00  0.00    -0.327 N 
HETATM   21  C   UNL     1     -41.464  54.165 -51.535  1.00  0.00     0.227 C 
HETATM   22  O   UNL     1     -42.477  53.646 -51.065  1.00  0.00    -0.273 OA
HETATM   23  H   UNL     1     -40.458  55.729 -52.397  1.00  0.00     0.169 HD
BRANCH  21  24
HETATM   24  C   UNL     1     -40.125  53.432 -51.481  1.00  0.00     0.159 C 
BRANCH  24  25
HETATM   25  C   UNL     1     -40.071  52.356 -52.519  1.00  0.00     0.017 A 
HETATM   26  N   UNL     1     -39.554  51.108 -52.247  1.00  0.00    -0.369 N 
HETATM   27  H   UNL     1     -39.153  50.829 -51.355  1.00  0.00     0.165 HD
HETATM   28  C   UNL     1     -39.629  50.324 -53.367  1.00  0.00     0.088 A 
HETATM   29  C   UNL     1     -40.221  51.065 -54.365  1.00  0.00     0.019 A 
HETATM   30  C   UNL     1     -40.503  52.345 -53.831  1.00  0.00     0.027 A 
ENDBRANCH  24  25
ENDBRANCH  21  24
ENDBRANCH   5  20
TORSDOF 6
ENDMDL
MODEL 5
REMARK VINA RESULT:      -7.2      2.020      8.889
REMARK  6 active torsions:
REMARK  status: ('A' for Active; 'I' for Inactive)
REMARK    1  A    between atoms: C_3  and  N_4 
REMARK       I    between atoms: N_4  and  C_5 
REMARK       I    between atoms: C_5  and  N_6 
REMARK    2  A    between atoms: N_6  and  C_7 
REMARK    3  A    between atoms: C_7  and  C_8 
REMARK    4  A    between atoms: C_16  and  N_17 
REMARK       I    between atoms: N_17  and  C_18 
REMARK    5  A    between atoms: C_18  and  C_19 
REMARK    6  A    between atoms: C_19  and  C_20 
ROOT
HETATM    1  C   UNL     1     -41.913  57.955 -53.839  1.00  0.00     0.004 A 
HETATM    2  C   UNL     1     -42.714  57.665 -54.944  1.00  0.00     0.029 A 
HETATM    3  C   UNL     1     -42.785  56.363 -55.439  1.00  0.00     0.038 A 
HETATM    4  C   UNL     1     -42.047  55.352 -54.803  1.00  0.00     0.059 A 
HETATM    5  C   UNL     1     -41.244  55.629 -53.693  1.00  0.00     0.036 A 
HETATM    6  C   UNL     1     -41.182  56.943 -53.217  1.00  0.00     0.029 A 
ENDROOT
BRANCH   3   7
HETATM    7  N   UNL     1     -43.578  55.984 -56.543  1.00  0.00    -0.309 N 
HETATM    8  C   UNL     1     -43.400  56.335 -57.862  1.00  0.00     0.320 C 
HETATM    9  N   UNL     1     -44.426  55.850 -58.647  1.00  0.00    -0.339 N 
HETATM   10  O   UNL     1     -42.473  56.982 -58.327  1.00  0.00    -0.247 OA
HETATM   11  H   UNL     1     -45.302  55.628 -58.200  1.00  0.00     0.164 HD
HETATM   12  H   UNL     1     -44.285  55.285 -56.365  1.00  0.00     0.170 HD
BRANCH   9  13
HETATM   13  C   UNL     1     -44.462  56.103 -60.072  1.00  0.00     0.163 C 
BRANCH  13  14
HETATM   14  C   UNL     1     -45.695  56.845 -60.528  1.00  0.00    -0.038 A 
HETATM   15  C   UNL     1     -46.796  56.200 -61.099  1.00  0.00     0.028 A 
HETATM   16  C   UNL     1     -47.907  56.955 -61.450  1.00  0.00     0.116 A 
HETATM   17  N   UNL     1     -48.001  58.288 -61.262  1.00  0.00    -0.273 NA
HETATM   18  C   UNL     1     -46.943  58.890 -60.683  1.00  0.00     0.116 A 
HETATM   19  C   UNL     1     -45.788  58.223 -60.304  1.00  0.00     0.028 A 
ENDBRANCH  13  14
ENDBRANCH   9  13
ENDBRANCH   3   7
BRANCH   5  20
HETATM   20  N   UNL     1     -40.480  54.661 -53.007  1.00  0.00    -0.327 N 
HETATM   21  C   UNL     1     -40.921  53.755 -52.058  1.00  0.00     0.227 C 
HETATM   22  O   UNL     1     -42.072  53.648 -51.632  1.00  0.00    -0.273 OA
HETATM   23  H   UNL     1     -39.487  54.663 -53.208  1.00  0.00     0.169 HD
BRANCH  21  24
HETATM   24  C   UNL     1     -39.808  52.865 -51.507  1.00  0.00     0.159 C 
BRANCH  24  25
HETATM   25  C   UNL     1     -39.722  51.588 -52.282  1.00  0.00     0.017 A 
HETATM   26  N   UNL     1     -39.575  50.368 -51.659  1.00  0.00    -0.369 N 
HETATM   27  H   UNL     1     -39.488  50.238 -50.655  1.00  0.00     0.165 HD
HETATM   28  C   UNL     1     -39.527  49.374 -52.599  1.00  0.00     0.088 A 
HETATM   29  C   UNL     1     -39.665  49.955 -53.840  1.00  0.00     0.019 A 
HETATM   30  C   UNL     1     -39.792  51.352 -53.641  1.00  0.00     0.027 A 
ENDBRANCH  24  25
ENDBRANCH  21  24
ENDBRANCH   5  20
TORSDOF 6
ENDMDL
MODEL 6
REMARK VINA RESULT:      -7.1      1.819      8.733
REMARK  6 active torsions:
REMARK  status: ('A' for Active; 'I' for Inactive)
REMARK    1  A    between atoms: C_3  and  N_4 
REMARK       I    between atoms: N_4  and  C_5 
REMARK       I    between atoms: C_5  and  N_6 
REMARK    2  A    between atoms: N_6  and  C_7 
REMARK    3  A    between atoms: C_7  and  C_8 
REMARK    4  A    between atoms: C_16  and  N_17 
REMARK       I    between atoms: N_17  and  C_18 
REMARK    5  A    between atoms: C_18  and  C_19 
REMARK    6  A    between atoms: C_19  and  C_20 
ROOT
HETATM    1  C   UNL     1     -43.037  56.343 -51.888  1.00  0.00     0.004 A 
HETATM    2  C   UNL     1     -44.023  56.881 -52.713  1.00  0.00     0.029 A 
HETATM    3  C   UNL     1     -44.314  56.287 -53.941  1.00  0.00     0.038 A 
HETATM    4  C   UNL     1     -43.605  55.138 -54.327  1.00  0.00     0.059 A 
HETATM    5  C   UNL     1     -42.616  54.587 -53.505  1.00  0.00     0.036 A 
HETATM    6  C   UNL     1     -42.337  55.202 -52.280  1.00  0.00     0.029 A 
ENDROOT
BRANCH   3   7
HETATM    7  N   UNL     1     -45.303  56.761 -54.829  1.00  0.00    -0.309 N 
HETATM    8  C   UNL     1     -45.164  57.731 -55.797  1.00  0.00     0.320 C 
HETATM    9  N   UNL     1     -46.371  57.994 -56.411  1.00  0.00    -0.339 N 
HETATM   10  O   UNL     1     -44.132  58.305 -56.113  1.00  0.00    -0.247 OA
HETATM   11  H   UNL     1     -47.217  57.761 -55.915  1.00  0.00     0.164 HD
HETATM   12  H   UNL     1     -46.176  56.254 -54.836  1.00  0.00     0.170 HD
BRANCH   9  13
HETATM   13  C   UNL     1     -46.477  58.989 -57.457  1.00  0.00     0.163 C 
BRANCH  13  14
HETATM   14  C   UNL     1     -46.904  58.428 -58.792  1.00  0.00    -0.038 A 
HETATM   15  C   UNL     1     -47.447  59.222 -59.807  1.00  0.00     0.028 A 
HETATM   16  C   UNL     1     -47.772  58.630 -61.020  1.00  0.00     0.116 A 
HETATM   17  N   UNL     1     -47.582  57.323 -61.293  1.00  0.00    -0.273 NA
HETATM   18  C   UNL     1     -47.029  56.577 -60.315  1.00  0.00     0.116 A 
HETATM   19  C   UNL     1     -46.678  57.075 -59.070  1.00  0.00     0.028 A 
ENDBRANCH  13  14
ENDBRANCH   9  13
ENDBRANCH   3   7
BRANCH   5  20
HETATM   20  N   UNL     1     -41.869  53.435 -53.830  1.00  0.00    -0.327 N 
HETATM   21  C   UNL     1     -40.596  53.379 -54.372  1.00  0.00     0.227 C 
HETATM   22  O   UNL     1     -39.894  54.341 -54.683  1.00  0.00    -0.273 OA
HETATM   23  H   UNL     1     -42.341  52.551 -53.684  1.00  0.00     0.169 HD
BRANCH  21  24
HETATM   24  C   UNL     1     -40.103  51.953 -54.613  1.00  0.00     0.159 C 
BRANCH  24  25
HETATM   25  C   UNL     1     -39.867  51.251 -53.314  1.00  0.00     0.017 A 
HETATM   26  N   UNL     1     -39.819  49.876 -53.228  1.00  0.00    -0.369 N 
HETATM   27  H   UNL     1     -39.961  49.242 -54.010  1.00  0.00     0.165 HD
HETATM   28  C   UNL     1     -39.588  49.503 -51.931  1.00  0.00     0.088 A 
HETATM   29  C   UNL     1     -39.466  50.648 -51.175  1.00  0.00     0.019 A 
HETATM   30  C   UNL     1     -39.638  51.751 -52.047  1.00  0.00     0.027 A 
ENDBRANCH  24  25
ENDBRANCH  21  24
ENDBRANCH   5  20
TORSDOF 6
ENDMDL
MODEL 7
REMARK VINA RESULT:      -6.9     15.488     17.145
REMARK  6 active torsions:
REMARK  status: ('A' for Active; 'I' for Inactive)
REMARK    1  A    between atoms: C_3  and  N_4 
REMARK       I    between atoms: N_4  and  C_5 
REMARK       I    between atoms: C_5  and  N_6 
REMARK    2  A    between atoms: N_6  and  C_7 
REMARK    3  A    between atoms: C_7  and  C_8 
REMARK    4  A    between atoms: C_16  and  N_17 
REMARK       I    between atoms: N_17  and  C_18 
REMARK    5  A    between atoms: C_18  and  C_19 
REMARK    6  A    between atoms: C_19  and  C_20 
ROOT
HETATM    1  C   UNL     1     -34.423  40.966 -50.914  1.00  0.00     0.004 A 
HETATM    2  C   UNL     1     -35.583  40.414 -50.373  1.00  0.00     0.029 A 
HETATM    3  C   UNL     1     -36.763  40.386 -51.117  1.00  0.00     0.038 A 
HETATM    4  C   UNL     1     -36.759  40.914 -52.418  1.00  0.00     0.059 A 
HETATM    5  C   UNL     1     -35.601  41.467 -52.973  1.00  0.00     0.036 A 
HETATM    6  C   UNL     1     -34.430  41.490 -52.207  1.00  0.00     0.029 A 
ENDROOT
BRANCH   3   7
HETATM    7  N   UNL     1     -37.975  39.837 -50.649  1.00  0.00    -0.309 N 
HETATM    8  C   UNL     1     -38.419  38.541 -50.794  1.00  0.00     0.320 C 
HETATM    9  N   UNL     1     -39.693  38.394 -50.285  1.00  0.00    -0.339 N 
HETATM   10  O   UNL     1     -37.803  37.609 -51.291  1.00  0.00    -0.247 OA
HETATM   11  H   UNL     1     -40.268  39.217 -50.200  1.00  0.00     0.164 HD
HETATM   12  H   UNL     1     -38.526  40.425 -50.042  1.00  0.00     0.170 HD
BRANCH   9  13
HETATM   13  C   UNL     1     -40.375  37.118 -50.334  1.00  0.00     0.163 C 
BRANCH  13  14
HETATM   14  C   UNL     1     -41.879  37.233 -50.402  1.00  0.00    -0.038 A 
HETATM   15  C   UNL     1     -42.610  36.920 -51.552  1.00  0.00     0.028 A 
HETATM   16  C   UNL     1     -43.994  37.013 -51.512  1.00  0.00     0.116 A 
HETATM   17  N   UNL     1     -44.693  37.377 -50.416  1.00  0.00    -0.273 NA
HETATM   18  C   UNL     1     -43.975  37.646 -49.306  1.00  0.00     0.116 A 
HETATM   19  C   UNL     1     -42.591  37.588 -49.250  1.00  0.00     0.028 A 
ENDBRANCH  13  14
ENDBRANCH   9  13
ENDBRANCH   3   7
BRANCH   5  20
HETATM   20  N   UNL     1     -35.527  42.012 -54.273  1.00  0.00    -0.327 N 
HETATM   21  C   UNL     1     -35.038  41.404 -55.416  1.00  0.00     0.227 C 
HETATM   22  O   UNL     1     -34.561  40.271 -55.491  1.00  0.00    -0.273 OA
HETATM   23  H   UNL     1     -35.833  42.973 -54.364  1.00  0.00     0.169 HD
BRANCH  21  24
HETATM   24  C   UNL     1     -35.094  42.301 -56.651  1.00  0.00     0.159 C 
BRANCH  24  25
HETATM   25  C   UNL     1     -35.937  41.677 -57.718  1.00  0.00     0.017 A 
HETATM   26  N   UNL     1     -35.778  40.361 -58.092  1.00  0.00    -0.369 N 
HETATM   27  H   UNL     1     -35.082  39.729 -57.707  1.00  0.00     0.165 HD
HETATM   28  C   UNL     1     -36.674  40.052 -59.081  1.00  0.00     0.088 A 
HETATM   29  C   UNL     1     -37.432  41.174 -59.333  1.00  0.00     0.019 A 
HETATM   30  C   UNL     1     -36.970  42.199 -58.471  1.00  0.00     0.027 A 
ENDBRANCH  24  25
ENDBRANCH  21  24
ENDBRANCH   5  20
TORSDOF 6
ENDMDL
MODEL 8
REMARK VINA RESULT:      -6.9      1.917      2.303
REMARK  6 active torsions:
REMARK  status: ('A' for Active; 'I' for Inactive)
REMARK    1  A    between atoms: C_3  and  N_4 
REMARK       I    between atoms: N_4  and  C_5 
REMARK       I    between atoms: C_5  and  N_6 
REMARK    2  A    between atoms: N_6  and  C_7 
REMARK    3  A    between atoms: C_7  and  C_8 
REMARK    4  A    between atoms: C_16  and  N_17 
REMARK       I    between atoms: N_17  and  C_18 
REMARK    5  A    between atoms: C_18  and  C_19 
REMARK    6  A    between atoms: C_19  and  C_20 
ROOT
HETATM    1  C   UNL     1     -44.534  57.817 -52.140  1.00  0.00     0.004 A 
HETATM    2  C   UNL     1     -43.483  57.061 -51.620  1.00  0.00     0.029 A 
HETATM    3  C   UNL     1     -42.662  56.321 -52.470  1.00  0.00     0.038 A 
HETATM    4  C   UNL     1     -42.905  56.355 -53.852  1.00  0.00     0.059 A 
HETATM    5  C   UNL     1     -43.954  57.111 -54.385  1.00  0.00     0.036 A 
HETATM    6  C   UNL     1     -44.768  57.843 -53.514  1.00  0.00     0.029 A 
ENDROOT
BRANCH   3   7
HETATM    7  N   UNL     1     -41.572  55.540 -52.028  1.00  0.00    -0.309 N 
HETATM    8  C   UNL     1     -41.613  54.271 -51.495  1.00  0.00     0.320 C 
HETATM    9  N   UNL     1     -40.358  53.862 -51.093  1.00  0.00    -0.339 N 
HETATM   10  O   UNL     1     -42.600  53.558 -51.379  1.00  0.00    -0.247 OA
HETATM   11  H   UNL     1     -39.667  54.571 -50.899  1.00  0.00     0.164 HD
HETATM   12  H   UNL     1     -40.653  55.903 -52.230  1.00  0.00     0.170 HD
BRANCH   9  13
HETATM   13  C   UNL     1     -40.152  52.563 -50.489  1.00  0.00     0.163 C 
BRANCH  13  14
HETATM   14  C   UNL     1     -39.864  51.466 -51.486  1.00  0.00    -0.038 A 
HETATM   15  C   UNL     1     -39.720  50.126 -51.114  1.00  0.00     0.028 A 
HETATM   16  C   UNL     1     -39.499  49.176 -52.102  1.00  0.00     0.116 A 
HETATM   17  N   UNL     1     -39.427  49.464 -53.419  1.00  0.00    -0.273 NA
HETATM   18  C   UNL     1     -39.598  50.756 -53.764  1.00  0.00     0.116 A 
HETATM   19  C   UNL     1     -39.816  51.775 -52.850  1.00  0.00     0.028 A 
ENDBRANCH  13  14
ENDBRANCH   9  13
ENDBRANCH   3   7
BRANCH   5  20
HETATM   20  N   UNL     1     -44.251  57.192 -55.762  1.00  0.00    -0.327 N 
HETATM   21  C   UNL     1     -43.556  57.888 -56.737  1.00  0.00     0.227 C 
HETATM   22  O   UNL     1     -42.552  58.579 -56.562  1.00  0.00    -0.273 OA
HETATM   23  H   UNL     1     -45.095  56.716 -56.058  1.00  0.00     0.169 HD
BRANCH  21  24
HETATM   24  C   UNL     1     -44.179  57.768 -58.127  1.00  0.00     0.159 C 
BRANCH  24  25
HETATM   25  C   UNL     1     -43.337  58.472 -59.144  1.00  0.00     0.017 A 
HETATM   26  N   UNL     1     -43.271  59.847 -59.206  1.00  0.00    -0.369 N 
HETATM   27  H   UNL     1     -43.791  60.479 -58.604  1.00  0.00     0.165 HD
HETATM   28  C   UNL     1     -42.431  60.221 -60.221  1.00  0.00     0.088 A 
HETATM   29  C   UNL     1     -41.935  59.077 -60.806  1.00  0.00     0.019 A 
HETATM   30  C   UNL     1     -42.503  57.973 -60.125  1.00  0.00     0.027 A 
ENDBRANCH  24  25
ENDBRANCH  21  24
ENDBRANCH   5  20
TORSDOF 6
ENDMDL
MODEL 9
REMARK VINA RESULT:      -6.6      4.478      9.038
REMARK  6 active torsions:
REMARK  status: ('A' for Active; 'I' for Inactive)
REMARK    1  A    between atoms: C_3  and  N_4 
REMARK       I    between atoms: N_4  and  C_5 
REMARK       I    between atoms: C_5  and  N_6 
REMARK    2  A    between atoms: N_6  and  C_7 
REMARK    3  A    between atoms: C_7  and  C_8 
REMARK    4  A    between atoms: C_16  and  N_17 
REMARK       I    between atoms: N_17  and  C_18 
REMARK    5  A    between atoms: C_18  and  C_19 
REMARK    6  A    between atoms: C_19  and  C_20 
ROOT
HETATM    1  C   UNL     1     -40.203  59.160 -50.854  1.00  0.00     0.004 A 
HETATM    2  C   UNL     1     -40.394  58.666 -52.144  1.00  0.00     0.029 A 
HETATM    3  C   UNL     1     -41.546  58.995 -52.859  1.00  0.00     0.038 A 
HETATM    4  C   UNL     1     -42.501  59.834 -52.264  1.00  0.00     0.059 A 
HETATM    5  C   UNL     1     -42.318  60.339 -50.972  1.00  0.00     0.036 A 
HETATM    6  C   UNL     1     -41.158  59.992 -50.271  1.00  0.00     0.029 A 
ENDROOT
BRANCH   3   7
HETATM    7  N   UNL     1     -41.811  58.547 -54.171  1.00  0.00    -0.309 N 
HETATM    8  C   UNL     1     -42.245  57.299 -54.558  1.00  0.00     0.320 C 
HETATM    9  N   UNL     1     -42.308  57.201 -55.933  1.00  0.00    -0.339 N 
HETATM   10  O   UNL     1     -42.552  56.371 -53.823  1.00  0.00    -0.247 OA
HETATM   11  H   UNL     1     -41.749  57.837 -56.480  1.00  0.00     0.164 HD
HETATM   12  H   UNL     1     -41.794  59.251 -54.894  1.00  0.00     0.170 HD
BRANCH   9  13
HETATM   13  C   UNL     1     -42.727  55.974 -56.577  1.00  0.00     0.163 C 
BRANCH  13  14
HETATM   14  C   UNL     1     -43.078  56.140 -58.036  1.00  0.00    -0.038 A 
HETATM   15  C   UNL     1     -42.635  57.223 -58.801  1.00  0.00     0.028 A 
HETATM   16  C   UNL     1     -42.969  57.274 -60.147  1.00  0.00     0.116 A 
HETATM   17  N   UNL     1     -43.691  56.326 -60.779  1.00  0.00    -0.273 NA
HETATM   18  C   UNL     1     -44.085  55.272 -60.035  1.00  0.00     0.116 A 
HETATM   19  C   UNL     1     -43.807  55.136 -58.684  1.00  0.00     0.028 A 
ENDBRANCH  13  14
ENDBRANCH   9  13
ENDBRANCH   3   7
BRANCH   5  20
HETATM   20  N   UNL     1     -43.234  61.188 -50.317  1.00  0.00    -0.327 N 
HETATM   21  C   UNL     1     -44.521  60.885 -49.905  1.00  0.00     0.227 C 
HETATM   22  O   UNL     1     -45.099  59.808 -50.057  1.00  0.00    -0.273 OA
HETATM   23  H   UNL     1     -42.923  62.141 -50.170  1.00  0.00     0.169 HD
BRANCH  21  24
HETATM   24  C   UNL     1     -45.238  62.060 -49.243  1.00  0.00     0.159 C 
BRANCH  24  25
HETATM   25  C   UNL     1     -45.155  61.955 -47.753  1.00  0.00     0.017 A 
HETATM   26  N   UNL     1     -44.860  60.766 -47.123  1.00  0.00    -0.369 N 
HETATM   27  H   UNL     1     -44.704  59.882 -47.598  1.00  0.00     0.165 HD
HETATM   28  C   UNL     1     -44.847  60.955 -45.766  1.00  0.00     0.088 A 
HETATM   29  C   UNL     1     -45.115  62.283 -45.519  1.00  0.00     0.019 A 
HETATM   30  C   UNL     1     -45.307  62.916 -46.772  1.00  0.00     0.027 A 
ENDBRANCH  24  25
ENDBRANCH  21  24
ENDBRANCH   5  20
TORSDOF 6
ENDMDL
MODEL 10
REMARK VINA RESULT:      -6.5      2.116      8.467
REMARK  6 active torsions:
REMARK  status: ('A' for Active; 'I' for Inactive)
REMARK    1  A    between atoms: C_3  and  N_4 
REMARK       I    between atoms: N_4  and  C_5 
REMARK       I    between atoms: C_5  and  N_6 
REMARK    2  A    between atoms: N_6  and  C_7 
REMARK    3  A    between atoms: C_7  and  C_8 
REMARK    4  A    between atoms: C_16  and  N_17 
REMARK       I    between atoms: N_17  and  C_18 
REMARK    5  A    between atoms: C_18  and  C_19 
REMARK    6  A    between atoms: C_19  and  C_20 
ROOT
HETATM    1  C   UNL     1     -44.807  59.252 -52.969  1.00  0.00     0.004 A 
HETATM    2  C   UNL     1     -45.113  59.081 -54.318  1.00  0.00     0.029 A 
HETATM    3  C   UNL     1     -44.927  57.842 -54.931  1.00  0.00     0.038 A 
HETATM    4  C   UNL     1     -44.436  56.772 -54.167  1.00  0.00     0.059 A 
HETATM    5  C   UNL     1     -44.129  56.929 -52.812  1.00  0.00     0.036 A 
HETATM    6  C   UNL     1     -44.318  58.182 -52.219  1.00  0.00     0.029 A 
ENDROOT
BRANCH   3   7
HETATM    7  N   UNL     1     -45.222  57.583 -56.287  1.00  0.00    -0.309 N 
HETATM    8  C   UNL     1     -44.328  57.418 -57.321  1.00  0.00     0.320 C 
HETATM    9  N   UNL     1     -44.986  57.269 -58.525  1.00  0.00    -0.339 N 
HETATM   10  O   UNL     1     -43.109  57.391 -57.236  1.00  0.00    -0.247 OA
HETATM   11  H   UNL     1     -45.928  57.622 -58.598  1.00  0.00     0.164 HD
HETATM   12  H   UNL     1     -46.187  57.381 -56.502  1.00  0.00     0.170 HD
BRANCH   9  13
HETATM   13  C   UNL     1     -44.254  57.093 -59.761  1.00  0.00     0.163 C 
BRANCH  13  14
HETATM   14  C   UNL     1     -43.697  58.375 -60.329  1.00  0.00    -0.038 A 
HETATM   15  C   UNL     1     -42.328  58.587 -60.519  1.00  0.00     0.028 A 
HETATM   16  C   UNL     1     -41.906  59.780 -61.089  1.00  0.00     0.116 A 
HETATM   17  N   UNL     1     -42.744  60.759 -61.490  1.00  0.00    -0.273 NA
HETATM   18  C   UNL     1     -44.062  60.528 -61.329  1.00  0.00     0.116 A 
HETATM   19  C   UNL     1     -44.579  59.372 -60.765  1.00  0.00     0.028 A 
ENDBRANCH  13  14
ENDBRANCH   9  13
ENDBRANCH   3   7
BRANCH   5  20
HETATM   20  N   UNL     1     -43.636  55.897 -51.986  1.00  0.00    -0.327 N 
HETATM   21  C   UNL     1     -42.316  55.520 -51.803  1.00  0.00     0.227 C 
HETATM   22  O   UNL     1     -41.333  56.021 -52.350  1.00  0.00    -0.273 OA
HETATM   23  H   UNL     1     -44.337  55.345 -51.507  1.00  0.00     0.169 HD
BRANCH  21  24
HETATM   24  C   UNL     1     -42.150  54.340 -50.847  1.00  0.00     0.159 C 
BRANCH  24  25
HETATM   25  C   UNL     1     -41.169  53.353 -51.394  1.00  0.00     0.017 A 
HETATM   26  N   UNL     1     -41.033  53.136 -52.748  1.00  0.00    -0.369 N 
HETATM   27  H   UNL     1     -41.588  53.594 -53.466  1.00  0.00     0.165 HD
HETATM   28  C   UNL     1     -40.069  52.189 -52.968  1.00  0.00     0.088 A 
HETATM   29  C   UNL     1     -39.562  51.806 -51.746  1.00  0.00     0.019 A 
HETATM   30  C   UNL     1     -40.253  52.542 -50.753  1.00  0.00     0.027 A 
ENDBRANCH  24  25
ENDBRANCH  21  24
ENDBRANCH   5  20
TORSDOF 6
ENDMDL
