MODEL 1
REMARK VINA RESULT:      -8.4      0.000      0.000
REMARK  10 active torsions:
REMARK  status: ('A' for Active; 'I' for Inactive)
REMARK    1  A    between atoms: C_2  and  O_3 
REMARK    2  A    between atoms: O_3  and  C_4 
REMARK    3  A    between atoms: C_4  and  C_5 
REMARK    4  A    between atoms: C_6  and  C_7 
REMARK    5  A    between atoms: C_7  and  O_8 
REMARK    6  A    between atoms: O_8  and  C_9 
REMARK    7  A    between atoms: C_9  and  C_10 
REMARK       I    between atoms: C_10  and  N_11 
REMARK    8  A    between atoms: N_11  and  C_12 
REMARK    9  A    between atoms: C_13  and  C_14 
REMARK       I    between atoms: C_14  and  N_15 
REMARK   10  A    between atoms: N_15  and  C_16 
ROOT
HETATM    1  C   UNL     1     -43.812  56.221 -54.320  1.00  0.00     0.282 C 
ENDROOT
BRANCH   1   2
HETATM    2  O   UNL     1     -43.349  57.028 -55.409  1.00  0.00    -0.307 OA
BRANCH   2   3
HETATM    3  C   UNL     1     -42.816  56.385 -56.485  1.00  0.00     0.318 C 
HETATM    4  O   UNL     1     -42.541  55.193 -56.522  1.00  0.00    -0.257 OA
BRANCH   3   5
HETATM    5  C   UNL     1     -42.577  57.342 -57.541  1.00  0.00     0.160 A 
HETATM    6  C   UNL     1     -42.589  57.202 -58.924  1.00  0.00     0.018 A 
HETATM    7  C   UNL     1     -42.260  58.487 -59.458  1.00  0.00     0.009 A 
HETATM    8  C   UNL     1     -42.057  59.315 -58.363  1.00  0.00     0.087 A 
HETATM    9  C   UNL     1     -42.115  59.040 -60.745  1.00  0.00     0.015 A 
HETATM   10  O   UNL     1     -42.242  58.628 -57.207  1.00  0.00    -0.303 OA
HETATM   11  C   UNL     1     -41.712  60.663 -58.448  1.00  0.00     0.038 A 
HETATM   12  C   UNL     1     -41.571  61.190 -59.735  1.00  0.00     0.003 A 
HETATM   13  C   UNL     1     -41.769  60.394 -60.865  1.00  0.00     0.001 A 
BRANCH   6  14
HETATM   14  C   UNL     1     -42.916  55.961 -59.677  1.00  0.00     0.210 C 
BRANCH  14  15
HETATM   15  O   UNL     1     -43.890  56.241 -60.683  1.00  0.00    -0.387 OA
BRANCH  15  16
HETATM   16  C   UNL     1     -44.773  55.142 -60.882  1.00  0.00     0.163 C 
HETATM   17  C   UNL     1     -44.656  54.212 -59.691  1.00  0.00     0.033 C 
ENDBRANCH  15  16
ENDBRANCH  14  15
ENDBRANCH   6  14
ENDBRANCH   3   5
ENDBRANCH   2   3
ENDBRANCH   1   2
BRANCH   1  18
HETATM   18  C   UNL     1     -42.770  56.163 -53.204  1.00  0.00     0.246 C 
HETATM   19  N   UNL     1     -42.772  54.955 -52.522  1.00  0.00    -0.324 N 
HETATM   20  H   UNL     1     -43.628  54.415 -52.602  1.00  0.00     0.169 HD
HETATM   21  O   UNL     1     -42.046  57.121 -52.944  1.00  0.00    -0.271 OA
BRANCH  19  22
HETATM   22  C   UNL     1     -41.860  54.600 -51.509  1.00  0.00     0.050 A 
HETATM   23  C   UNL     1     -40.641  53.933 -51.725  1.00  0.00     0.058 A 
HETATM   24  C   UNL     1     -39.775  53.688 -50.644  1.00  0.00     0.019 A 
HETATM   25  C   UNL     1     -40.125  54.090 -49.355  1.00  0.00     0.001 A 
HETATM   26  C   UNL     1     -41.354  54.705 -49.131  1.00  0.00     0.002 A 
HETATM   27  C   UNL     1     -42.222  54.945 -50.200  1.00  0.00     0.030 A 
BRANCH  23  28
HETATM   28  C   UNL     1     -40.325  53.249 -53.006  1.00  0.00     0.254 C 
HETATM   29  N   UNL     1     -39.989  51.912 -52.891  1.00  0.00    -0.352 N 
HETATM   30  H   UNL     1     -39.732  51.570 -51.973  1.00  0.00     0.163 HD
HETATM   31  O   UNL     1     -40.430  53.852 -54.069  1.00  0.00    -0.268 OA
BRANCH  29  32
HETATM   32  C   UNL     1     -39.683  51.107 -54.030  1.00  0.00     0.084 A 
HETATM   33  C   UNL     1     -39.327  49.657 -53.868  1.00  0.00     0.027 A 
HETATM   34  C   UNL     1     -40.637  50.039 -54.490  1.00  0.00     0.027 A 
ENDBRANCH  29  32
ENDBRANCH  23  28
ENDBRANCH  19  22
ENDBRANCH   1  18
TORSDOF 10
ENDMDL
MODEL 2
REMARK VINA RESULT:      -8.2      2.428      8.693
REMARK  10 active torsions:
REMARK  status: ('A' for Active; 'I' for Inactive)
REMARK    1  A    between atoms: C_2  and  O_3 
REMARK    2  A    between atoms: O_3  and  C_4 
REMARK    3  A    between atoms: C_4  and  C_5 
REMARK    4  A    between atoms: C_6  and  C_7 
REMARK    5  A    between atoms: C_7  and  O_8 
REMARK    6  A    between atoms: O_8  and  C_9 
REMARK    7  A    between atoms: C_9  and  C_10 
REMARK       I    between atoms: C_10  and  N_11 
REMARK    8  A    between atoms: N_11  and  C_12 
REMARK    9  A    between atoms: C_13  and  C_14 
REMARK       I    between atoms: C_14  and  N_15 
REMARK   10  A    between atoms: N_15  and  C_16 
ROOT
HETATM    1  C   UNL     1     -44.754  58.621 -54.245  1.00  0.00     0.282 C 
ENDROOT
BRANCH   1   2
HETATM    2  O   UNL     1     -44.786  57.333 -53.621  1.00  0.00    -0.307 OA
BRANCH   2   3
HETATM    3  C   UNL     1     -43.964  57.132 -52.553  1.00  0.00     0.318 C 
HETATM    4  O   UNL     1     -43.968  57.805 -51.530  1.00  0.00    -0.257 OA
BRANCH   3   5
HETATM    5  C   UNL     1     -43.058  56.046 -52.848  1.00  0.00     0.160 A 
HETATM    6  C   UNL     1     -42.578  55.012 -52.052  1.00  0.00     0.018 A 
HETATM    7  C   UNL     1     -41.694  54.250 -52.879  1.00  0.00     0.009 A 
HETATM    8  C   UNL     1     -41.688  54.881 -54.115  1.00  0.00     0.087 A 
HETATM    9  C   UNL     1     -40.903  53.095 -52.719  1.00  0.00     0.015 A 
HETATM   10  O   UNL     1     -42.504  55.965 -54.098  1.00  0.00    -0.303 OA
HETATM   11  C   UNL     1     -40.945  54.452 -55.214  1.00  0.00     0.038 A 
HETATM   12  C   UNL     1     -40.166  53.306 -55.032  1.00  0.00     0.003 A 
HETATM   13  C   UNL     1     -40.145  52.637 -53.806  1.00  0.00     0.001 A 
BRANCH   6  14
HETATM   14  C   UNL     1     -42.949  54.750 -50.635  1.00  0.00     0.210 C 
BRANCH  14  15
HETATM   15  O   UNL     1     -41.963  55.299 -49.761  1.00  0.00    -0.387 OA
BRANCH  15  16
HETATM   16  C   UNL     1     -41.218  54.281 -49.101  1.00  0.00     0.163 C 
HETATM   17  C   UNL     1     -39.765  54.408 -49.512  1.00  0.00     0.033 C 
ENDBRANCH  15  16
ENDBRANCH  14  15
ENDBRANCH   6  14
ENDBRANCH   3   5
ENDBRANCH   2   3
ENDBRANCH   1   2
BRANCH   1  18
HETATM   18  C   UNL     1     -44.569  58.489 -55.756  1.00  0.00     0.246 C 
HETATM   19  N   UNL     1     -43.369  57.886 -56.105  1.00  0.00    -0.324 N 
HETATM   20  H   UNL     1     -42.648  57.912 -55.390  1.00  0.00     0.169 HD
HETATM   21  O   UNL     1     -45.403  58.915 -56.551  1.00  0.00    -0.271 OA
BRANCH  19  22
HETATM   22  C   UNL     1     -42.982  57.561 -57.420  1.00  0.00     0.050 A 
HETATM   23  C   UNL     1     -42.115  58.330 -58.216  1.00  0.00     0.058 A 
HETATM   24  C   UNL     1     -41.745  57.872 -59.493  1.00  0.00     0.019 A 
HETATM   25  C   UNL     1     -42.245  56.665 -59.982  1.00  0.00     0.001 A 
HETATM   26  C   UNL     1     -43.143  55.927 -59.216  1.00  0.00     0.002 A 
HETATM   27  C   UNL     1     -43.521  56.379 -57.949  1.00  0.00     0.030 A 
BRANCH  23  28
HETATM   28  C   UNL     1     -41.758  59.732 -57.876  1.00  0.00     0.254 C 
HETATM   29  N   UNL     1     -41.688  60.597 -58.952  1.00  0.00    -0.352 N 
HETATM   30  H   UNL     1     -41.623  60.191 -59.878  1.00  0.00     0.163 HD
HETATM   31  O   UNL     1     -41.609  60.063 -56.704  1.00  0.00    -0.268 OA
BRANCH  29  32
HETATM   32  C   UNL     1     -41.382  61.983 -58.792  1.00  0.00     0.084 A 
HETATM   33  C   UNL     1     -39.982  62.486 -58.997  1.00  0.00     0.027 A 
HETATM   34  C   UNL     1     -41.054  62.838 -59.986  1.00  0.00     0.027 A 
ENDBRANCH  29  32
ENDBRANCH  23  28
ENDBRANCH  19  22
ENDBRANCH   1  18
TORSDOF 10
ENDMDL
MODEL 3
REMARK VINA RESULT:      -8.2      3.742      8.588
REMARK  10 active torsions:
REMARK  status: ('A' for Active; 'I' for Inactive)
REMARK    1  A    between atoms: C_2  and  O_3 
REMARK    2  A    between atoms: O_3  and  C_4 
REMARK    3  A    between atoms: C_4  and  C_5 
REMARK    4  A    between atoms: C_6  and  C_7 
REMARK    5  A    between atoms: C_7  and  O_8 
REMARK    6  A    between atoms: O_8  and  C_9 
REMARK    7  A    between atoms: C_9  and  C_10 
REMARK       I    between atoms: C_10  and  N_11 
REMARK    8  A    between atoms: N_11  and  C_12 
REMARK    9  A    between atoms: C_13  and  C_14 
REMARK       I    between atoms: C_14  and  N_15 
REMARK   10  A    between atoms: N_15  and  C_16 
ROOT
HETATM    1  C   UNL     1     -42.785  55.210 -50.389  1.00  0.00     0.282 C 
ENDROOT
BRANCH   1   2
HETATM    2  O   UNL     1     -41.436  55.396 -50.833  1.00  0.00    -0.307 OA
BRANCH   2   3
HETATM    3  C   UNL     1     -40.496  54.531 -50.360  1.00  0.00     0.318 C 
HETATM    4  O   UNL     1     -39.871  54.677 -49.318  1.00  0.00    -0.257 OA
BRANCH   3   5
HETATM    5  C   UNL     1     -40.318  53.456 -51.309  1.00  0.00     0.160 A 
HETATM    6  C   UNL     1     -40.493  53.411 -52.688  1.00  0.00     0.018 A 
HETATM    7  C   UNL     1     -40.188  52.072 -53.086  1.00  0.00     0.009 A 
HETATM    8  C   UNL     1     -39.862  51.392 -51.921  1.00  0.00     0.087 A 
HETATM    9  C   UNL     1     -40.147  51.363 -54.303  1.00  0.00     0.015 A 
HETATM   10  O   UNL     1     -39.945  52.220 -50.849  1.00  0.00    -0.303 OA
HETATM   11  C   UNL     1     -39.502  50.046 -51.869  1.00  0.00     0.038 A 
HETATM   12  C   UNL     1     -39.471  49.362 -53.088  1.00  0.00     0.003 A 
HETATM   13  C   UNL     1     -39.787  50.008 -54.285  1.00  0.00     0.001 A 
BRANCH   6  14
HETATM   14  C   UNL     1     -40.886  54.552 -53.559  1.00  0.00     0.210 C 
BRANCH  14  15
HETATM   15  O   UNL     1     -42.269  54.455 -53.898  1.00  0.00    -0.387 OA
BRANCH  15  16
HETATM   16  C   UNL     1     -42.481  54.605 -55.298  1.00  0.00     0.163 C 
HETATM   17  C   UNL     1     -41.817  55.890 -55.748  1.00  0.00     0.033 C 
ENDBRANCH  15  16
ENDBRANCH  14  15
ENDBRANCH   6  14
ENDBRANCH   3   5
ENDBRANCH   2   3
ENDBRANCH   1   2
BRANCH   1  18
HETATM   18  C   UNL     1     -43.712  56.250 -51.018  1.00  0.00     0.246 C 
HETATM   19  N   UNL     1     -43.165  56.856 -52.140  1.00  0.00    -0.324 N 
HETATM   20  H   UNL     1     -42.154  56.801 -52.212  1.00  0.00     0.169 HD
HETATM   21  O   UNL     1     -44.808  56.518 -50.533  1.00  0.00    -0.271 OA
BRANCH  19  22
HETATM   22  C   UNL     1     -43.835  57.783 -52.962  1.00  0.00     0.050 A 
HETATM   23  C   UNL     1     -43.767  59.180 -52.819  1.00  0.00     0.058 A 
HETATM   24  C   UNL     1     -44.426  60.012 -53.742  1.00  0.00     0.019 A 
HETATM   25  C   UNL     1     -45.159  59.459 -54.792  1.00  0.00     0.001 A 
HETATM   26  C   UNL     1     -45.270  58.076 -54.906  1.00  0.00     0.002 A 
HETATM   27  C   UNL     1     -44.624  57.244 -53.989  1.00  0.00     0.030 A 
BRANCH  23  28
HETATM   28  C   UNL     1     -43.234  59.828 -51.592  1.00  0.00     0.254 C 
HETATM   29  N   UNL     1     -44.158  60.556 -50.864  1.00  0.00    -0.352 N 
HETATM   30  H   UNL     1     -45.024  60.810 -51.324  1.00  0.00     0.163 HD
HETATM   31  O   UNL     1     -42.068  59.649 -51.258  1.00  0.00    -0.268 OA
BRANCH  29  32
HETATM   32  C   UNL     1     -43.812  61.218 -49.647  1.00  0.00     0.084 A 
HETATM   33  C   UNL     1     -44.440  62.533 -49.286  1.00  0.00     0.027 A 
HETATM   34  C   UNL     1     -44.796  61.298 -48.513  1.00  0.00     0.027 A 
ENDBRANCH  29  32
ENDBRANCH  23  28
ENDBRANCH  19  22
ENDBRANCH   1  18
TORSDOF 10
ENDMDL
MODEL 4
REMARK VINA RESULT:      -8.1      3.503      7.975
REMARK  10 active torsions:
REMARK  status: ('A' for Active; 'I' for Inactive)
REMARK    1  A    between atoms: C_2  and  O_3 
REMARK    2  A    between atoms: O_3  and  C_4 
REMARK    3  A    between atoms: C_4  and  C_5 
REMARK    4  A    between atoms: C_6  and  C_7 
REMARK    5  A    between atoms: C_7  and  O_8 
REMARK    6  A    between atoms: O_8  and  C_9 
REMARK    7  A    between atoms: C_9  and  C_10 
REMARK       I    between atoms: C_10  and  N_11 
REMARK    8  A    between atoms: N_11  and  C_12 
REMARK    9  A    between atoms: C_13  and  C_14 
REMARK       I    between atoms: C_14  and  N_15 
REMARK   10  A    between atoms: N_15  and  C_16 
ROOT
HETATM    1  C   UNL     1     -43.022  57.575 -55.406  1.00  0.00     0.282 C 
ENDROOT
BRANCH   1   2
HETATM    2  O   UNL     1     -43.560  56.501 -54.625  1.00  0.00    -0.307 OA
BRANCH   2   3
HETATM    3  C   UNL     1     -42.983  55.275 -54.761  1.00  0.00     0.318 C 
HETATM    4  O   UNL     1     -43.107  54.548 -55.738  1.00  0.00    -0.257 OA
BRANCH   3   5
HETATM    5  C   UNL     1     -42.257  54.954 -53.554  1.00  0.00     0.160 A 
HETATM    6  C   UNL     1     -41.187  54.095 -53.329  1.00  0.00     0.018 A 
HETATM    7  C   UNL     1     -40.903  54.170 -51.929  1.00  0.00     0.009 A 
HETATM    8  C   UNL     1     -41.827  55.058 -51.399  1.00  0.00     0.087 A 
HETATM    9  C   UNL     1     -39.963  53.587 -51.056  1.00  0.00     0.015 A 
HETATM   10  O   UNL     1     -42.647  55.528 -52.372  1.00  0.00    -0.303 OA
HETATM   11  C   UNL     1     -41.896  55.412 -50.052  1.00  0.00     0.038 A 
HETATM   12  C   UNL     1     -40.956  54.821 -49.203  1.00  0.00     0.003 A 
HETATM   13  C   UNL     1     -40.005  53.924 -49.695  1.00  0.00     0.001 A 
BRANCH   6  14
HETATM   14  C   UNL     1     -40.474  53.293 -54.360  1.00  0.00     0.210 C 
BRANCH  14  15
HETATM   15  O   UNL     1     -40.813  51.913 -54.228  1.00  0.00    -0.387 OA
BRANCH  15  16
HETATM   16  C   UNL     1     -39.695  51.132 -53.817  1.00  0.00     0.163 C 
HETATM   17  C   UNL     1     -39.731  49.814 -54.564  1.00  0.00     0.033 C 
ENDBRANCH  15  16
ENDBRANCH  14  15
ENDBRANCH   6  14
ENDBRANCH   3   5
ENDBRANCH   2   3
ENDBRANCH   1   2
BRANCH   1  18
HETATM   18  C   UNL     1     -42.143  58.484 -54.548  1.00  0.00     0.246 C 
HETATM   19  N   UNL     1     -42.194  58.171 -53.198  1.00  0.00    -0.324 N 
HETATM   20  H   UNL     1     -43.009  57.641 -52.907  1.00  0.00     0.169 HD
HETATM   21  O   UNL     1     -41.499  59.409 -55.036  1.00  0.00    -0.271 OA
BRANCH  19  22
HETATM   22  C   UNL     1     -41.417  58.788 -52.197  1.00  0.00     0.050 A 
HETATM   23  C   UNL     1     -41.936  59.519 -51.114  1.00  0.00     0.058 A 
HETATM   24  C   UNL     1     -41.067  60.036 -50.136  1.00  0.00     0.019 A 
HETATM   25  C   UNL     1     -39.690  59.840 -50.243  1.00  0.00     0.001 A 
HETATM   26  C   UNL     1     -39.170  59.162 -51.341  1.00  0.00     0.002 A 
HETATM   27  C   UNL     1     -40.027  58.651 -52.320  1.00  0.00     0.030 A 
BRANCH  23  28
HETATM   28  C   UNL     1     -43.346  59.988 -51.074  1.00  0.00     0.254 C 
HETATM   29  N   UNL     1     -43.822  60.309 -49.816  1.00  0.00    -0.352 N 
HETATM   30  H   UNL     1     -43.302  59.971 -49.016  1.00  0.00     0.163 HD
HETATM   31  O   UNL     1     -43.980  60.124 -52.116  1.00  0.00    -0.268 OA
BRANCH  29  32
HETATM   32  C   UNL     1     -45.148  60.799 -49.611  1.00  0.00     0.084 A 
HETATM   33  C   UNL     1     -45.643  61.107 -48.227  1.00  0.00     0.027 A 
HETATM   34  C   UNL     1     -45.380  62.225 -49.193  1.00  0.00     0.027 A 
ENDBRANCH  29  32
ENDBRANCH  23  28
ENDBRANCH  19  22
ENDBRANCH   1  18
TORSDOF 10
ENDMDL
MODEL 5
REMARK VINA RESULT:      -8.1      2.970      5.383
REMARK  10 active torsions:
REMARK  status: ('A' for Active; 'I' for Inactive)
REMARK    1  A    between atoms: C_2  and  O_3 
REMARK    2  A    between atoms: O_3  and  C_4 
REMARK    3  A    between atoms: C_4  and  C_5 
REMARK    4  A    between atoms: C_6  and  C_7 
REMARK    5  A    between atoms: C_7  and  O_8 
REMARK    6  A    between atoms: O_8  and  C_9 
REMARK    7  A    between atoms: C_9  and  C_10 
REMARK       I    between atoms: C_10  and  N_11 
REMARK    8  A    between atoms: N_11  and  C_12 
REMARK    9  A    between atoms: C_13  and  C_14 
REMARK       I    between atoms: C_14  and  N_15 
REMARK   10  A    between atoms: N_15  and  C_16 
ROOT
HETATM    1  C   UNL     1     -42.525  57.224 -56.413  1.00  0.00     0.282 C 
ENDROOT
BRANCH   1   2
HETATM    2  O   UNL     1     -43.015  58.557 -56.226  1.00  0.00    -0.307 OA
BRANCH   2   3
HETATM    3  C   UNL     1     -42.099  59.530 -55.959  1.00  0.00     0.318 C 
HETATM    4  O   UNL     1     -41.486  60.165 -56.806  1.00  0.00    -0.257 OA
BRANCH   3   5
HETATM    5  C   UNL     1     -41.932  59.646 -54.528  1.00  0.00     0.160 A 
HETATM    6  C   UNL     1     -42.736  60.228 -53.555  1.00  0.00     0.018 A 
HETATM    7  C   UNL     1     -42.047  60.056 -52.313  1.00  0.00     0.009 A 
HETATM    8  C   UNL     1     -40.867  59.393 -52.619  1.00  0.00     0.087 A 
HETATM    9  C   UNL     1     -42.295  60.384 -50.966  1.00  0.00     0.015 A 
HETATM   10  O   UNL     1     -40.791  59.150 -53.952  1.00  0.00    -0.303 OA
HETATM   11  C   UNL     1     -39.900  59.033 -51.682  1.00  0.00     0.038 A 
HETATM   12  C   UNL     1     -40.166  59.370 -50.352  1.00  0.00     0.003 A 
HETATM   13  C   UNL     1     -41.343  60.034 -49.998  1.00  0.00     0.001 A 
BRANCH   6  14
HETATM   14  C   UNL     1     -44.061  60.867 -53.779  1.00  0.00     0.210 C 
BRANCH  14  15
HETATM   15  O   UNL     1     -45.093  59.882 -53.737  1.00  0.00    -0.387 OA
BRANCH  15  16
HETATM   16  C   UNL     1     -45.685  59.794 -52.445  1.00  0.00     0.163 C 
HETATM   17  C   UNL     1     -46.679  60.929 -52.296  1.00  0.00     0.033 C 
ENDBRANCH  15  16
ENDBRANCH  14  15
ENDBRANCH   6  14
ENDBRANCH   3   5
ENDBRANCH   2   3
ENDBRANCH   1   2
BRANCH   1  18
HETATM   18  C   UNL     1     -42.779  56.372 -55.170  1.00  0.00     0.246 C 
HETATM   19  N   UNL     1     -41.711  56.373 -54.285  1.00  0.00    -0.324 N 
HETATM   20  H   UNL     1     -40.816  56.635 -54.686  1.00  0.00     0.169 HD
HETATM   21  O   UNL     1     -43.820  55.738 -55.021  1.00  0.00    -0.271 OA
BRANCH  19  22
HETATM   22  C   UNL     1     -41.709  55.746 -53.023  1.00  0.00     0.050 A 
HETATM   23  C   UNL     1     -41.013  54.564 -52.714  1.00  0.00     0.058 A 
HETATM   24  C   UNL     1     -41.029  54.064 -51.400  1.00  0.00     0.019 A 
HETATM   25  C   UNL     1     -41.744  54.726 -50.402  1.00  0.00     0.001 A 
HETATM   26  C   UNL     1     -42.476  55.868 -50.717  1.00  0.00     0.002 A 
HETATM   27  C   UNL     1     -42.470  56.367 -52.022  1.00  0.00     0.030 A 
BRANCH  23  28
HETATM   28  C   UNL     1     -40.456  53.673 -53.765  1.00  0.00     0.254 C 
HETATM   29  N   UNL     1     -40.612  52.319 -53.529  1.00  0.00    -0.352 N 
HETATM   30  H   UNL     1     -40.842  52.030 -52.586  1.00  0.00     0.163 HD
HETATM   31  O   UNL     1     -39.959  54.151 -54.780  1.00  0.00    -0.268 OA
BRANCH  29  32
HETATM   32  C   UNL     1     -40.155  51.331 -54.454  1.00  0.00     0.084 A 
HETATM   33  C   UNL     1     -39.248  50.223 -54.003  1.00  0.00     0.027 A 
HETATM   34  C   UNL     1     -40.668  49.919 -54.381  1.00  0.00     0.027 A 
ENDBRANCH  29  32
ENDBRANCH  23  28
ENDBRANCH  19  22
ENDBRANCH   1  18
TORSDOF 10
ENDMDL
MODEL 6
REMARK VINA RESULT:      -8.1      2.146      8.489
REMARK  10 active torsions:
REMARK  status: ('A' for Active; 'I' for Inactive)
REMARK    1  A    between atoms: C_2  and  O_3 
REMARK    2  A    between atoms: O_3  and  C_4 
REMARK    3  A    between atoms: C_4  and  C_5 
REMARK    4  A    between atoms: C_6  and  C_7 
REMARK    5  A    between atoms: C_7  and  O_8 
REMARK    6  A    between atoms: O_8  and  C_9 
REMARK    7  A    between atoms: C_9  and  C_10 
REMARK       I    between atoms: C_10  and  N_11 
REMARK    8  A    between atoms: N_11  and  C_12 
REMARK    9  A    between atoms: C_13  and  C_14 
REMARK       I    between atoms: C_14  and  N_15 
REMARK   10  A    between atoms: N_15  and  C_16 
ROOT
HETATM    1  C   UNL     1     -43.883  56.774 -55.640  1.00  0.00     0.282 C 
ENDROOT
BRANCH   1   2
HETATM    2  O   UNL     1     -42.630  56.087 -55.547  1.00  0.00    -0.307 OA
BRANCH   2   3
HETATM    3  C   UNL     1     -42.662  54.760 -55.243  1.00  0.00     0.318 C 
HETATM    4  O   UNL     1     -43.214  53.901 -55.919  1.00  0.00    -0.257 OA
BRANCH   3   5
HETATM    5  C   UNL     1     -41.997  54.544 -53.979  1.00  0.00     0.160 A 
HETATM    6  C   UNL     1     -40.985  53.663 -53.614  1.00  0.00     0.018 A 
HETATM    7  C   UNL     1     -40.745  53.885 -52.222  1.00  0.00     0.009 A 
HETATM    8  C   UNL     1     -41.636  54.875 -51.834  1.00  0.00     0.087 A 
HETATM    9  C   UNL     1     -39.870  53.361 -51.251  1.00  0.00     0.015 A 
HETATM   10  O   UNL     1     -42.395  55.270 -52.887  1.00  0.00    -0.303 OA
HETATM   11  C   UNL     1     -41.731  55.387 -50.541  1.00  0.00     0.038 A 
HETATM   12  C   UNL     1     -40.855  54.851 -49.593  1.00  0.00     0.003 A 
HETATM   13  C   UNL     1     -39.939  53.855 -49.940  1.00  0.00     0.001 A 
BRANCH   6  14
HETATM   14  C   UNL     1     -40.283  52.711 -54.517  1.00  0.00     0.210 C 
BRANCH  14  15
HETATM   15  O   UNL     1     -40.750  51.382 -54.287  1.00  0.00    -0.387 OA
BRANCH  15  16
HETATM   16  C   UNL     1     -39.679  50.446 -54.249  1.00  0.00     0.163 C 
HETATM   17  C   UNL     1     -39.715  49.732 -52.913  1.00  0.00     0.033 C 
ENDBRANCH  15  16
ENDBRANCH  14  15
ENDBRANCH   6  14
ENDBRANCH   3   5
ENDBRANCH   2   3
ENDBRANCH   1   2
BRANCH   1  18
HETATM   18  C   UNL     1     -43.857  57.803 -56.769  1.00  0.00     0.246 C 
HETATM   19  N   UNL     1     -42.571  58.183 -57.126  1.00  0.00    -0.324 N 
HETATM   20  H   UNL     1     -41.859  58.014 -56.424  1.00  0.00     0.169 HD
HETATM   21  O   UNL     1     -44.890  58.251 -57.261  1.00  0.00    -0.271 OA
BRANCH  19  22
HETATM   22  C   UNL     1     -42.254  59.047 -58.193  1.00  0.00     0.050 A 
HETATM   23  C   UNL     1     -42.442  58.746 -59.553  1.00  0.00     0.058 A 
HETATM   24  C   UNL     1     -42.151  59.714 -60.532  1.00  0.00     0.019 A 
HETATM   25  C   UNL     1     -41.663  60.967 -60.162  1.00  0.00     0.001 A 
HETATM   26  C   UNL     1     -41.427  61.249 -58.819  1.00  0.00     0.002 A 
HETATM   27  C   UNL     1     -41.708  60.290 -57.842  1.00  0.00     0.030 A 
BRANCH  23  28
HETATM   28  C   UNL     1     -42.703  57.364 -60.033  1.00  0.00     0.254 C 
HETATM   29  N   UNL     1     -44.038  57.036 -60.179  1.00  0.00    -0.352 N 
HETATM   30  H   UNL     1     -44.720  57.629 -59.723  1.00  0.00     0.163 HD
HETATM   31  O   UNL     1     -41.767  56.627 -60.326  1.00  0.00    -0.268 OA
BRANCH  29  32
HETATM   32  C   UNL     1     -44.456  55.756 -60.655  1.00  0.00     0.084 A 
HETATM   33  C   UNL     1     -44.536  54.581 -59.722  1.00  0.00     0.027 A 
HETATM   34  C   UNL     1     -45.795  55.193 -60.263  1.00  0.00     0.027 A 
ENDBRANCH  29  32
ENDBRANCH  23  28
ENDBRANCH  19  22
ENDBRANCH   1  18
TORSDOF 10
ENDMDL
MODEL 7
REMARK VINA RESULT:      -8.0      1.650      3.485
REMARK  10 active torsions:
REMARK  status: ('A' for Active; 'I' for Inactive)
REMARK    1  A    between atoms: C_2  and  O_3 
REMARK    2  A    between atoms: O_3  and  C_4 
REMARK    3  A    between atoms: C_4  and  C_5 
REMARK    4  A    between atoms: C_6  and  C_7 
REMARK    5  A    between atoms: C_7  and  O_8 
REMARK    6  A    between atoms: O_8  and  C_9 
REMARK    7  A    between atoms: C_9  and  C_10 
REMARK       I    between atoms: C_10  and  N_11 
REMARK    8  A    between atoms: N_11  and  C_12 
REMARK    9  A    between atoms: C_13  and  C_14 
REMARK       I    between atoms: C_14  and  N_15 
REMARK   10  A    between atoms: N_15  and  C_16 
ROOT
HETATM    1  C   UNL     1     -42.852  55.243 -56.347  1.00  0.00     0.282 C 
ENDROOT
BRANCH   1   2
HETATM    2  O   UNL     1     -42.473  56.413 -57.080  1.00  0.00    -0.307 OA
BRANCH   2   3
HETATM    3  C   UNL     1     -43.347  57.458 -57.091  1.00  0.00     0.318 C 
HETATM    4  O   UNL     1     -44.394  57.502 -56.457  1.00  0.00    -0.257 OA
BRANCH   3   5
HETATM    5  C   UNL     1     -42.870  58.469 -58.006  1.00  0.00     0.160 A 
HETATM    6  C   UNL     1     -43.024  58.606 -59.382  1.00  0.00     0.018 A 
HETATM    7  C   UNL     1     -42.314  59.793 -59.746  1.00  0.00     0.009 A 
HETATM    8  C   UNL     1     -41.767  60.287 -58.570  1.00  0.00     0.087 A 
HETATM    9  C   UNL     1     -42.078  60.504 -60.939  1.00  0.00     0.015 A 
HETATM   10  O   UNL     1     -42.095  59.490 -57.522  1.00  0.00    -0.303 OA
HETATM   11  C   UNL     1     -40.991  61.442 -58.487  1.00  0.00     0.038 A 
HETATM   12  C   UNL     1     -40.768  62.130 -59.683  1.00  0.00     0.003 A 
HETATM   13  C   UNL     1     -41.302  61.671 -60.889  1.00  0.00     0.001 A 
BRANCH   6  14
HETATM   14  C   UNL     1     -43.804  57.704 -60.271  1.00  0.00     0.210 C 
BRANCH  14  15
HETATM   15  O   UNL     1     -43.116  56.465 -60.437  1.00  0.00    -0.387 OA
BRANCH  15  16
HETATM   16  C   UNL     1     -43.933  55.355 -60.078  1.00  0.00     0.163 C 
HETATM   17  C   UNL     1     -45.384  55.786 -60.150  1.00  0.00     0.033 C 
ENDBRANCH  15  16
ENDBRANCH  14  15
ENDBRANCH   6  14
ENDBRANCH   3   5
ENDBRANCH   2   3
ENDBRANCH   1   2
BRANCH   1  18
HETATM   18  C   UNL     1     -41.794  54.888 -55.303  1.00  0.00     0.246 C 
HETATM   19  N   UNL     1     -42.035  53.674 -54.677  1.00  0.00    -0.324 N 
HETATM   20  H   UNL     1     -42.994  53.345 -54.726  1.00  0.00     0.169 HD
HETATM   21  O   UNL     1     -40.858  55.642 -55.048  1.00  0.00    -0.271 OA
BRANCH  19  22
HETATM   22  C   UNL     1     -41.176  53.065 -53.742  1.00  0.00     0.050 A 
HETATM   23  C   UNL     1     -41.173  53.332 -52.361  1.00  0.00     0.058 A 
HETATM   24  C   UNL     1     -40.314  52.613 -51.510  1.00  0.00     0.019 A 
HETATM   25  C   UNL     1     -39.454  51.645 -52.030  1.00  0.00     0.001 A 
HETATM   26  C   UNL     1     -39.419  51.416 -53.403  1.00  0.00     0.002 A 
HETATM   27  C   UNL     1     -40.264  52.131 -54.255  1.00  0.00     0.030 A 
BRANCH  23  28
HETATM   28  C   UNL     1     -41.859  54.514 -51.779  1.00  0.00     0.254 C 
HETATM   29  N   UNL     1     -41.193  55.716 -51.936  1.00  0.00    -0.352 N 
HETATM   30  H   UNL     1     -40.212  55.680 -52.185  1.00  0.00     0.163 HD
HETATM   31  O   UNL     1     -42.965  54.392 -51.262  1.00  0.00    -0.268 OA
BRANCH  29  32
HETATM   32  C   UNL     1     -41.731  56.949 -51.455  1.00  0.00     0.084 A 
HETATM   33  C   UNL     1     -40.950  57.803 -50.498  1.00  0.00     0.027 A 
HETATM   34  C   UNL     1     -41.158  58.263 -51.911  1.00  0.00     0.027 A 
ENDBRANCH  29  32
ENDBRANCH  23  28
ENDBRANCH  19  22
ENDBRANCH   1  18
TORSDOF 10
ENDMDL
MODEL 8
REMARK VINA RESULT:      -7.9      2.416      8.929
REMARK  10 active torsions:
REMARK  status: ('A' for Active; 'I' for Inactive)
REMARK    1  A    between atoms: C_2  and  O_3 
REMARK    2  A    between atoms: O_3  and  C_4 
REMARK    3  A    between atoms: C_4  and  C_5 
REMARK    4  A    between atoms: C_6  and  C_7 
REMARK    5  A    between atoms: C_7  and  O_8 
REMARK    6  A    between atoms: O_8  and  C_9 
REMARK    7  A    between atoms: C_9  and  C_10 
REMARK       I    between atoms: C_10  and  N_11 
REMARK    8  A    between atoms: N_11  and  C_12 
REMARK    9  A    between atoms: C_13  and  C_14 
REMARK       I    between atoms: C_14  and  N_15 
REMARK   10  A    between atoms: N_15  and  C_16 
ROOT
HETATM    1  C   UNL     1     -42.910  55.043 -55.717  1.00  0.00     0.282 C 
ENDROOT
BRANCH   1   2
HETATM    2  O   UNL     1     -41.500  54.809 -55.615  1.00  0.00    -0.307 OA
BRANCH   2   3
HETATM    3  C   UNL     1     -40.905  55.074 -54.419  1.00  0.00     0.318 C 
HETATM    4  O   UNL     1     -40.639  56.194 -54.002  1.00  0.00    -0.257 OA
BRANCH   3   5
HETATM    5  C   UNL     1     -40.589  53.828 -53.758  1.00  0.00     0.160 A 
HETATM    6  C   UNL     1     -40.460  53.513 -52.410  1.00  0.00     0.018 A 
HETATM    7  C   UNL     1     -40.115  52.126 -52.357  1.00  0.00     0.009 A 
HETATM    8  C   UNL     1     -40.046  51.698 -53.675  1.00  0.00     0.087 A 
HETATM    9  C   UNL     1     -39.859  51.186 -51.339  1.00  0.00     0.015 A 
HETATM   10  O   UNL     1     -40.325  52.721 -54.521  1.00  0.00    -0.303 OA
HETATM   11  C   UNL     1     -39.732  50.397 -54.065  1.00  0.00     0.038 A 
HETATM   12  C   UNL     1     -39.480  49.482 -53.039  1.00  0.00     0.003 A 
HETATM   13  C   UNL     1     -39.542  49.868 -51.698  1.00  0.00     0.001 A 
BRANCH   6  14
HETATM   14  C   UNL     1     -40.675  54.441 -51.268  1.00  0.00     0.210 C 
BRANCH  14  15
HETATM   15  O   UNL     1     -41.838  54.056 -50.536  1.00  0.00    -0.387 OA
BRANCH  15  16
HETATM   16  C   UNL     1     -42.954  54.886 -50.843  1.00  0.00     0.163 C 
HETATM   17  C   UNL     1     -42.466  56.316 -50.966  1.00  0.00     0.033 C 
ENDBRANCH  15  16
ENDBRANCH  14  15
ENDBRANCH   6  14
ENDBRANCH   3   5
ENDBRANCH   2   3
ENDBRANCH   1   2
BRANCH   1  18
HETATM   18  C   UNL     1     -43.191  56.435 -56.282  1.00  0.00     0.246 C 
HETATM   19  N   UNL     1     -42.106  56.975 -56.957  1.00  0.00    -0.324 N 
HETATM   20  H   UNL     1     -41.205  56.570 -56.723  1.00  0.00     0.169 HD
HETATM   21  O   UNL     1     -44.268  56.999 -56.107  1.00  0.00    -0.271 OA
BRANCH  19  22
HETATM   22  C   UNL     1     -42.118  58.201 -57.651  1.00  0.00     0.050 A 
HETATM   23  C   UNL     1     -42.057  59.468 -57.043  1.00  0.00     0.058 A 
HETATM   24  C   UNL     1     -42.008  60.626 -57.840  1.00  0.00     0.019 A 
HETATM   25  C   UNL     1     -42.033  60.526 -59.231  1.00  0.00     0.001 A 
HETATM   26  C   UNL     1     -42.145  59.276 -59.833  1.00  0.00     0.002 A 
HETATM   27  C   UNL     1     -42.201  58.122 -59.048  1.00  0.00     0.030 A 
BRANCH  23  28
HETATM   28  C   UNL     1     -42.290  59.663 -55.588  1.00  0.00     0.254 C 
HETATM   29  N   UNL     1     -43.604  59.908 -55.232  1.00  0.00    -0.352 N 
HETATM   30  H   UNL     1     -44.245  60.189 -55.965  1.00  0.00     0.163 HD
HETATM   31  O   UNL     1     -41.363  59.544 -54.794  1.00  0.00    -0.268 OA
BRANCH  29  32
HETATM   32  C   UNL     1     -43.999  60.092 -53.872  1.00  0.00     0.084 A 
HETATM   33  C   UNL     1     -45.434  60.363 -53.522  1.00  0.00     0.027 A 
HETATM   34  C   UNL     1     -44.813  59.045 -53.163  1.00  0.00     0.027 A 
ENDBRANCH  29  32
ENDBRANCH  23  28
ENDBRANCH  19  22
ENDBRANCH   1  18
TORSDOF 10
ENDMDL
MODEL 9
REMARK VINA RESULT:      -7.9      4.334      8.725
REMARK  10 active torsions:
REMARK  status: ('A' for Active; 'I' for Inactive)
REMARK    1  A    between atoms: C_2  and  O_3 
REMARK    2  A    between atoms: O_3  and  C_4 
REMARK    3  A    between atoms: C_4  and  C_5 
REMARK    4  A    between atoms: C_6  and  C_7 
REMARK    5  A    between atoms: C_7  and  O_8 
REMARK    6  A    between atoms: O_8  and  C_9 
REMARK    7  A    between atoms: C_9  and  C_10 
REMARK       I    between atoms: C_10  and  N_11 
REMARK    8  A    between atoms: N_11  and  C_12 
REMARK    9  A    between atoms: C_13  and  C_14 
REMARK       I    between atoms: C_14  and  N_15 
REMARK   10  A    between atoms: N_15  and  C_16 
ROOT
HETATM    1  C   UNL     1     -43.571  56.248 -50.959  1.00  0.00     0.282 C 
ENDROOT
BRANCH   1   2
HETATM    2  O   UNL     1     -42.992  55.534 -52.057  1.00  0.00    -0.307 OA
BRANCH   2   3
HETATM    3  C   UNL     1     -41.642  55.617 -52.218  1.00  0.00     0.318 C 
HETATM    4  O   UNL     1     -40.989  56.650 -52.134  1.00  0.00    -0.257 OA
BRANCH   3   5
HETATM    5  C   UNL     1     -41.122  54.313 -52.557  1.00  0.00     0.160 A 
HETATM    6  C   UNL     1     -40.957  53.683 -53.786  1.00  0.00     0.018 A 
HETATM    7  C   UNL     1     -40.414  52.391 -53.501  1.00  0.00     0.009 A 
HETATM    8  C   UNL     1     -40.300  52.319 -52.120  1.00  0.00     0.087 A 
HETATM    9  C   UNL     1     -40.005  51.277 -54.260  1.00  0.00     0.015 A 
HETATM   10  O   UNL     1     -40.729  53.472 -51.548  1.00  0.00    -0.303 OA
HETATM   11  C   UNL     1     -39.810  51.214 -51.427  1.00  0.00     0.038 A 
HETATM   12  C   UNL     1     -39.411  50.120 -52.199  1.00  0.00     0.003 A 
HETATM   13  C   UNL     1     -39.506  50.149 -53.593  1.00  0.00     0.001 A 
BRANCH   6  14
HETATM   14  C   UNL     1     -41.260  54.269 -55.120  1.00  0.00     0.210 C 
BRANCH  14  15
HETATM   15  O   UNL     1     -42.672  54.333 -55.317  1.00  0.00    -0.387 OA
BRANCH  15  16
HETATM   16  C   UNL     1     -43.083  55.620 -55.765  1.00  0.00     0.163 C 
HETATM   17  C   UNL     1     -42.993  55.652 -57.277  1.00  0.00     0.033 C 
ENDBRANCH  15  16
ENDBRANCH  14  15
ENDBRANCH   6  14
ENDBRANCH   3   5
ENDBRANCH   2   3
ENDBRANCH   1   2
BRANCH   1  18
HETATM   18  C   UNL     1     -44.062  57.625 -51.403  1.00  0.00     0.246 C 
HETATM   19  N   UNL     1     -43.258  58.660 -50.948  1.00  0.00    -0.324 N 
HETATM   20  H   UNL     1     -42.677  58.437 -50.146  1.00  0.00     0.169 HD
HETATM   21  O   UNL     1     -45.087  57.764 -52.066  1.00  0.00    -0.271 OA
BRANCH  19  22
HETATM   22  C   UNL     1     -43.427  60.019 -51.282  1.00  0.00     0.050 A 
HETATM   23  C   UNL     1     -44.092  60.965 -50.483  1.00  0.00     0.058 A 
HETATM   24  C   UNL     1     -44.142  62.312 -50.886  1.00  0.00     0.019 A 
HETATM   25  C   UNL     1     -43.548  62.712 -52.083  1.00  0.00     0.001 A 
HETATM   26  C   UNL     1     -42.934  61.767 -52.901  1.00  0.00     0.002 A 
HETATM   27  C   UNL     1     -42.887  60.427 -52.510  1.00  0.00     0.030 A 
BRANCH  23  28
HETATM   28  C   UNL     1     -44.963  60.573 -49.344  1.00  0.00     0.254 C 
HETATM   29  N   UNL     1     -44.586  61.082 -48.115  1.00  0.00    -0.352 N 
HETATM   30  H   UNL     1     -43.645  61.447 -48.026  1.00  0.00     0.163 HD
HETATM   31  O   UNL     1     -45.968  59.898 -49.542  1.00  0.00    -0.268 OA
BRANCH  29  32
HETATM   32  C   UNL     1     -45.332  60.820 -46.926  1.00  0.00     0.084 A 
HETATM   33  C   UNL     1     -44.703  60.997 -45.573  1.00  0.00     0.027 A 
HETATM   34  C   UNL     1     -45.770  61.948 -46.032  1.00  0.00     0.027 A 
ENDBRANCH  29  32
ENDBRANCH  23  28
ENDBRANCH  19  22
ENDBRANCH   1  18
TORSDOF 10
ENDMDL
MODEL 10
REMARK VINA RESULT:      -7.8      2.330      8.878
REMARK  10 active torsions:
REMARK  status: ('A' for Active; 'I' for Inactive)
REMARK    1  A    between atoms: C_2  and  O_3 
REMARK    2  A    between atoms: O_3  and  C_4 
REMARK    3  A    between atoms: C_4  and  C_5 
REMARK    4  A    between atoms: C_6  and  C_7 
REMARK    5  A    between atoms: C_7  and  O_8 
REMARK    6  A    between atoms: O_8  and  C_9 
REMARK    7  A    between atoms: C_9  and  C_10 
REMARK       I    between atoms: C_10  and  N_11 
REMARK    8  A    between atoms: N_11  and  C_12 
REMARK    9  A    between atoms: C_13  and  C_14 
REMARK       I    between atoms: C_14  and  N_15 
REMARK   10  A    between atoms: N_15  and  C_16 
ROOT
HETATM    1  C   UNL     1     -42.067  56.694 -55.865  1.00  0.00     0.282 C 
ENDROOT
BRANCH   1   2
HETATM    2  O   UNL     1     -42.848  55.493 -55.865  1.00  0.00    -0.307 OA
BRANCH   2   3
HETATM    3  C   UNL     1     -43.333  55.059 -54.668  1.00  0.00     0.318 C 
HETATM    4  O   UNL     1     -44.403  55.401 -54.181  1.00  0.00    -0.257 OA
BRANCH   3   5
HETATM    5  C   UNL     1     -42.362  54.186 -54.049  1.00  0.00     0.160 A 
HETATM    6  C   UNL     1     -41.712  54.261 -52.822  1.00  0.00     0.018 A 
HETATM    7  C   UNL     1     -40.846  53.125 -52.759  1.00  0.00     0.009 A 
HETATM    8  C   UNL     1     -41.018  52.446 -53.957  1.00  0.00     0.087 A 
HETATM    9  C   UNL     1     -39.939  52.596 -51.820  1.00  0.00     0.015 A 
HETATM   10  O   UNL     1     -41.926  53.085 -54.738  1.00  0.00    -0.303 OA
HETATM   11  C   UNL     1     -40.349  51.273 -54.301  1.00  0.00     0.038 A 
HETATM   12  C   UNL     1     -39.452  50.767 -53.356  1.00  0.00     0.003 A 
HETATM   13  C   UNL     1     -39.250  51.416 -52.135  1.00  0.00     0.001 A 
BRANCH   6  14
HETATM   14  C   UNL     1     -41.919  55.306 -51.783  1.00  0.00     0.210 C 
BRANCH  14  15
HETATM   15  O   UNL     1     -42.714  54.786 -50.717  1.00  0.00    -0.387 OA
BRANCH  15  16
HETATM   16  C   UNL     1     -43.970  55.451 -50.624  1.00  0.00     0.163 C 
HETATM   17  C   UNL     1     -43.799  56.869 -51.128  1.00  0.00     0.033 C 
ENDBRANCH  15  16
ENDBRANCH  14  15
ENDBRANCH   6  14
ENDBRANCH   3   5
ENDBRANCH   2   3
ENDBRANCH   1   2
BRANCH   1  18
HETATM   18  C   UNL     1     -42.637  57.712 -56.852  1.00  0.00     0.246 C 
HETATM   19  N   UNL     1     -41.676  58.234 -57.706  1.00  0.00    -0.324 N 
HETATM   20  H   UNL     1     -40.718  58.152 -57.382  1.00  0.00     0.169 HD
HETATM   21  O   UNL     1     -43.822  58.035 -56.838  1.00  0.00    -0.271 OA
BRANCH  19  22
HETATM   22  C   UNL     1     -41.940  59.122 -58.768  1.00  0.00     0.050 A 
HETATM   23  C   UNL     1     -42.664  58.794 -59.928  1.00  0.00     0.058 A 
HETATM   24  C   UNL     1     -42.923  59.783 -60.895  1.00  0.00     0.019 A 
HETATM   25  C   UNL     1     -42.455  61.084 -60.716  1.00  0.00     0.001 A 
HETATM   26  C   UNL     1     -41.694  61.398 -59.593  1.00  0.00     0.002 A 
HETATM   27  C   UNL     1     -41.426  60.420 -58.633  1.00  0.00     0.030 A 
BRANCH  23  28
HETATM   28  C   UNL     1     -42.962  57.389 -60.308  1.00  0.00     0.254 C 
HETATM   29  N   UNL     1     -44.299  57.113 -60.533  1.00  0.00    -0.352 N 
HETATM   30  H   UNL     1     -44.980  57.776 -60.185  1.00  0.00     0.163 HD
HETATM   31  O   UNL     1     -42.049  56.584 -60.461  1.00  0.00    -0.268 OA
BRANCH  29  32
HETATM   32  C   UNL     1     -44.748  55.817 -60.931  1.00  0.00     0.084 A 
HETATM   33  C   UNL     1     -44.805  54.690 -59.940  1.00  0.00     0.027 A 
HETATM   34  C   UNL     1     -46.077  55.291 -60.462  1.00  0.00     0.027 A 
ENDBRANCH  29  32
ENDBRANCH  23  28
ENDBRANCH  19  22
ENDBRANCH   1  18
TORSDOF 10
ENDMDL
