MODEL 1
REMARK VINA RESULT:      -9.4      0.000      0.000
REMARK  6 active torsions:
REMARK  status: ('A' for Active; 'I' for Inactive)
REMARK    1  A    between atoms: C_2  and  C_3 
REMARK    2  A    between atoms: C_6  and  N_7 
REMARK    3  A    between atoms: C_8  and  O_9 
REMARK    4  A    between atoms: C_8  and  C_10 
REMARK       I    between atoms: C_10  and  N_11 
REMARK    5  A    between atoms: N_11  and  C_12 
REMARK    6  A    between atoms: C_12  and  C_13 
ROOT
HETATM    1  N   UNL     1     -42.595  56.322 -53.259  1.00  0.00    -0.254 N 
HETATM    2  C   UNL     1     -42.019  57.649 -52.977  1.00  0.00     0.256 C 
HETATM    3  C   UNL     1     -42.950  58.478 -52.118  1.00  0.00     0.034 A 
HETATM    4  C   UNL     1     -44.317  58.285 -52.289  1.00  0.00     0.048 A 
HETATM    5  N   UNL     1     -44.743  57.267 -53.138  1.00  0.00    -0.308 N 
HETATM    6  C   UNL     1     -43.946  56.246 -53.588  1.00  0.00     0.330 C 
HETATM    7  O   UNL     1     -44.482  55.328 -54.207  1.00  0.00    -0.246 OA
HETATM    8  C   UNL     1     -42.511  59.483 -51.242  1.00  0.00     0.015 A 
HETATM    9  C   UNL     1     -43.434  60.262 -50.544  1.00  0.00     0.001 A 
HETATM   10  C   UNL     1     -44.801  60.060 -50.732  1.00  0.00     0.002 A 
HETATM   11  C   UNL     1     -45.246  59.075 -51.614  1.00  0.00     0.030 A 
HETATM   12  H   UNL     1     -45.733  57.124 -53.289  1.00  0.00     0.170 HD
ENDROOT
BRANCH   2  13
HETATM   13  O   UNL     1     -40.778  57.545 -52.272  1.00  0.00    -0.359 OA
HETATM   14  H   UNL     1     -40.765  56.651 -51.889  1.00  0.00     0.213 HD
ENDBRANCH   2  13
BRANCH   2  15
HETATM   15  C   UNL     1     -41.725  58.456 -54.328  1.00  0.00     0.279 C 
HETATM   16  N   UNL     1     -42.322  57.997 -55.491  1.00  0.00    -0.352 N 
HETATM   17  H   UNL     1     -42.543  57.011 -55.538  1.00  0.00     0.162 HD
HETATM   18  O   UNL     1     -41.023  59.471 -54.333  1.00  0.00    -0.268 OA
BRANCH  16  19
HETATM   19  C   UNL     1     -42.112  58.695 -56.739  1.00  0.00     0.161 C 
BRANCH  19  20
HETATM   20  C   UNL     1     -42.687  58.009 -57.959  1.00  0.00    -0.038 A 
HETATM   21  C   UNL     1     -43.178  56.697 -57.800  1.00  0.00     0.048 A 
HETATM   22  C   UNL     1     -43.668  56.034 -58.906  1.00  0.00     0.105 A 
HETATM   23  C   UNL     1     -43.691  56.618 -60.148  1.00  0.00     0.105 A 
HETATM   24  O   UNL     1     -44.161  54.767 -58.919  1.00  0.00    -0.323 OA
HETATM   25  O   UNL     1     -44.204  55.796 -61.100  1.00  0.00    -0.323 OA
HETATM   26  C   UNL     1     -43.223  57.897 -60.351  1.00  0.00     0.040 A 
HETATM   27  C   UNL     1     -44.480  54.615 -60.318  1.00  0.00     0.352 A 
HETATM   28  C   UNL     1     -42.708  58.592 -59.248  1.00  0.00     0.012 A 
ENDBRANCH  19  20
ENDBRANCH  16  19
ENDBRANCH   2  15
BRANCH   1  29
HETATM   29  C   UNL     1     -41.760  55.167 -53.358  1.00  0.00     0.043 A 
HETATM   30  C   UNL     1     -41.083  54.839 -54.537  1.00  0.00     0.030 A 
HETATM   31  C   UNL     1     -40.301  53.679 -54.614  1.00  0.00     0.009 A 
HETATM   32  C   UNL     1     -40.200  52.809 -53.523  1.00  0.00    -0.058 A 
HETATM   33  C   UNL     1     -40.905  53.115 -52.356  1.00  0.00     0.009 A 
HETATM   34  C   UNL     1     -41.675  54.277 -52.278  1.00  0.00     0.030 A 
BRANCH  32  35
HETATM   35  C   UNL     1     -39.377  51.548 -53.606  1.00  0.00     0.034 C 
HETATM   36  C   UNL     1     -40.109  50.427 -54.331  1.00  0.00     0.010 C 
ENDBRANCH  32  35
ENDBRANCH   1  29
TORSDOF 6
ENDMDL
MODEL 2
REMARK VINA RESULT:      -9.3      2.326      5.973
REMARK  6 active torsions:
REMARK  status: ('A' for Active; 'I' for Inactive)
REMARK    1  A    between atoms: C_2  and  C_3 
REMARK    2  A    between atoms: C_6  and  N_7 
REMARK    3  A    between atoms: C_8  and  O_9 
REMARK    4  A    between atoms: C_8  and  C_10 
REMARK       I    between atoms: C_10  and  N_11 
REMARK    5  A    between atoms: N_11  and  C_12 
REMARK    6  A    between atoms: C_12  and  C_13 
ROOT
HETATM    1  N   UNL     1     -42.796  58.389 -53.394  1.00  0.00    -0.254 N 
HETATM    2  C   UNL     1     -43.627  57.972 -52.250  1.00  0.00     0.256 C 
HETATM    3  C   UNL     1     -44.055  59.164 -51.421  1.00  0.00     0.034 A 
HETATM    4  C   UNL     1     -43.173  60.237 -51.344  1.00  0.00     0.048 A 
HETATM    5  N   UNL     1     -42.018  60.204 -52.121  1.00  0.00    -0.308 N 
HETATM    6  C   UNL     1     -41.818  59.356 -53.179  1.00  0.00     0.330 C 
HETATM    7  O   UNL     1     -40.821  59.533 -53.878  1.00  0.00    -0.246 OA
HETATM    8  C   UNL     1     -45.235  59.201 -50.663  1.00  0.00     0.015 A 
HETATM    9  C   UNL     1     -45.522  60.304 -49.858  1.00  0.00     0.001 A 
HETATM   10  C   UNL     1     -44.623  61.367 -49.786  1.00  0.00     0.002 A 
HETATM   11  C   UNL     1     -43.439  61.331 -50.523  1.00  0.00     0.030 A 
HETATM   12  H   UNL     1     -41.355  60.967 -52.063  1.00  0.00     0.170 HD
ENDROOT
BRANCH   2  13
HETATM   13  O   UNL     1     -44.821  57.310 -52.681  1.00  0.00    -0.359 OA
HETATM   14  H   UNL     1     -44.538  56.438 -53.006  1.00  0.00     0.213 HD
ENDBRANCH   2  13
BRANCH   2  15
HETATM   15  C   UNL     1     -42.841  56.951 -51.299  1.00  0.00     0.279 C 
HETATM   16  N   UNL     1     -43.403  55.701 -51.099  1.00  0.00    -0.352 N 
HETATM   17  H   UNL     1     -44.408  55.628 -51.186  1.00  0.00     0.162 HD
HETATM   18  O   UNL     1     -41.758  57.249 -50.790  1.00  0.00    -0.268 OA
BRANCH  16  19
HETATM   19  C   UNL     1     -42.732  54.728 -50.268  1.00  0.00     0.161 C 
BRANCH  19  20
HETATM   20  C   UNL     1     -41.733  53.850 -50.991  1.00  0.00    -0.038 A 
HETATM   21  C   UNL     1     -41.917  53.655 -52.374  1.00  0.00     0.048 A 
HETATM   22  C   UNL     1     -41.046  52.826 -53.048  1.00  0.00     0.105 A 
HETATM   23  C   UNL     1     -40.009  52.193 -52.409  1.00  0.00     0.105 A 
HETATM   24  O   UNL     1     -41.099  52.525 -54.374  1.00  0.00    -0.323 OA
HETATM   25  O   UNL     1     -39.275  51.418 -53.249  1.00  0.00    -0.323 OA
HETATM   26  C   UNL     1     -39.790  52.355 -51.060  1.00  0.00     0.040 A 
HETATM   27  C   UNL     1     -39.985  51.615 -54.490  1.00  0.00     0.352 A 
HETATM   28  C   UNL     1     -40.666  53.183 -50.345  1.00  0.00     0.012 A 
ENDBRANCH  19  20
ENDBRANCH  16  19
ENDBRANCH   2  15
BRANCH   1  29
HETATM   29  C   UNL     1     -42.876  57.704 -54.645  1.00  0.00     0.043 A 
HETATM   30  C   UNL     1     -43.597  58.216 -55.727  1.00  0.00     0.030 A 
HETATM   31  C   UNL     1     -43.686  57.502 -56.930  1.00  0.00     0.009 A 
HETATM   32  C   UNL     1     -43.079  56.249 -57.067  1.00  0.00    -0.058 A 
HETATM   33  C   UNL     1     -42.389  55.718 -55.974  1.00  0.00     0.009 A 
HETATM   34  C   UNL     1     -42.292  56.436 -54.781  1.00  0.00     0.030 A 
BRANCH  32  35
HETATM   35  C   UNL     1     -43.189  55.466 -58.350  1.00  0.00     0.034 C 
HETATM   36  C   UNL     1     -42.720  56.266 -59.558  1.00  0.00     0.010 C 
ENDBRANCH  32  35
ENDBRANCH   1  29
TORSDOF 6
ENDMDL
MODEL 3
REMARK VINA RESULT:      -9.2      1.976      2.937
REMARK  6 active torsions:
REMARK  status: ('A' for Active; 'I' for Inactive)
REMARK    1  A    between atoms: C_2  and  C_3 
REMARK    2  A    between atoms: C_6  and  N_7 
REMARK    3  A    between atoms: C_8  and  O_9 
REMARK    4  A    between atoms: C_8  and  C_10 
REMARK       I    between atoms: C_10  and  N_11 
REMARK    5  A    between atoms: N_11  and  C_12 
REMARK    6  A    between atoms: C_12  and  C_13 
ROOT
HETATM    1  N   UNL     1     -42.268  55.271 -52.898  1.00  0.00    -0.254 N 
HETATM    2  C   UNL     1     -41.937  56.510 -53.626  1.00  0.00     0.256 C 
HETATM    3  C   UNL     1     -42.222  57.734 -52.781  1.00  0.00     0.034 A 
HETATM    4  C   UNL     1     -43.288  57.660 -51.891  1.00  0.00     0.048 A 
HETATM    5  N   UNL     1     -43.945  56.441 -51.741  1.00  0.00    -0.308 N 
HETATM    6  C   UNL     1     -43.450  55.235 -52.164  1.00  0.00     0.330 C 
HETATM    7  O   UNL     1     -44.056  54.217 -51.834  1.00  0.00    -0.246 OA
HETATM    8  C   UNL     1     -41.535  58.950 -52.918  1.00  0.00     0.015 A 
HETATM    9  C   UNL     1     -41.910  60.059 -52.160  1.00  0.00     0.001 A 
HETATM   10  C   UNL     1     -42.985  59.970 -51.277  1.00  0.00     0.002 A 
HETATM   11  C   UNL     1     -43.685  58.770 -51.148  1.00  0.00     0.030 A 
HETATM   12  H   UNL     1     -44.735  56.373 -51.112  1.00  0.00     0.170 HD
ENDROOT
BRANCH   2  13
HETATM   13  O   UNL     1     -40.551  56.557 -53.980  1.00  0.00    -0.359 OA
HETATM   14  H   UNL     1     -40.406  57.437 -54.368  1.00  0.00     0.213 HD
ENDBRANCH   2  13
BRANCH   2  15
HETATM   15  C   UNL     1     -42.773  56.629 -54.985  1.00  0.00     0.279 C 
HETATM   16  N   UNL     1     -42.082  56.482 -56.177  1.00  0.00    -0.352 N 
HETATM   17  H   UNL     1     -41.100  56.724 -56.174  1.00  0.00     0.162 HD
HETATM   18  O   UNL     1     -43.994  56.809 -54.978  1.00  0.00    -0.268 OA
BRANCH  16  19
HETATM   19  C   UNL     1     -42.785  56.558 -57.438  1.00  0.00     0.161 C 
BRANCH  19  20
HETATM   20  C   UNL     1     -42.469  57.780 -58.273  1.00  0.00    -0.038 A 
HETATM   21  C   UNL     1     -41.865  58.876 -57.624  1.00  0.00     0.048 A 
HETATM   22  C   UNL     1     -41.606  60.017 -58.353  1.00  0.00     0.105 A 
HETATM   23  C   UNL     1     -41.916  60.110 -59.686  1.00  0.00     0.105 A 
HETATM   24  O   UNL     1     -41.044  61.158 -57.870  1.00  0.00    -0.323 OA
HETATM   25  O   UNL     1     -41.587  61.318 -60.215  1.00  0.00    -0.323 OA
HETATM   26  C   UNL     1     -42.506  59.065 -60.362  1.00  0.00     0.040 A 
HETATM   27  C   UNL     1     -41.055  61.986 -59.052  1.00  0.00     0.352 A 
HETATM   28  C   UNL     1     -42.792  57.896 -59.645  1.00  0.00     0.012 A 
ENDBRANCH  19  20
ENDBRANCH  16  19
ENDBRANCH   2  15
BRANCH   1  29
HETATM   29  C   UNL     1     -41.488  54.087 -53.075  1.00  0.00     0.043 A 
HETATM   30  C   UNL     1     -41.566  53.314 -54.237  1.00  0.00     0.030 A 
HETATM   31  C   UNL     1     -40.815  52.137 -54.365  1.00  0.00     0.009 A 
HETATM   32  C   UNL     1     -39.992  51.695 -53.324  1.00  0.00    -0.058 A 
HETATM   33  C   UNL     1     -39.941  52.447 -52.147  1.00  0.00     0.009 A 
HETATM   34  C   UNL     1     -40.681  53.624 -52.026  1.00  0.00     0.030 A 
BRANCH  32  35
HETATM   35  C   UNL     1     -39.199  50.419 -53.447  1.00  0.00     0.034 C 
HETATM   36  C   UNL     1     -39.612  49.595 -54.659  1.00  0.00     0.010 C 
ENDBRANCH  32  35
ENDBRANCH   1  29
TORSDOF 6
ENDMDL
MODEL 4
REMARK VINA RESULT:      -9.2      2.200      6.115
REMARK  6 active torsions:
REMARK  status: ('A' for Active; 'I' for Inactive)
REMARK    1  A    between atoms: C_2  and  C_3 
REMARK    2  A    between atoms: C_6  and  N_7 
REMARK    3  A    between atoms: C_8  and  O_9 
REMARK    4  A    between atoms: C_8  and  C_10 
REMARK       I    between atoms: C_10  and  N_11 
REMARK    5  A    between atoms: N_11  and  C_12 
REMARK    6  A    between atoms: C_12  and  C_13 
ROOT
HETATM    1  N   UNL     1     -43.056  58.227 -54.771  1.00  0.00    -0.254 N 
HETATM    2  C   UNL     1     -43.409  57.620 -53.475  1.00  0.00     0.256 C 
HETATM    3  C   UNL     1     -43.955  58.657 -52.516  1.00  0.00     0.034 A 
HETATM    4  C   UNL     1     -43.448  59.948 -52.616  1.00  0.00     0.048 A 
HETATM    5  N   UNL     1     -42.570  60.238 -53.657  1.00  0.00    -0.308 N 
HETATM    6  C   UNL     1     -42.394  59.452 -54.766  1.00  0.00     0.330 C 
HETATM    7  O   UNL     1     -41.705  59.897 -55.683  1.00  0.00    -0.246 OA
HETATM    8  C   UNL     1     -44.863  58.361 -51.488  1.00  0.00     0.015 A 
HETATM    9  C   UNL     1     -45.258  59.354 -50.591  1.00  0.00     0.001 A 
HETATM   10  C   UNL     1     -44.735  60.641 -50.700  1.00  0.00     0.002 A 
HETATM   11  C   UNL     1     -43.819  60.939 -51.710  1.00  0.00     0.030 A 
HETATM   12  H   UNL     1     -42.176  61.167 -53.734  1.00  0.00     0.170 HD
ENDROOT
BRANCH   2  13
HETATM   13  O   UNL     1     -44.414  56.612 -53.623  1.00  0.00    -0.359 OA
HETATM   14  H   UNL     1     -45.031  56.742 -52.883  1.00  0.00     0.213 HD
ENDBRANCH   2  13
BRANCH   2  15
HETATM   15  C   UNL     1     -42.140  56.921 -52.794  1.00  0.00     0.279 C 
HETATM   16  N   UNL     1     -42.319  55.658 -52.253  1.00  0.00    -0.352 N 
HETATM   17  H   UNL     1     -43.249  55.420 -51.936  1.00  0.00     0.162 HD
HETATM   18  O   UNL     1     -41.033  57.466 -52.780  1.00  0.00    -0.268 OA
BRANCH  16  19
HETATM   19  C   UNL     1     -41.207  54.966 -51.642  1.00  0.00     0.161 C 
BRANCH  19  20
HETATM   20  C   UNL     1     -40.777  53.699 -52.349  1.00  0.00    -0.038 A 
HETATM   21  C   UNL     1     -40.411  52.597 -51.549  1.00  0.00     0.048 A 
HETATM   22  C   UNL     1     -39.975  51.444 -52.168  1.00  0.00     0.105 A 
HETATM   23  C   UNL     1     -39.893  51.344 -53.535  1.00  0.00     0.105 A 
HETATM   24  O   UNL     1     -39.574  50.307 -51.539  1.00  0.00    -0.323 OA
HETATM   25  O   UNL     1     -39.435  50.131 -53.941  1.00  0.00    -0.323 OA
HETATM   26  C   UNL     1     -40.241  52.393 -54.355  1.00  0.00     0.040 A 
HETATM   27  C   UNL     1     -39.213  49.486 -52.669  1.00  0.00     0.352 A 
HETATM   28  C   UNL     1     -40.677  53.582 -53.755  1.00  0.00     0.012 A 
ENDBRANCH  19  20
ENDBRANCH  16  19
ENDBRANCH   2  15
BRANCH   1  29
HETATM   29  C   UNL     1     -43.234  57.505 -55.991  1.00  0.00     0.043 A 
HETATM   30  C   UNL     1     -42.453  56.392 -56.316  1.00  0.00     0.030 A 
HETATM   31  C   UNL     1     -42.628  55.727 -57.537  1.00  0.00     0.009 A 
HETATM   32  C   UNL     1     -43.567  56.178 -58.471  1.00  0.00    -0.058 A 
HETATM   33  C   UNL     1     -44.323  57.312 -58.164  1.00  0.00     0.009 A 
HETATM   34  C   UNL     1     -44.155  57.966 -56.943  1.00  0.00     0.030 A 
BRANCH  32  35
HETATM   35  C   UNL     1     -43.745  55.481 -59.795  1.00  0.00     0.034 C 
HETATM   36  C   UNL     1     -44.686  54.288 -59.700  1.00  0.00     0.010 C 
ENDBRANCH  32  35
ENDBRANCH   1  29
TORSDOF 6
ENDMDL
MODEL 5
REMARK VINA RESULT:      -9.2      3.124      8.388
REMARK  6 active torsions:
REMARK  status: ('A' for Active; 'I' for Inactive)
REMARK    1  A    between atoms: C_2  and  C_3 
REMARK    2  A    between atoms: C_6  and  N_7 
REMARK    3  A    between atoms: C_8  and  O_9 
REMARK    4  A    between atoms: C_8  and  C_10 
REMARK       I    between atoms: C_10  and  N_11 
REMARK    5  A    between atoms: N_11  and  C_12 
REMARK    6  A    between atoms: C_12  and  C_13 
ROOT
HETATM    1  N   UNL     1     -43.176  59.357 -59.018  1.00  0.00    -0.254 N 
HETATM    2  C   UNL     1     -42.794  58.000 -58.589  1.00  0.00     0.256 C 
HETATM    3  C   UNL     1     -43.704  56.956 -59.202  1.00  0.00     0.034 A 
HETATM    4  C   UNL     1     -45.027  57.317 -59.427  1.00  0.00     0.048 A 
HETATM    5  N   UNL     1     -45.406  58.636 -59.193  1.00  0.00    -0.308 N 
HETATM    6  C   UNL     1     -44.530  59.681 -59.051  1.00  0.00     0.330 C 
HETATM    7  O   UNL     1     -44.995  60.819 -59.003  1.00  0.00    -0.246 OA
HETATM    8  C   UNL     1     -43.306  55.636 -59.462  1.00  0.00     0.015 A 
HETATM    9  C   UNL     1     -44.225  54.707 -59.952  1.00  0.00     0.001 A 
HETATM   10  C   UNL     1     -45.550  55.083 -60.165  1.00  0.00     0.002 A 
HETATM   11  C   UNL     1     -45.958  56.390 -59.894  1.00  0.00     0.030 A 
HETATM   12  H   UNL     1     -46.369  58.913 -59.334  1.00  0.00     0.170 HD
ENDROOT
BRANCH   2  13
HETATM   13  O   UNL     1     -41.457  57.679 -58.987  1.00  0.00    -0.359 OA
HETATM   14  H   UNL     1     -41.170  58.409 -59.561  1.00  0.00     0.213 HD
ENDBRANCH   2  13
BRANCH   2  15
HETATM   15  C   UNL     1     -42.858  57.852 -56.996  1.00  0.00     0.279 C 
HETATM   16  N   UNL     1     -42.052  56.891 -56.410  1.00  0.00    -0.352 N 
HETATM   17  H   UNL     1     -41.804  56.089 -56.974  1.00  0.00     0.162 HD
HETATM   18  O   UNL     1     -43.570  58.589 -56.308  1.00  0.00    -0.268 OA
BRANCH  16  19
HETATM   19  C   UNL     1     -42.049  56.723 -54.974  1.00  0.00     0.161 C 
BRANCH  19  20
HETATM   20  C   UNL     1     -41.444  55.425 -54.483  1.00  0.00    -0.038 A 
HETATM   21  C   UNL     1     -41.401  55.210 -53.091  1.00  0.00     0.048 A 
HETATM   22  C   UNL     1     -40.817  54.055 -52.617  1.00  0.00     0.105 A 
HETATM   23  C   UNL     1     -40.283  53.114 -53.462  1.00  0.00     0.105 A 
HETATM   24  O   UNL     1     -40.685  53.710 -51.308  1.00  0.00    -0.323 OA
HETATM   25  O   UNL     1     -39.751  52.057 -52.795  1.00  0.00    -0.323 OA
HETATM   26  C   UNL     1     -40.303  53.281 -54.829  1.00  0.00     0.040 A 
HETATM   27  C   UNL     1     -39.989  52.452 -51.428  1.00  0.00     0.352 A 
HETATM   28  C   UNL     1     -40.881  54.451 -55.340  1.00  0.00     0.012 A 
ENDBRANCH  19  20
ENDBRANCH  16  19
ENDBRANCH   2  15
BRANCH   1  29
HETATM   29  C   UNL     1     -42.185  60.364 -59.232  1.00  0.00     0.043 A 
HETATM   30  C   UNL     1     -41.518  60.986 -58.172  1.00  0.00     0.030 A 
HETATM   31  C   UNL     1     -40.577  61.996 -58.414  1.00  0.00     0.009 A 
HETATM   32  C   UNL     1     -40.304  62.425 -59.717  1.00  0.00    -0.058 A 
HETATM   33  C   UNL     1     -40.996  61.830 -60.775  1.00  0.00     0.009 A 
HETATM   34  C   UNL     1     -41.925  60.817 -60.533  1.00  0.00     0.030 A 
BRANCH  32  35
HETATM   35  C   UNL     1     -39.309  63.526 -59.982  1.00  0.00     0.034 C 
HETATM   36  C   UNL     1     -38.990  63.673 -61.464  1.00  0.00     0.010 C 
ENDBRANCH  32  35
ENDBRANCH   1  29
TORSDOF 6
ENDMDL
MODEL 6
REMARK VINA RESULT:      -9.1      2.406      6.867
REMARK  6 active torsions:
REMARK  status: ('A' for Active; 'I' for Inactive)
REMARK    1  A    between atoms: C_2  and  C_3 
REMARK    2  A    between atoms: C_6  and  N_7 
REMARK    3  A    between atoms: C_8  and  O_9 
REMARK    4  A    between atoms: C_8  and  C_10 
REMARK       I    between atoms: C_10  and  N_11 
REMARK    5  A    between atoms: N_11  and  C_12 
REMARK    6  A    between atoms: C_12  and  C_13 
ROOT
HETATM    1  N   UNL     1     -43.019  57.708 -56.128  1.00  0.00    -0.254 N 
HETATM    2  C   UNL     1     -42.999  56.867 -54.918  1.00  0.00     0.256 C 
HETATM    3  C   UNL     1     -43.119  57.709 -53.665  1.00  0.00     0.034 A 
HETATM    4  C   UNL     1     -42.553  58.978 -53.693  1.00  0.00     0.048 A 
HETATM    5  N   UNL     1     -42.024  59.443 -54.895  1.00  0.00    -0.308 N 
HETATM    6  C   UNL     1     -42.279  58.888 -56.122  1.00  0.00     0.330 C 
HETATM    7  O   UNL     1     -41.877  59.485 -57.119  1.00  0.00    -0.246 OA
HETATM    8  C   UNL     1     -43.680  57.242 -52.466  1.00  0.00     0.015 A 
HETATM    9  C   UNL     1     -43.680  58.049 -51.328  1.00  0.00     0.001 A 
HETATM   10  C   UNL     1     -43.102  59.317 -51.372  1.00  0.00     0.002 A 
HETATM   11  C   UNL     1     -42.527  59.782 -52.555  1.00  0.00     0.030 A 
HETATM   12  H   UNL     1     -41.591  60.358 -54.930  1.00  0.00     0.170 HD
ENDROOT
BRANCH   2  13
HETATM   13  O   UNL     1     -44.089  55.938 -54.906  1.00  0.00    -0.359 OA
HETATM   14  H   UNL     1     -43.982  55.395 -55.704  1.00  0.00     0.213 HD
ENDBRANCH   2  13
BRANCH   2  15
HETATM   15  C   UNL     1     -41.651  56.010 -54.824  1.00  0.00     0.279 C 
HETATM   16  N   UNL     1     -41.712  54.677 -55.198  1.00  0.00    -0.352 N 
HETATM   17  H   UNL     1     -42.605  54.212 -55.103  1.00  0.00     0.162 HD
HETATM   18  O   UNL     1     -40.586  56.521 -54.467  1.00  0.00    -0.268 OA
BRANCH  16  19
HETATM   19  C   UNL     1     -40.523  53.856 -55.155  1.00  0.00     0.161 C 
BRANCH  19  20
HETATM   20  C   UNL     1     -40.333  53.072 -53.874  1.00  0.00    -0.038 A 
HETATM   21  C   UNL     1     -39.971  51.715 -53.987  1.00  0.00     0.048 A 
HETATM   22  C   UNL     1     -39.833  50.968 -52.836  1.00  0.00     0.105 A 
HETATM   23  C   UNL     1     -40.036  51.512 -51.593  1.00  0.00     0.105 A 
HETATM   24  O   UNL     1     -39.505  49.649 -52.779  1.00  0.00    -0.323 OA
HETATM   25  O   UNL     1     -39.858  50.607 -50.594  1.00  0.00    -0.323 OA
HETATM   26  C   UNL     1     -40.390  52.832 -51.433  1.00  0.00     0.040 A 
HETATM   27  C   UNL     1     -39.543  49.422 -51.355  1.00  0.00     0.352 A 
HETATM   28  C   UNL     1     -40.549  53.615 -52.586  1.00  0.00     0.012 A 
ENDBRANCH  19  20
ENDBRANCH  16  19
ENDBRANCH   2  15
BRANCH   1  29
HETATM   29  C   UNL     1     -43.638  57.247 -57.330  1.00  0.00     0.043 A 
HETATM   30  C   UNL     1     -44.898  57.696 -57.735  1.00  0.00     0.030 A 
HETATM   31  C   UNL     1     -45.495  57.197 -58.901  1.00  0.00     0.009 A 
HETATM   32  C   UNL     1     -44.856  56.219 -59.672  1.00  0.00    -0.058 A 
HETATM   33  C   UNL     1     -43.612  55.742 -59.249  1.00  0.00     0.009 A 
HETATM   34  C   UNL     1     -43.015  56.249 -58.093  1.00  0.00     0.030 A 
BRANCH  32  35
HETATM   35  C   UNL     1     -45.502  55.663 -60.915  1.00  0.00     0.034 C 
HETATM   36  C   UNL     1     -46.922  56.177 -61.109  1.00  0.00     0.010 C 
ENDBRANCH  32  35
ENDBRANCH   1  29
TORSDOF 6
ENDMDL
MODEL 7
REMARK VINA RESULT:      -9.0      1.891      2.700
REMARK  6 active torsions:
REMARK  status: ('A' for Active; 'I' for Inactive)
REMARK    1  A    between atoms: C_2  and  C_3 
REMARK    2  A    between atoms: C_6  and  N_7 
REMARK    3  A    between atoms: C_8  and  O_9 
REMARK    4  A    between atoms: C_8  and  C_10 
REMARK       I    between atoms: C_10  and  N_11 
REMARK    5  A    between atoms: N_11  and  C_12 
REMARK    6  A    between atoms: C_12  and  C_13 
ROOT
HETATM    1  N   UNL     1     -41.991  54.916 -53.051  1.00  0.00    -0.254 N 
HETATM    2  C   UNL     1     -41.703  56.059 -53.935  1.00  0.00     0.256 C 
HETATM    3  C   UNL     1     -41.826  57.372 -53.191  1.00  0.00     0.034 A 
HETATM    4  C   UNL     1     -42.773  57.442 -52.174  1.00  0.00     0.048 A 
HETATM    5  N   UNL     1     -43.457  56.281 -51.822  1.00  0.00    -0.308 N 
HETATM    6  C   UNL     1     -43.071  55.015 -52.178  1.00  0.00     0.330 C 
HETATM    7  O   UNL     1     -43.673  54.067 -51.675  1.00  0.00    -0.246 OA
HETATM    8  C   UNL     1     -41.111  58.530 -53.533  1.00  0.00     0.015 A 
HETATM    9  C   UNL     1     -41.339  59.726 -52.852  1.00  0.00     0.001 A 
HETATM   10  C   UNL     1     -42.297  59.780 -51.840  1.00  0.00     0.002 A 
HETATM   11  C   UNL     1     -43.024  58.638 -51.505  1.00  0.00     0.030 A 
HETATM   12  H   UNL     1     -44.163  56.317 -51.098  1.00  0.00     0.170 HD
ENDROOT
BRANCH   2  13
HETATM   13  O   UNL     1     -40.372  55.996 -54.459  1.00  0.00    -0.359 OA
HETATM   14  H   UNL     1     -39.797  56.361 -53.766  1.00  0.00     0.213 HD
ENDBRANCH   2  13
BRANCH   2  15
HETATM   15  C   UNL     1     -42.699  56.094 -55.188  1.00  0.00     0.279 C 
HETATM   16  N   UNL     1     -42.178  55.767 -56.429  1.00  0.00    -0.352 N 
HETATM   17  H   UNL     1     -41.191  55.933 -56.574  1.00  0.00     0.162 HD
HETATM   18  O   UNL     1     -43.895  56.365 -55.053  1.00  0.00    -0.268 OA
BRANCH  16  19
HETATM   19  C   UNL     1     -43.032  55.760 -57.596  1.00  0.00     0.161 C 
BRANCH  19  20
HETATM   20  C   UNL     1     -43.101  57.072 -58.346  1.00  0.00    -0.038 A 
HETATM   21  C   UNL     1     -44.286  57.359 -59.052  1.00  0.00     0.048 A 
HETATM   22  C   UNL     1     -44.358  58.529 -59.779  1.00  0.00     0.105 A 
HETATM   23  C   UNL     1     -43.311  59.416 -59.826  1.00  0.00     0.105 A 
HETATM   24  O   UNL     1     -45.420  58.939 -60.522  1.00  0.00    -0.323 OA
HETATM   25  O   UNL     1     -43.582  60.499 -60.601  1.00  0.00    -0.323 OA
HETATM   26  C   UNL     1     -42.135  59.178 -59.152  1.00  0.00     0.040 A 
HETATM   27  C   UNL     1     -44.913  60.179 -61.058  1.00  0.00     0.352 A 
HETATM   28  C   UNL     1     -42.028  57.992 -58.414  1.00  0.00     0.012 A 
ENDBRANCH  19  20
ENDBRANCH  16  19
ENDBRANCH   2  15
BRANCH   1  29
HETATM   29  C   UNL     1     -41.291  53.680 -53.200  1.00  0.00     0.043 A 
HETATM   30  C   UNL     1     -41.505  52.833 -54.292  1.00  0.00     0.030 A 
HETATM   31  C   UNL     1     -40.829  51.609 -54.392  1.00  0.00     0.009 A 
HETATM   32  C   UNL     1     -39.947  51.194 -53.388  1.00  0.00    -0.058 A 
HETATM   33  C   UNL     1     -39.760  52.021 -52.278  1.00  0.00     0.009 A 
HETATM   34  C   UNL     1     -40.425  53.245 -52.187  1.00  0.00     0.030 A 
BRANCH  32  35
HETATM   35  C   UNL     1     -39.234  49.869 -53.478  1.00  0.00     0.034 C 
HETATM   36  C   UNL     1     -39.383  49.044 -52.207  1.00  0.00     0.010 C 
ENDBRANCH  32  35
ENDBRANCH   1  29
TORSDOF 6
ENDMDL
MODEL 8
REMARK VINA RESULT:      -8.9      2.822      7.232
REMARK  6 active torsions:
REMARK  status: ('A' for Active; 'I' for Inactive)
REMARK    1  A    between atoms: C_2  and  C_3 
REMARK    2  A    between atoms: C_6  and  N_7 
REMARK    3  A    between atoms: C_8  and  O_9 
REMARK    4  A    between atoms: C_8  and  C_10 
REMARK       I    between atoms: C_10  and  N_11 
REMARK    5  A    between atoms: N_11  and  C_12 
REMARK    6  A    between atoms: C_12  and  C_13 
ROOT
HETATM    1  N   UNL     1     -43.004  57.437 -54.536  1.00  0.00    -0.254 N 
HETATM    2  C   UNL     1     -43.126  56.103 -53.921  1.00  0.00     0.256 C 
HETATM    3  C   UNL     1     -42.643  56.116 -52.486  1.00  0.00     0.034 A 
HETATM    4  C   UNL     1     -41.604  56.984 -52.171  1.00  0.00     0.048 A 
HETATM    5  N   UNL     1     -41.156  57.868 -53.150  1.00  0.00    -0.308 N 
HETATM    6  C   UNL     1     -41.844  58.169 -54.297  1.00  0.00     0.330 C 
HETATM    7  O   UNL     1     -41.413  59.079 -55.004  1.00  0.00    -0.246 OA
HETATM    8  C   UNL     1     -43.120  55.241 -51.498  1.00  0.00     0.015 A 
HETATM    9  C   UNL     1     -42.567  55.257 -50.217  1.00  0.00     0.001 A 
HETATM   10  C   UNL     1     -41.521  56.129 -49.920  1.00  0.00     0.002 A 
HETATM   11  C   UNL     1     -41.029  56.990 -50.902  1.00  0.00     0.030 A 
HETATM   12  H   UNL     1     -40.388  58.494 -52.945  1.00  0.00     0.170 HD
ENDROOT
BRANCH   2  13
HETATM   13  O   UNL     1     -44.486  55.655 -53.903  1.00  0.00    -0.359 OA
HETATM   14  H   UNL     1     -44.942  56.166 -54.593  1.00  0.00     0.213 HD
ENDBRANCH   2  13
BRANCH   2  15
HETATM   15  C   UNL     1     -42.282  55.009 -54.729  1.00  0.00     0.279 C 
HETATM   16  N   UNL     1     -40.994  54.744 -54.293  1.00  0.00    -0.352 N 
HETATM   17  H   UNL     1     -40.510  55.486 -53.806  1.00  0.00     0.162 HD
HETATM   18  O   UNL     1     -42.768  54.396 -55.683  1.00  0.00    -0.268 OA
BRANCH  16  19
HETATM   19  C   UNL     1     -40.189  53.751 -54.968  1.00  0.00     0.161 C 
BRANCH  19  20
HETATM   20  C   UNL     1     -40.038  52.440 -54.228  1.00  0.00    -0.038 A 
HETATM   21  C   UNL     1     -40.074  52.477 -52.820  1.00  0.00     0.048 A 
HETATM   22  C   UNL     1     -39.896  51.302 -52.121  1.00  0.00     0.105 A 
HETATM   23  C   UNL     1     -39.690  50.105 -52.760  1.00  0.00     0.105 A 
HETATM   24  O   UNL     1     -39.890  51.175 -50.767  1.00  0.00    -0.323 OA
HETATM   25  O   UNL     1     -39.531  49.072 -51.891  1.00  0.00    -0.323 OA
HETATM   26  C   UNL     1     -39.648  50.020 -54.133  1.00  0.00     0.040 A 
HETATM   27  C   UNL     1     -39.636  49.761 -50.628  1.00  0.00     0.352 A 
HETATM   28  C   UNL     1     -39.814  51.200 -54.871  1.00  0.00     0.012 A 
ENDBRANCH  19  20
ENDBRANCH  16  19
ENDBRANCH   2  15
BRANCH   1  29
HETATM   29  C   UNL     1     -43.969  57.898 -55.484  1.00  0.00     0.043 A 
HETATM   30  C   UNL     1     -43.968  57.466 -56.814  1.00  0.00     0.030 A 
HETATM   31  C   UNL     1     -44.904  57.965 -57.729  1.00  0.00     0.009 A 
HETATM   32  C   UNL     1     -45.844  58.926 -57.341  1.00  0.00    -0.058 A 
HETATM   33  C   UNL     1     -45.824  59.386 -56.022  1.00  0.00     0.009 A 
HETATM   34  C   UNL     1     -44.897  58.880 -55.109  1.00  0.00     0.030 A 
BRANCH  32  35
HETATM   35  C   UNL     1     -46.841  59.483 -58.325  1.00  0.00     0.034 C 
HETATM   36  C   UNL     1     -46.860  58.703 -59.633  1.00  0.00     0.010 C 
ENDBRANCH  32  35
ENDBRANCH   1  29
TORSDOF 6
ENDMDL
MODEL 9
REMARK VINA RESULT:      -8.5      1.554      1.991
REMARK  6 active torsions:
REMARK  status: ('A' for Active; 'I' for Inactive)
REMARK    1  A    between atoms: C_2  and  C_3 
REMARK    2  A    between atoms: C_6  and  N_7 
REMARK    3  A    between atoms: C_8  and  O_9 
REMARK    4  A    between atoms: C_8  and  C_10 
REMARK       I    between atoms: C_10  and  N_11 
REMARK    5  A    between atoms: N_11  and  C_12 
REMARK    6  A    between atoms: C_12  and  C_13 
ROOT
HETATM    1  N   UNL     1     -42.399  55.716 -52.519  1.00  0.00    -0.254 N 
HETATM    2  C   UNL     1     -42.223  56.987 -53.244  1.00  0.00     0.256 C 
HETATM    3  C   UNL     1     -42.161  58.159 -52.287  1.00  0.00     0.034 A 
HETATM    4  C   UNL     1     -42.912  58.070 -51.120  1.00  0.00     0.048 A 
HETATM    5  N   UNL     1     -43.572  56.875 -50.845  1.00  0.00    -0.308 N 
HETATM    6  C   UNL     1     -43.306  55.681 -51.463  1.00  0.00     0.330 C 
HETATM    7  O   UNL     1     -43.849  54.670 -51.021  1.00  0.00    -0.246 OA
HETATM    8  C   UNL     1     -41.469  59.350 -52.559  1.00  0.00     0.015 A 
HETATM    9  C   UNL     1     -41.527  60.418 -51.664  1.00  0.00     0.001 A 
HETATM   10  C   UNL     1     -42.290  60.315 -50.503  1.00  0.00     0.002 A 
HETATM   11  C   UNL     1     -42.995  59.141 -50.232  1.00  0.00     0.030 A 
HETATM   12  H   UNL     1     -44.139  56.798 -50.010  1.00  0.00     0.170 HD
ENDROOT
BRANCH   2  13
HETATM   13  O   UNL     1     -41.007  56.997 -54.000  1.00  0.00    -0.359 OA
HETATM   14  H   UNL     1     -40.876  57.919 -54.279  1.00  0.00     0.213 HD
ENDBRANCH   2  13
BRANCH   2  15
HETATM   15  C   UNL     1     -43.419  57.241 -54.276  1.00  0.00     0.279 C 
HETATM   16  N   UNL     1     -43.140  57.988 -55.409  1.00  0.00    -0.352 N 
HETATM   17  H   UNL     1     -42.388  58.661 -55.344  1.00  0.00     0.162 HD
HETATM   18  O   UNL     1     -44.541  56.761 -54.093  1.00  0.00    -0.268 OA
BRANCH  16  19
HETATM   19  C   UNL     1     -44.174  58.235 -56.389  1.00  0.00     0.161 C 
BRANCH  19  20
HETATM   20  C   UNL     1     -44.095  57.374 -57.631  1.00  0.00    -0.038 A 
HETATM   21  C   UNL     1     -45.224  57.338 -58.473  1.00  0.00     0.048 A 
HETATM   22  C   UNL     1     -45.194  56.528 -59.589  1.00  0.00     0.105 A 
HETATM   23  C   UNL     1     -44.096  55.765 -59.898  1.00  0.00     0.105 A 
HETATM   24  O   UNL     1     -46.203  56.373 -60.487  1.00  0.00    -0.323 OA
HETATM   25  O   UNL     1     -44.272  55.035 -61.031  1.00  0.00    -0.323 OA
HETATM   26  C   UNL     1     -42.970  55.768 -59.106  1.00  0.00     0.040 A 
HETATM   27  C   UNL     1     -45.620  55.409 -61.387  1.00  0.00     0.352 A 
HETATM   28  C   UNL     1     -42.976  56.573 -57.959  1.00  0.00     0.012 A 
ENDBRANCH  19  20
ENDBRANCH  16  19
ENDBRANCH   2  15
BRANCH   1  29
HETATM   29  C   UNL     1     -41.786  54.514 -52.989  1.00  0.00     0.043 A 
HETATM   30  C   UNL     1     -42.249  53.839 -54.122  1.00  0.00     0.030 A 
HETATM   31  C   UNL     1     -41.650  52.642 -54.537  1.00  0.00     0.009 A 
HETATM   32  C   UNL     1     -40.594  52.080 -53.811  1.00  0.00    -0.058 A 
HETATM   33  C   UNL     1     -40.154  52.734 -52.658  1.00  0.00     0.009 A 
HETATM   34  C   UNL     1     -40.745  53.932 -52.253  1.00  0.00     0.030 A 
BRANCH  32  35
HETATM   35  C   UNL     1     -39.960  50.781 -54.239  1.00  0.00     0.034 C 
HETATM   36  C   UNL     1     -39.730  49.836 -53.068  1.00  0.00     0.010 C 
ENDBRANCH  32  35
ENDBRANCH   1  29
TORSDOF 6
ENDMDL
MODEL 10
REMARK VINA RESULT:      -8.5      1.920      2.702
REMARK  6 active torsions:
REMARK  status: ('A' for Active; 'I' for Inactive)
REMARK    1  A    between atoms: C_2  and  C_3 
REMARK    2  A    between atoms: C_6  and  N_7 
REMARK    3  A    between atoms: C_8  and  O_9 
REMARK    4  A    between atoms: C_8  and  C_10 
REMARK       I    between atoms: C_10  and  N_11 
REMARK    5  A    between atoms: N_11  and  C_12 
REMARK    6  A    between atoms: C_12  and  C_13 
ROOT
HETATM    1  N   UNL     1     -42.948  56.588 -51.826  1.00  0.00    -0.254 N 
HETATM    2  C   UNL     1     -42.730  57.671 -52.800  1.00  0.00     0.256 C 
HETATM    3  C   UNL     1     -43.028  59.025 -52.190  1.00  0.00     0.034 A 
HETATM    4  C   UNL     1     -44.031  59.084 -51.229  1.00  0.00     0.048 A 
HETATM    5  N   UNL     1     -44.612  57.892 -50.801  1.00  0.00    -0.308 N 
HETATM    6  C   UNL     1     -44.080  56.648 -51.016  1.00  0.00     0.330 C 
HETATM    7  O   UNL     1     -44.609  55.690 -50.454  1.00  0.00    -0.246 OA
HETATM    8  C   UNL     1     -42.417  60.217 -52.607  1.00  0.00     0.015 A 
HETATM    9  C   UNL     1     -42.803  61.438 -52.053  1.00  0.00     0.001 A 
HETATM   10  C   UNL     1     -43.816  61.480 -51.097  1.00  0.00     0.002 A 
HETATM   11  C   UNL     1     -44.441  60.301 -50.688  1.00  0.00     0.030 A 
HETATM   12  H   UNL     1     -45.357  57.918 -50.116  1.00  0.00     0.170 HD
ENDROOT
BRANCH   2  13
HETATM   13  O   UNL     1     -41.373  57.705 -53.254  1.00  0.00    -0.359 OA
HETATM   14  H   UNL     1     -40.864  58.124 -52.540  1.00  0.00     0.213 HD
ENDBRANCH   2  13
BRANCH   2  15
HETATM   15  C   UNL     1     -43.654  57.487 -54.095  1.00  0.00     0.279 C 
HETATM   16  N   UNL     1     -43.041  57.062 -55.263  1.00  0.00    -0.352 N 
HETATM   17  H   UNL     1     -42.062  57.286 -55.378  1.00  0.00     0.162 HD
HETATM   18  O   UNL     1     -44.872  57.679 -54.050  1.00  0.00    -0.268 OA
BRANCH  16  19
HETATM   19  C   UNL     1     -43.825  56.857 -56.460  1.00  0.00     0.161 C 
BRANCH  19  20
HETATM   20  C   UNL     1     -43.197  57.382 -57.732  1.00  0.00    -0.038 A 
HETATM   21  C   UNL     1     -43.093  58.779 -57.881  1.00  0.00     0.048 A 
HETATM   22  C   UNL     1     -42.563  59.284 -59.050  1.00  0.00     0.105 A 
HETATM   23  C   UNL     1     -42.134  58.463 -60.063  1.00  0.00     0.105 A 
HETATM   24  O   UNL     1     -42.410  60.602 -59.350  1.00  0.00    -0.323 OA
HETATM   25  O   UNL     1     -41.654  59.158 -61.128  1.00  0.00    -0.323 OA
HETATM   26  C   UNL     1     -42.215  57.093 -59.962  1.00  0.00     0.040 A 
HETATM   27  C   UNL     1     -41.853  60.514 -60.678  1.00  0.00     0.352 A 
HETATM   28  C   UNL     1     -42.760  56.550 -58.790  1.00  0.00     0.012 A 
ENDBRANCH  19  20
ENDBRANCH  16  19
ENDBRANCH   2  15
BRANCH   1  29
HETATM   29  C   UNL     1     -42.118  55.425 -51.825  1.00  0.00     0.043 A 
HETATM   30  C   UNL     1     -41.116  55.229 -50.871  1.00  0.00     0.030 A 
HETATM   31  C   UNL     1     -40.293  54.095 -50.918  1.00  0.00     0.009 A 
HETATM   32  C   UNL     1     -40.438  53.147 -51.938  1.00  0.00    -0.058 A 
HETATM   33  C   UNL     1     -41.415  53.360 -52.914  1.00  0.00     0.009 A 
HETATM   34  C   UNL     1     -42.240  54.484 -52.858  1.00  0.00     0.030 A 
BRANCH  32  35
HETATM   35  C   UNL     1     -39.543  51.937 -52.008  1.00  0.00     0.034 C 
HETATM   36  C   UNL     1     -39.573  51.273 -53.378  1.00  0.00     0.010 C 
ENDBRANCH  32  35
ENDBRANCH   1  29
TORSDOF 6
ENDMDL
