MODEL 1
REMARK VINA RESULT:      -7.2      0.000      0.000
REMARK  6 active torsions:
REMARK  status: ('A' for Active; 'I' for Inactive)
REMARK    1  A    between atoms: C_3  and  N_4 
REMARK    2  A    between atoms: N_4  and  C_5 
REMARK    3  A    between atoms: C_5  and  C_6 
REMARK    4  A    between atoms: N_8  and  C_10 
REMARK    5  A    between atoms: C_10  and  C_11 
REMARK    6  A    between atoms: C_12  and  O_13 
ROOT
HETATM    1  C   UNL     1     -42.680  57.120 -55.676  1.00  0.00     0.031 C 
HETATM    2  C   UNL     1     -41.968  55.771 -55.693  1.00  0.00     0.241 C 
HETATM    3  N   UNL     1     -42.149  55.251 -54.290  1.00  0.00    -0.067 N 
HETATM    4  H   UNL     1     -42.377  54.239 -54.337  1.00  0.00     0.280 HD
HETATM    5  C   UNL     1     -43.327  55.970 -53.670  1.00  0.00     0.235 C 
HETATM    6  C   UNL     1     -43.895  56.813 -54.805  1.00  0.00     0.035 C 
ENDROOT
BRANCH   3   7
HETATM    7  C   UNL     1     -40.895  55.272 -53.449  1.00  0.00     0.276 C 
BRANCH   7   8
HETATM    8  C   UNL     1     -40.559  53.939 -52.841  1.00  0.00     0.002 A 
HETATM    9  C   UNL     1     -40.283  52.829 -53.650  1.00  0.00     0.091 A 
HETATM   10  C   UNL     1     -39.919  51.602 -53.090  1.00  0.00     0.044 A 
HETATM   11 BR   UNL     1     -39.542  50.111 -54.191  1.00  0.00    -0.048 Br
HETATM   12  C   UNL     1     -39.833  51.469 -51.706  1.00  0.00     0.022 A 
HETATM   13  C   UNL     1     -40.108  52.565 -50.887  1.00  0.00     0.002 A 
HETATM   14  C   UNL     1     -40.464  53.794 -51.449  1.00  0.00     0.012 A 
BRANCH   9  15
HETATM   15  O   UNL     1     -40.400  52.990 -55.011  1.00  0.00    -0.359 OA
HETATM   16  H   UNL     1     -39.758  53.693 -55.259  1.00  0.00     0.218 HD
ENDBRANCH   9  15
ENDBRANCH   7   8
ENDBRANCH   3   7
BRANCH   1  17
HETATM   17  C   UNL     1     -43.046  57.641 -57.067  1.00  0.00     0.127 C 
BRANCH  17  18
HETATM   18  N   UNL     1     -43.092  56.543 -58.024  1.00  0.00    -0.376 N 
HETATM   19  H   UNL     1     -42.753  55.662 -57.616  1.00  0.00     0.161 HD
BRANCH  18  20
HETATM   20  C   UNL     1     -44.143  56.272 -58.895  1.00  0.00     0.100 A 
HETATM   21  C   UNL     1     -43.933  55.369 -59.950  1.00  0.00     0.048 A 
HETATM   22  C   UNL     1     -44.941  55.120 -60.879  1.00  0.00     0.005 A 
HETATM   23  C   UNL     1     -46.155  55.778 -60.757  1.00  0.00     0.017 A 
HETATM   24  C   UNL     1     -46.331  56.667 -59.708  1.00  0.00     0.089 A 
HETATM   25  N   UNL     1     -45.335  56.888 -58.831  1.00  0.00    -0.353 N 
HETATM   26  H   UNL     1     -45.514  57.535 -58.071  1.00  0.00     0.166 HD
ENDBRANCH  18  20
ENDBRANCH  17  18
ENDBRANCH   1  17
TORSDOF 6
ENDMDL
MODEL 2
REMARK VINA RESULT:      -7.2      4.945      7.948
REMARK  6 active torsions:
REMARK  status: ('A' for Active; 'I' for Inactive)
REMARK    1  A    between atoms: C_3  and  N_4 
REMARK    2  A    between atoms: N_4  and  C_5 
REMARK    3  A    between atoms: C_5  and  C_6 
REMARK    4  A    between atoms: N_8  and  C_10 
REMARK    5  A    between atoms: C_10  and  C_11 
REMARK    6  A    between atoms: C_12  and  O_13 
ROOT
HETATM    1  C   UNL     1     -41.360  54.181 -50.013  1.00  0.00     0.031 C 
HETATM    2  C   UNL     1     -42.133  54.442 -51.302  1.00  0.00     0.241 C 
HETATM    3  N   UNL     1     -42.394  55.925 -51.271  1.00  0.00    -0.067 N 
HETATM    4  H   UNL     1     -42.236  56.312 -52.222  1.00  0.00     0.280 HD
HETATM    5  C   UNL     1     -41.393  56.560 -50.332  1.00  0.00     0.235 C 
HETATM    6  C   UNL     1     -40.467  55.416 -49.938  1.00  0.00     0.035 C 
ENDROOT
BRANCH   3   7
HETATM    7  C   UNL     1     -43.831  56.301 -50.994  1.00  0.00     0.276 C 
BRANCH   7   8
HETATM    8  C   UNL     1     -44.315  57.463 -51.815  1.00  0.00     0.002 A 
HETATM    9  C   UNL     1     -44.511  57.335 -53.196  1.00  0.00     0.091 A 
HETATM   10  C   UNL     1     -45.012  58.397 -53.954  1.00  0.00     0.044 A 
HETATM   11 BR   UNL     1     -45.278  58.212 -55.818  1.00  0.00    -0.048 Br
HETATM   12  C   UNL     1     -45.317  59.607 -53.337  1.00  0.00     0.022 A 
HETATM   13  C   UNL     1     -45.124  59.751 -51.962  1.00  0.00     0.002 A 
HETATM   14  C   UNL     1     -44.632  58.685 -51.203  1.00  0.00     0.012 A 
BRANCH   9  15
HETATM   15  O   UNL     1     -44.177  56.134 -53.777  1.00  0.00    -0.359 OA
HETATM   16  H   UNL     1     -43.229  55.982 -53.563  1.00  0.00     0.218 HD
ENDBRANCH   9  15
ENDBRANCH   7   8
ENDBRANCH   3   7
BRANCH   1  17
HETATM   17  C   UNL     1     -40.579  52.866 -50.019  1.00  0.00     0.127 C 
BRANCH  17  18
HETATM   18  N   UNL     1     -39.705  52.799 -51.184  1.00  0.00    -0.376 N 
HETATM   19  H   UNL     1     -38.728  53.013 -50.946  1.00  0.00     0.161 HD
BRANCH  18  20
HETATM   20  C   UNL     1     -39.735  51.811 -52.163  1.00  0.00     0.100 A 
HETATM   21  C   UNL     1     -40.093  52.164 -53.473  1.00  0.00     0.048 A 
HETATM   22  C   UNL     1     -40.194  51.193 -54.466  1.00  0.00     0.005 A 
HETATM   23  C   UNL     1     -39.943  49.867 -54.147  1.00  0.00     0.017 A 
HETATM   24  C   UNL     1     -39.595  49.548 -52.844  1.00  0.00     0.089 A 
HETATM   25  N   UNL     1     -39.511  50.511 -51.908  1.00  0.00    -0.353 N 
HETATM   26  H   UNL     1     -39.238  50.232 -50.973  1.00  0.00     0.166 HD
ENDBRANCH  18  20
ENDBRANCH  17  18
ENDBRANCH   1  17
TORSDOF 6
ENDMDL
MODEL 3
REMARK VINA RESULT:      -7.1      4.132      7.324
REMARK  6 active torsions:
REMARK  status: ('A' for Active; 'I' for Inactive)
REMARK    1  A    between atoms: C_3  and  N_4 
REMARK    2  A    between atoms: N_4  and  C_5 
REMARK    3  A    between atoms: C_5  and  C_6 
REMARK    4  A    between atoms: N_8  and  C_10 
REMARK    5  A    between atoms: C_10  and  C_11 
REMARK    6  A    between atoms: C_12  and  O_13 
ROOT
HETATM    1  C   UNL     1     -41.600  54.557 -50.815  1.00  0.00     0.031 C 
HETATM    2  C   UNL     1     -41.231  55.887 -50.166  1.00  0.00     0.241 C 
HETATM    3  N   UNL     1     -42.398  56.783 -50.494  1.00  0.00    -0.067 N 
HETATM    4  H   UNL     1     -42.634  57.343 -49.652  1.00  0.00     0.280 HD
HETATM    5  C   UNL     1     -43.585  55.906 -50.825  1.00  0.00     0.235 C 
HETATM    6  C   UNL     1     -43.100  54.490 -50.542  1.00  0.00     0.035 C 
ENDROOT
BRANCH   3   7
HETATM    7  C   UNL     1     -42.100  57.843 -51.527  1.00  0.00     0.276 C 
BRANCH   7   8
HETATM    8  C   UNL     1     -42.903  57.692 -52.789  1.00  0.00     0.002 A 
HETATM    9  C   UNL     1     -42.491  56.816 -53.802  1.00  0.00     0.091 A 
HETATM   10  C   UNL     1     -43.262  56.632 -54.953  1.00  0.00     0.044 A 
HETATM   11 BR   UNL     1     -42.700  55.443 -56.312  1.00  0.00    -0.048 Br
HETATM   12  C   UNL     1     -44.457  57.331 -55.107  1.00  0.00     0.022 A 
HETATM   13  C   UNL     1     -44.878  58.209 -54.108  1.00  0.00     0.002 A 
HETATM   14  C   UNL     1     -44.111  58.386 -52.953  1.00  0.00     0.012 A 
BRANCH   9  15
HETATM   15  O   UNL     1     -41.296  56.160 -53.627  1.00  0.00    -0.359 OA
HETATM   16  H   UNL     1     -40.829  56.209 -54.492  1.00  0.00     0.218 HD
ENDBRANCH   9  15
ENDBRANCH   7   8
ENDBRANCH   3   7
BRANCH   1  17
HETATM   17  C   UNL     1     -40.827  53.362 -50.253  1.00  0.00     0.127 C 
BRANCH  17  18
HETATM   18  N   UNL     1     -39.736  52.998 -51.147  1.00  0.00    -0.376 N 
HETATM   19  H   UNL     1     -38.829  52.979 -50.661  1.00  0.00     0.161 HD
BRANCH  18  20
HETATM   20  C   UNL     1     -39.771  51.979 -52.094  1.00  0.00     0.100 A 
HETATM   21  C   UNL     1     -40.173  52.284 -53.403  1.00  0.00     0.048 A 
HETATM   22  C   UNL     1     -40.281  51.280 -54.363  1.00  0.00     0.005 A 
HETATM   23  C   UNL     1     -39.992  49.970 -54.011  1.00  0.00     0.017 A 
HETATM   24  C   UNL     1     -39.602  49.699 -52.709  1.00  0.00     0.089 A 
HETATM   25  N   UNL     1     -39.512  50.692 -51.806  1.00  0.00    -0.353 N 
HETATM   26  H   UNL     1     -39.208  50.449 -50.870  1.00  0.00     0.166 HD
ENDBRANCH  18  20
ENDBRANCH  17  18
ENDBRANCH   1  17
TORSDOF 6
ENDMDL
MODEL 4
REMARK VINA RESULT:      -7.0      3.577      8.205
REMARK  6 active torsions:
REMARK  status: ('A' for Active; 'I' for Inactive)
REMARK    1  A    between atoms: C_3  and  N_4 
REMARK    2  A    between atoms: N_4  and  C_5 
REMARK    3  A    between atoms: C_5  and  C_6 
REMARK    4  A    between atoms: N_8  and  C_10 
REMARK    5  A    between atoms: C_10  and  C_11 
REMARK    6  A    between atoms: C_12  and  O_13 
ROOT
HETATM    1  C   UNL     1     -42.070  54.900 -54.231  1.00  0.00     0.031 C 
HETATM    2  C   UNL     1     -43.195  55.929 -54.176  1.00  0.00     0.241 C 
HETATM    3  N   UNL     1     -43.521  56.184 -55.624  1.00  0.00    -0.067 N 
HETATM    4  H   UNL     1     -44.553  56.232 -55.729  1.00  0.00     0.280 HD
HETATM    5  C   UNL     1     -43.020  55.008 -56.433  1.00  0.00     0.235 C 
HETATM    6  C   UNL     1     -42.524  54.016 -55.389  1.00  0.00     0.035 C 
ENDROOT
BRANCH   3   7
HETATM    7  C   UNL     1     -43.070  57.531 -56.139  1.00  0.00     0.276 C 
BRANCH   7   8
HETATM    8  C   UNL     1     -43.291  57.712 -57.615  1.00  0.00     0.002 A 
HETATM    9  C   UNL     1     -44.585  57.723 -58.152  1.00  0.00     0.091 A 
HETATM   10  C   UNL     1     -44.797  57.945 -59.515  1.00  0.00     0.044 A 
HETATM   11 BR   UNL     1     -46.549  57.965 -60.229  1.00  0.00    -0.048 Br
HETATM   12  C   UNL     1     -43.712  58.152 -60.362  1.00  0.00     0.022 A 
HETATM   13  C   UNL     1     -42.416  58.139 -59.842  1.00  0.00     0.002 A 
HETATM   14  C   UNL     1     -42.205  57.927 -58.477  1.00  0.00     0.012 A 
BRANCH   9  15
HETATM   15  O   UNL     1     -45.632  57.493 -57.291  1.00  0.00    -0.359 OA
HETATM   16  H   UNL     1     -45.314  57.756 -56.398  1.00  0.00     0.218 HD
ENDBRANCH   9  15
ENDBRANCH   7   8
ENDBRANCH   3   7
BRANCH   1  17
HETATM   17  C   UNL     1     -41.873  54.133 -52.923  1.00  0.00     0.127 C 
BRANCH  17  18
HETATM   18  N   UNL     1     -40.514  53.613 -52.839  1.00  0.00    -0.376 N 
HETATM   19  H   UNL     1     -39.966  54.083 -52.106  1.00  0.00     0.161 HD
BRANCH  18  20
HETATM   20  C   UNL     1     -40.156  52.269 -52.889  1.00  0.00     0.100 A 
HETATM   21  C   UNL     1     -40.268  51.583 -54.108  1.00  0.00     0.048 A 
HETATM   22  C   UNL     1     -39.979  50.223 -54.185  1.00  0.00     0.005 A 
HETATM   23  C   UNL     1     -39.585  49.547 -53.040  1.00  0.00     0.017 A 
HETATM   24  C   UNL     1     -39.488  50.250 -51.849  1.00  0.00     0.089 A 
HETATM   25  N   UNL     1     -39.779  51.563 -51.810  1.00  0.00    -0.353 N 
HETATM   26  H   UNL     1     -39.680  52.039 -50.920  1.00  0.00     0.166 HD
ENDBRANCH  18  20
ENDBRANCH  17  18
ENDBRANCH   1  17
TORSDOF 6
ENDMDL
MODEL 5
REMARK VINA RESULT:      -7.0      3.341      7.515
REMARK  6 active torsions:
REMARK  status: ('A' for Active; 'I' for Inactive)
REMARK    1  A    between atoms: C_3  and  N_4 
REMARK    2  A    between atoms: N_4  and  C_5 
REMARK    3  A    between atoms: C_5  and  C_6 
REMARK    4  A    between atoms: N_8  and  C_10 
REMARK    5  A    between atoms: C_10  and  C_11 
REMARK    6  A    between atoms: C_12  and  O_13 
ROOT
HETATM    1  C   UNL     1     -41.986  54.454 -51.298  1.00  0.00     0.031 C 
HETATM    2  C   UNL     1     -41.485  55.105 -52.584  1.00  0.00     0.241 C 
HETATM    3  N   UNL     1     -42.451  56.238 -52.813  1.00  0.00    -0.067 N 
HETATM    4  H   UNL     1     -41.916  57.075 -53.118  1.00  0.00     0.280 HD
HETATM    5  C   UNL     1     -43.119  56.561 -51.495  1.00  0.00     0.235 C 
HETATM    6  C   UNL     1     -42.406  55.674 -50.483  1.00  0.00     0.035 C 
ENDROOT
BRANCH   3   7
HETATM    7  C   UNL     1     -43.409  56.020 -53.960  1.00  0.00     0.276 C 
BRANCH   7   8
HETATM    8  C   UNL     1     -43.033  56.770 -55.206  1.00  0.00     0.002 A 
HETATM    9  C   UNL     1     -43.099  56.155 -56.463  1.00  0.00     0.091 A 
HETATM   10  C   UNL     1     -42.802  56.865 -57.629  1.00  0.00     0.044 A 
HETATM   11 BR   UNL     1     -42.900  56.027 -59.323  1.00  0.00    -0.048 Br
HETATM   12  C   UNL     1     -42.426  58.204 -57.550  1.00  0.00     0.022 A 
HETATM   13  C   UNL     1     -42.352  58.829 -56.305  1.00  0.00     0.002 A 
HETATM   14  C   UNL     1     -42.659  58.121 -55.140  1.00  0.00     0.012 A 
BRANCH   9  15
HETATM   15  O   UNL     1     -43.451  54.827 -56.503  1.00  0.00    -0.359 OA
HETATM   16  H   UNL     1     -43.068  54.467 -57.335  1.00  0.00     0.218 HD
ENDBRANCH   9  15
ENDBRANCH   7   8
ENDBRANCH   3   7
BRANCH   1  17
HETATM   17  C   UNL     1     -40.938  53.587 -50.598  1.00  0.00     0.127 C 
BRANCH  17  18
HETATM   18  N   UNL     1     -39.885  53.210 -51.533  1.00  0.00    -0.376 N 
HETATM   19  H   UNL     1     -38.958  53.520 -51.215  1.00  0.00     0.161 HD
BRANCH  18  20
HETATM   20  C   UNL     1     -39.765  51.974 -52.162  1.00  0.00     0.100 A 
HETATM   21  C   UNL     1     -39.915  51.906 -53.556  1.00  0.00     0.048 A 
HETATM   22  C   UNL     1     -39.864  50.679 -54.214  1.00  0.00     0.005 A 
HETATM   23  C   UNL     1     -39.669  49.521 -53.477  1.00  0.00     0.017 A 
HETATM   24  C   UNL     1     -39.529  49.620 -52.101  1.00  0.00     0.089 A 
HETATM   25  N   UNL     1     -39.588  50.820 -51.497  1.00  0.00    -0.353 N 
HETATM   26  H   UNL     1     -39.465  50.845 -50.491  1.00  0.00     0.166 HD
ENDBRANCH  18  20
ENDBRANCH  17  18
ENDBRANCH   1  17
TORSDOF 6
ENDMDL
MODEL 6
REMARK VINA RESULT:      -6.9      3.563      7.923
REMARK  6 active torsions:
REMARK  status: ('A' for Active; 'I' for Inactive)
REMARK    1  A    between atoms: C_3  and  N_4 
REMARK    2  A    between atoms: N_4  and  C_5 
REMARK    3  A    between atoms: C_5  and  C_6 
REMARK    4  A    between atoms: N_8  and  C_10 
REMARK    5  A    between atoms: C_10  and  C_11 
REMARK    6  A    between atoms: C_12  and  O_13 
ROOT
HETATM    1  C   UNL     1     -42.226  55.207 -53.029  1.00  0.00     0.031 C 
HETATM    2  C   UNL     1     -42.132  54.878 -54.515  1.00  0.00     0.241 C 
HETATM    3  N   UNL     1     -42.015  56.227 -55.175  1.00  0.00    -0.067 N 
HETATM    4  H   UNL     1     -41.302  56.169 -55.928  1.00  0.00     0.280 HD
HETATM    5  C   UNL     1     -41.529  57.217 -54.140  1.00  0.00     0.235 C 
HETATM    6  C   UNL     1     -41.240  56.365 -52.910  1.00  0.00     0.035 C 
ENDROOT
BRANCH   3   7
HETATM    7  C   UNL     1     -43.252  56.667 -55.922  1.00  0.00     0.276 C 
BRANCH   7   8
HETATM    8  C   UNL     1     -43.022  56.874 -57.393  1.00  0.00     0.002 A 
HETATM    9  C   UNL     1     -42.734  58.147 -57.903  1.00  0.00     0.091 A 
HETATM   10  C   UNL     1     -42.466  58.334 -59.262  1.00  0.00     0.044 A 
HETATM   11 BR   UNL     1     -42.072  60.056 -59.940  1.00  0.00    -0.048 Br
HETATM   12  C   UNL     1     -42.490  57.247 -60.131  1.00  0.00     0.022 A 
HETATM   13  C   UNL     1     -42.779  55.974 -59.638  1.00  0.00     0.002 A 
HETATM   14  C   UNL     1     -43.037  55.785 -58.278  1.00  0.00     0.012 A 
BRANCH   9  15
HETATM   15  O   UNL     1     -42.741  59.201 -57.021  1.00  0.00    -0.359 OA
HETATM   16  H   UNL     1     -43.679  59.487 -56.945  1.00  0.00     0.218 HD
ENDBRANCH   9  15
ENDBRANCH   7   8
ENDBRANCH   3   7
BRANCH   1  17
HETATM   17  C   UNL     1     -41.889  54.026 -52.115  1.00  0.00     0.127 C 
BRANCH  17  18
HETATM   18  N   UNL     1     -40.528  53.565 -52.362  1.00  0.00    -0.376 N 
HETATM   19  H   UNL     1     -39.858  53.969 -51.696  1.00  0.00     0.161 HD
BRANCH  18  20
HETATM   20  C   UNL     1     -40.157  52.256 -52.652  1.00  0.00     0.100 A 
HETATM   21  C   UNL     1     -40.283  51.791 -53.970  1.00  0.00     0.048 A 
HETATM   22  C   UNL     1     -39.980  50.469 -54.287  1.00  0.00     0.005 A 
HETATM   23  C   UNL     1     -39.559  49.609 -53.283  1.00  0.00     0.017 A 
HETATM   24  C   UNL     1     -39.449  50.096 -51.990  1.00  0.00     0.089 A 
HETATM   25  N   UNL     1     -39.754  51.378 -51.718  1.00  0.00    -0.353 N 
HETATM   26  H   UNL     1     -39.643  51.693 -50.761  1.00  0.00     0.166 HD
ENDBRANCH  18  20
ENDBRANCH  17  18
ENDBRANCH   1  17
TORSDOF 6
ENDMDL
MODEL 7
REMARK VINA RESULT:      -6.8      1.946      2.830
REMARK  6 active torsions:
REMARK  status: ('A' for Active; 'I' for Inactive)
REMARK    1  A    between atoms: C_3  and  N_4 
REMARK    2  A    between atoms: N_4  and  C_5 
REMARK    3  A    between atoms: C_5  and  C_6 
REMARK    4  A    between atoms: N_8  and  C_10 
REMARK    5  A    between atoms: C_10  and  C_11 
REMARK    6  A    between atoms: C_12  and  O_13 
ROOT
HETATM    1  C   UNL     1     -43.589  56.787 -52.981  1.00  0.00     0.031 C 
HETATM    2  C   UNL     1     -43.154  55.330 -53.098  1.00  0.00     0.241 C 
HETATM    3  N   UNL     1     -42.456  55.057 -51.791  1.00  0.00    -0.067 N 
HETATM    4  H   UNL     1     -42.741  54.119 -51.450  1.00  0.00     0.280 HD
HETATM    5  C   UNL     1     -42.922  56.085 -50.785  1.00  0.00     0.235 C 
HETATM    6  C   UNL     1     -44.009  56.864 -51.516  1.00  0.00     0.035 C 
ENDROOT
BRANCH   3   7
HETATM    7  C   UNL     1     -40.954  54.930 -51.899  1.00  0.00     0.276 C 
BRANCH   7   8
HETATM    8  C   UNL     1     -40.504  53.609 -52.458  1.00  0.00     0.002 A 
HETATM    9  C   UNL     1     -40.222  52.530 -51.611  1.00  0.00     0.091 A 
HETATM   10  C   UNL     1     -39.855  51.285 -52.129  1.00  0.00     0.044 A 
HETATM   11 BR   UNL     1     -39.482  49.831 -50.977  1.00  0.00    -0.048 Br
HETATM   12  C   UNL     1     -39.759  51.107 -53.507  1.00  0.00     0.022 A 
HETATM   13  C   UNL     1     -40.033  52.174 -54.363  1.00  0.00     0.002 A 
HETATM   14  C   UNL     1     -40.410  53.416 -53.844  1.00  0.00     0.012 A 
BRANCH   9  15
HETATM   15  O   UNL     1     -40.304  52.746 -50.256  1.00  0.00    -0.359 OA
HETATM   16  H   UNL     1     -39.400  53.002 -49.965  1.00  0.00     0.218 HD
ENDBRANCH   9  15
ENDBRANCH   7   8
ENDBRANCH   3   7
BRANCH   1  17
HETATM   17  C   UNL     1     -44.704  57.176 -53.954  1.00  0.00     0.127 C 
BRANCH  17  18
HETATM   18  N   UNL     1     -44.146  57.834 -55.129  1.00  0.00    -0.376 N 
HETATM   19  H   UNL     1     -43.256  58.306 -54.921  1.00  0.00     0.161 HD
BRANCH  18  20
HETATM   20  C   UNL     1     -44.091  57.293 -56.410  1.00  0.00     0.100 A 
HETATM   21  C   UNL     1     -43.120  56.321 -56.694  1.00  0.00     0.048 A 
HETATM   22  C   UNL     1     -42.993  55.802 -57.980  1.00  0.00     0.005 A 
HETATM   23  C   UNL     1     -43.833  56.260 -58.984  1.00  0.00     0.017 A 
HETATM   24  C   UNL     1     -44.780  57.224 -58.673  1.00  0.00     0.089 A 
HETATM   25  N   UNL     1     -44.872  57.707 -57.422  1.00  0.00    -0.353 N 
HETATM   26  H   UNL     1     -45.590  58.399 -57.238  1.00  0.00     0.166 HD
ENDBRANCH  18  20
ENDBRANCH  17  18
ENDBRANCH   1  17
TORSDOF 6
ENDMDL
MODEL 8
REMARK VINA RESULT:      -6.8     14.644     17.175
REMARK  6 active torsions:
REMARK  status: ('A' for Active; 'I' for Inactive)
REMARK    1  A    between atoms: C_3  and  N_4 
REMARK    2  A    between atoms: N_4  and  C_5 
REMARK    3  A    between atoms: C_5  and  C_6 
REMARK    4  A    between atoms: N_8  and  C_10 
REMARK    5  A    between atoms: C_10  and  C_11 
REMARK    6  A    between atoms: C_12  and  O_13 
ROOT
HETATM    1  C   UNL     1     -35.764  40.900 -51.846  1.00  0.00     0.031 C 
HETATM    2  C   UNL     1     -35.011  39.752 -52.511  1.00  0.00     0.241 C 
HETATM    3  N   UNL     1     -34.121  39.224 -51.417  1.00  0.00    -0.067 N 
HETATM    4  H   UNL     1     -34.133  38.186 -51.449  1.00  0.00     0.280 HD
HETATM    5  C   UNL     1     -34.698  39.661 -50.089  1.00  0.00     0.235 C 
HETATM    6  C   UNL     1     -36.016  40.333 -50.452  1.00  0.00     0.035 C 
ENDROOT
BRANCH   3   7
HETATM    7  C   UNL     1     -32.655  39.545 -51.594  1.00  0.00     0.276 C 
BRANCH   7   8
HETATM    8  C   UNL     1     -32.014  38.808 -52.736  1.00  0.00     0.002 A 
HETATM    9  C   UNL     1     -31.715  39.464 -53.937  1.00  0.00     0.091 A 
HETATM   10  C   UNL     1     -31.070  38.795 -54.981  1.00  0.00     0.044 A 
HETATM   11 BR   UNL     1     -30.665  39.691 -56.597  1.00  0.00    -0.048 Br
HETATM   12  C   UNL     1     -30.723  37.454 -54.838  1.00  0.00     0.022 A 
HETATM   13  C   UNL     1     -31.018  36.787 -53.648  1.00  0.00     0.002 A 
HETATM   14  C   UNL     1     -31.654  37.458 -52.601  1.00  0.00     0.012 A 
BRANCH   9  15
HETATM   15  O   UNL     1     -32.092  40.780 -54.053  1.00  0.00    -0.359 OA
HETATM   16  H   UNL     1     -31.259  41.297 -54.134  1.00  0.00     0.218 HD
ENDBRANCH   9  15
ENDBRANCH   7   8
ENDBRANCH   3   7
BRANCH   1  17
HETATM   17  C   UNL     1     -37.045  41.303 -52.579  1.00  0.00     0.127 C 
BRANCH  17  18
HETATM   18  N   UNL     1     -36.767  42.359 -53.544  1.00  0.00    -0.376 N 
HETATM   19  H   UNL     1     -36.085  43.039 -53.186  1.00  0.00     0.161 HD
BRANCH  18  20
HETATM   20  C   UNL     1     -36.560  42.175 -54.908  1.00  0.00     0.100 A 
HETATM   21  C   UNL     1     -35.249  42.223 -55.407  1.00  0.00     0.048 A 
HETATM   22  C   UNL     1     -35.007  42.106 -56.774  1.00  0.00     0.005 A 
HETATM   23  C   UNL     1     -36.077  41.948 -57.642  1.00  0.00     0.017 A 
HETATM   24  C   UNL     1     -37.360  41.909 -57.120  1.00  0.00     0.089 A 
HETATM   25  N   UNL     1     -37.559  42.029 -55.795  1.00  0.00    -0.353 N 
HETATM   26  H   UNL     1     -38.513  41.979 -55.458  1.00  0.00     0.166 HD
ENDBRANCH  18  20
ENDBRANCH  17  18
ENDBRANCH   1  17
TORSDOF 6
ENDMDL
MODEL 9
REMARK VINA RESULT:      -6.8      3.159      5.774
REMARK  6 active torsions:
REMARK  status: ('A' for Active; 'I' for Inactive)
REMARK    1  A    between atoms: C_3  and  N_4 
REMARK    2  A    between atoms: N_4  and  C_5 
REMARK    3  A    between atoms: C_5  and  C_6 
REMARK    4  A    between atoms: N_8  and  C_10 
REMARK    5  A    between atoms: C_10  and  C_11 
REMARK    6  A    between atoms: C_12  and  O_13 
ROOT
HETATM    1  C   UNL     1     -42.481  57.260 -55.323  1.00  0.00     0.031 C 
HETATM    2  C   UNL     1     -41.441  56.231 -54.890  1.00  0.00     0.241 C 
HETATM    3  N   UNL     1     -41.890  54.961 -55.563  1.00  0.00    -0.067 N 
HETATM    4  H   UNL     1     -41.056  54.473 -55.944  1.00  0.00     0.280 HD
HETATM    5  C   UNL     1     -42.788  55.334 -56.722  1.00  0.00     0.235 C 
HETATM    6  C   UNL     1     -42.724  56.855 -56.774  1.00  0.00     0.035 C 
ENDROOT
BRANCH   3   7
HETATM    7  C   UNL     1     -42.480  53.932 -54.627  1.00  0.00     0.276 C 
BRANCH   7   8
HETATM    8  C   UNL     1     -41.461  53.283 -53.733  1.00  0.00     0.002 A 
HETATM    9  C   UNL     1     -41.393  53.602 -52.370  1.00  0.00     0.091 A 
HETATM   10  C   UNL     1     -40.483  52.961 -51.525  1.00  0.00     0.044 A 
HETATM   11 BR   UNL     1     -40.404  53.394 -49.685  1.00  0.00    -0.048 Br
HETATM   12  C   UNL     1     -39.621  51.995 -52.037  1.00  0.00     0.022 A 
HETATM   13  C   UNL     1     -39.674  51.670 -53.393  1.00  0.00     0.002 A 
HETATM   14  C   UNL     1     -40.591  52.304 -54.236  1.00  0.00     0.012 A 
BRANCH   9  15
HETATM   15  O   UNL     1     -42.243  54.576 -51.903  1.00  0.00    -0.359 OA
HETATM   16  H   UNL     1     -41.767  55.430 -52.016  1.00  0.00     0.218 HD
ENDBRANCH   9  15
ENDBRANCH   7   8
ENDBRANCH   3   7
BRANCH   1  17
HETATM   17  C   UNL     1     -42.015  58.709 -55.167  1.00  0.00     0.127 C 
BRANCH  17  18
HETATM   18  N   UNL     1     -42.567  59.291 -53.951  1.00  0.00    -0.376 N 
HETATM   19  H   UNL     1     -43.515  58.946 -53.753  1.00  0.00     0.161 HD
BRANCH  18  20
HETATM   20  C   UNL     1     -41.882  59.463 -52.752  1.00  0.00     0.100 A 
HETATM   21  C   UNL     1     -40.565  58.988 -52.650  1.00  0.00     0.048 A 
HETATM   22  C   UNL     1     -39.869  59.085 -51.447  1.00  0.00     0.005 A 
HETATM   23  C   UNL     1     -40.492  59.652 -50.345  1.00  0.00     0.017 A 
HETATM   24  C   UNL     1     -41.794  60.108 -50.476  1.00  0.00     0.089 A 
HETATM   25  N   UNL     1     -42.439  59.995 -51.651  1.00  0.00    -0.353 N 
HETATM   26  H   UNL     1     -43.385  60.356 -51.703  1.00  0.00     0.166 HD
ENDBRANCH  18  20
ENDBRANCH  17  18
ENDBRANCH   1  17
TORSDOF 6
ENDMDL
MODEL 10
REMARK VINA RESULT:      -6.8      4.307      7.502
REMARK  6 active torsions:
REMARK  status: ('A' for Active; 'I' for Inactive)
REMARK    1  A    between atoms: C_3  and  N_4 
REMARK    2  A    between atoms: N_4  and  C_5 
REMARK    3  A    between atoms: C_5  and  C_6 
REMARK    4  A    between atoms: N_8  and  C_10 
REMARK    5  A    between atoms: C_10  and  C_11 
REMARK    6  A    between atoms: C_12  and  O_13 
ROOT
HETATM    1  C   UNL     1     -41.642  55.332 -55.057  1.00  0.00     0.031 C 
HETATM    2  C   UNL     1     -41.934  56.190 -53.830  1.00  0.00     0.241 C 
HETATM    3  N   UNL     1     -42.378  57.508 -54.409  1.00  0.00    -0.067 N 
HETATM    4  H   UNL     1     -43.191  57.854 -53.863  1.00  0.00     0.280 HD
HETATM    5  C   UNL     1     -42.834  57.267 -55.831  1.00  0.00     0.235 C 
HETATM    6  C   UNL     1     -42.767  55.754 -55.998  1.00  0.00     0.035 C 
ENDROOT
BRANCH   3   7
HETATM    7  C   UNL     1     -41.374  58.626 -54.258  1.00  0.00     0.276 C 
BRANCH   7   8
HETATM    8  C   UNL     1     -41.236  59.120 -52.846  1.00  0.00     0.002 A 
HETATM    9  C   UNL     1     -42.297  59.773 -52.205  1.00  0.00     0.091 A 
HETATM   10  C   UNL     1     -42.191  60.186 -50.874  1.00  0.00     0.044 A 
HETATM   11 BR   UNL     1     -43.633  61.060 -50.016  1.00  0.00    -0.048 Br
HETATM   12  C   UNL     1     -41.013  59.957 -50.168  1.00  0.00     0.022 A 
HETATM   13  C   UNL     1     -39.945  59.311 -50.794  1.00  0.00     0.002 A 
HETATM   14  C   UNL     1     -40.056  58.890 -52.122  1.00  0.00     0.012 A 
BRANCH   9  15
HETATM   15  O   UNL     1     -43.437  60.003 -52.939  1.00  0.00    -0.359 OA
HETATM   16  H   UNL     1     -43.160  59.995 -53.883  1.00  0.00     0.218 HD
ENDBRANCH   9  15
ENDBRANCH   7   8
ENDBRANCH   3   7
BRANCH   1  17
HETATM   17  C   UNL     1     -41.623  53.830 -54.768  1.00  0.00     0.127 C 
BRANCH  17  18
HETATM   18  N   UNL     1     -40.623  53.521 -53.755  1.00  0.00    -0.376 N 
HETATM   19  H   UNL     1     -40.734  54.101 -52.913  1.00  0.00     0.161 HD
BRANCH  18  20
HETATM   20  C   UNL     1     -40.216  52.243 -53.381  1.00  0.00     0.100 A 
HETATM   21  C   UNL     1     -40.307  51.202 -54.318  1.00  0.00     0.048 A 
HETATM   22  C   UNL     1     -39.968  49.899 -53.963  1.00  0.00     0.005 A 
HETATM   23  C   UNL     1     -39.545  49.635 -52.669  1.00  0.00     0.017 A 
HETATM   24  C   UNL     1     -39.470  50.683 -51.765  1.00  0.00     0.089 A 
HETATM   25  N   UNL     1     -39.809  51.929 -52.140  1.00  0.00    -0.353 N 
HETATM   26  H   UNL     1     -39.723  52.666 -51.449  1.00  0.00     0.166 HD
ENDBRANCH  18  20
ENDBRANCH  17  18
ENDBRANCH   1  17
TORSDOF 6
ENDMDL
