MODEL 1
REMARK VINA RESULT:      -8.5      0.000      0.000
REMARK  4 active torsions:
REMARK  status: ('A' for Active; 'I' for Inactive)
REMARK    1  A    between atoms: C_8  and  N_9 
REMARK       I    between atoms: N_9  and  C_10 
REMARK       I    between atoms: C_10  and  N_11 
REMARK    2  A    between atoms: N_11  and  C_12 
REMARK    3  A    between atoms: C_14  and  C_15 
REMARK       I    between atoms: C_15  and  N_16 
REMARK    4  A    between atoms: N_16  and  C_17 
ROOT
HETATM    1  C   UNL     1     -42.924  55.213 -53.475  1.00  0.00     0.037 A 
HETATM    2  C   UNL     1     -42.028  54.151 -53.345  1.00  0.00     0.048 A 
HETATM    3  C   UNL     1     -41.428  53.859 -52.105  1.00  0.00     0.055 A 
HETATM    4  C   UNL     1     -41.759  54.611 -50.976  1.00  0.00     0.049 A 
HETATM    5 CL   UNL     1     -41.030  54.372 -49.431  1.00  0.00    -0.083 Cl
HETATM    6  C   UNL     1     -42.685  55.651 -51.095  1.00  0.00     0.027 A 
HETATM    7  C   UNL     1     -43.262  55.950 -52.335  1.00  0.00     0.031 A 
ENDROOT
BRANCH   1   8
HETATM    8  N   UNL     1     -43.509  55.602 -54.700  1.00  0.00    -0.309 N 
HETATM    9  C   UNL     1     -42.910  55.582 -55.955  1.00  0.00     0.325 C 
HETATM   10  N   UNL     1     -43.776  56.064 -56.919  1.00  0.00    -0.305 N 
HETATM   11  O   UNL     1     -41.763  55.212 -56.161  1.00  0.00    -0.247 OA
HETATM   12  H   UNL     1     -44.721  56.263 -56.638  1.00  0.00     0.171 HD
HETATM   13  H   UNL     1     -44.408  56.055 -54.638  1.00  0.00     0.170 HD
BRANCH  10  14
HETATM   14  C   UNL     1     -43.506  56.269 -58.266  1.00  0.00     0.086 A 
HETATM   15  C   UNL     1     -42.796  57.377 -58.696  1.00  0.00     0.052 A 
HETATM   16  C   UNL     1     -42.178  58.517 -57.980  1.00  0.00     0.072 C 
HETATM   17  N   UNL     1     -42.706  57.262 -60.053  1.00  0.00    -0.280 N 
HETATM   18  H   UNL     1     -42.252  57.888 -60.708  1.00  0.00     0.189 HD
HETATM   19  N   UNL     1     -43.297  56.171 -60.542  1.00  0.00    -0.177 NA
HETATM   20  C   UNL     1     -43.795  55.547 -59.463  1.00  0.00     0.079 A 
HETATM   21  C   UNL     1     -44.524  54.271 -59.684  1.00  0.00     0.075 C 
ENDBRANCH  10  14
ENDBRANCH   1   8
BRANCH   3  22
HETATM   22  C   UNL     1     -40.464  52.734 -52.050  1.00  0.00     0.253 C 
HETATM   23  N   UNL     1     -40.156  52.177 -53.279  1.00  0.00    -0.352 N 
HETATM   24  H   UNL     1     -40.557  52.573 -54.122  1.00  0.00     0.163 HD
HETATM   25  O   UNL     1     -40.019  52.345 -50.978  1.00  0.00    -0.268 OA
BRANCH  23  26
HETATM   26  C   UNL     1     -39.312  51.034 -53.409  1.00  0.00     0.084 A 
HETATM   27  C   UNL     1     -39.809  49.673 -53.004  1.00  0.00     0.027 A 
HETATM   28  C   UNL     1     -39.599  49.991 -54.456  1.00  0.00     0.027 A 
ENDBRANCH  23  26
ENDBRANCH   3  22
TORSDOF 4
ENDMDL
MODEL 2
REMARK VINA RESULT:      -8.2      2.518      7.651
REMARK  4 active torsions:
REMARK  status: ('A' for Active; 'I' for Inactive)
REMARK    1  A    between atoms: C_8  and  N_9 
REMARK       I    between atoms: N_9  and  C_10 
REMARK       I    between atoms: C_10  and  N_11 
REMARK    2  A    between atoms: N_11  and  C_12 
REMARK    3  A    between atoms: C_14  and  C_15 
REMARK       I    between atoms: C_15  and  N_16 
REMARK    4  A    between atoms: N_16  and  C_17 
ROOT
HETATM    1  C   UNL     1     -42.065  55.402 -53.892  1.00  0.00     0.037 A 
HETATM    2  C   UNL     1     -42.103  55.611 -55.271  1.00  0.00     0.048 A 
HETATM    3  C   UNL     1     -43.049  56.480 -55.845  1.00  0.00     0.055 A 
HETATM    4  C   UNL     1     -43.941  57.178 -55.028  1.00  0.00     0.049 A 
HETATM    5 CL   UNL     1     -45.178  58.213 -55.641  1.00  0.00    -0.083 Cl
HETATM    6  C   UNL     1     -43.881  57.000 -53.643  1.00  0.00     0.027 A 
HETATM    7  C   UNL     1     -42.950  56.119 -53.079  1.00  0.00     0.031 A 
ENDROOT
BRANCH   1   8
HETATM    8  N   UNL     1     -41.188  54.496 -53.258  1.00  0.00    -0.309 N 
HETATM    9  C   UNL     1     -41.136  53.117 -53.440  1.00  0.00     0.325 C 
HETATM   10  N   UNL     1     -40.171  52.552 -52.628  1.00  0.00    -0.305 N 
HETATM   11  O   UNL     1     -41.869  52.499 -54.198  1.00  0.00    -0.247 OA
HETATM   12  H   UNL     1     -39.577  53.175 -52.107  1.00  0.00     0.171 HD
HETATM   13  H   UNL     1     -40.627  54.871 -52.508  1.00  0.00     0.170 HD
BRANCH  10  14
HETATM   14  C   UNL     1     -39.886  51.201 -52.475  1.00  0.00     0.086 A 
HETATM   15  C   UNL     1     -39.910  50.598 -51.229  1.00  0.00     0.052 A 
HETATM   16  C   UNL     1     -40.211  51.106 -49.870  1.00  0.00     0.072 C 
HETATM   17  N   UNL     1     -39.597  49.287 -51.440  1.00  0.00    -0.280 N 
HETATM   18  H   UNL     1     -39.524  48.541 -50.757  1.00  0.00     0.189 HD
HETATM   19  N   UNL     1     -39.372  48.985 -52.720  1.00  0.00    -0.177 NA
HETATM   20  C   UNL     1     -39.544  50.145 -53.373  1.00  0.00     0.079 A 
HETATM   21  C   UNL     1     -39.362  50.136 -54.847  1.00  0.00     0.075 C 
ENDBRANCH  10  14
ENDBRANCH   1   8
BRANCH   3  22
HETATM   22  C   UNL     1     -43.048  56.629 -57.321  1.00  0.00     0.253 C 
HETATM   23  N   UNL     1     -43.840  55.715 -57.993  1.00  0.00    -0.352 N 
HETATM   24  H   UNL     1     -44.388  55.045 -57.467  1.00  0.00     0.163 HD
HETATM   25  O   UNL     1     -42.366  57.490 -57.860  1.00  0.00    -0.268 OA
BRANCH  23  26
HETATM   26  C   UNL     1     -43.894  55.656 -59.418  1.00  0.00     0.084 A 
HETATM   27  C   UNL     1     -44.652  54.553 -60.104  1.00  0.00     0.027 A 
HETATM   28  C   UNL     1     -45.178  55.958 -60.144  1.00  0.00     0.027 A 
ENDBRANCH  23  26
ENDBRANCH   3  22
TORSDOF 4
ENDMDL
MODEL 3
REMARK VINA RESULT:      -8.1      2.343      4.167
REMARK  4 active torsions:
REMARK  status: ('A' for Active; 'I' for Inactive)
REMARK    1  A    between atoms: C_8  and  N_9 
REMARK       I    between atoms: N_9  and  C_10 
REMARK       I    between atoms: C_10  and  N_11 
REMARK    2  A    between atoms: N_11  and  C_12 
REMARK    3  A    between atoms: C_14  and  C_15 
REMARK       I    between atoms: C_15  and  N_16 
REMARK    4  A    between atoms: N_16  and  C_17 
ROOT
HETATM    1  C   UNL     1     -41.107  54.788 -54.690  1.00  0.00     0.037 A 
HETATM    2  C   UNL     1     -41.310  55.643 -53.606  1.00  0.00     0.048 A 
HETATM    3  C   UNL     1     -41.151  55.186 -52.284  1.00  0.00     0.055 A 
HETATM    4  C   UNL     1     -40.746  53.870 -52.046  1.00  0.00     0.049 A 
HETATM    5 CL   UNL     1     -40.587  53.199 -50.464  1.00  0.00    -0.083 Cl
HETATM    6  C   UNL     1     -40.504  53.023 -53.130  1.00  0.00     0.027 A 
HETATM    7  C   UNL     1     -40.684  53.478 -54.442  1.00  0.00     0.031 A 
ENDROOT
BRANCH   1   8
HETATM    8  N   UNL     1     -41.314  55.162 -56.035  1.00  0.00    -0.309 N 
HETATM    9  C   UNL     1     -42.493  55.640 -56.598  1.00  0.00     0.325 C 
HETATM   10  N   UNL     1     -42.331  55.874 -57.951  1.00  0.00    -0.305 N 
HETATM   11  O   UNL     1     -43.532  55.800 -55.976  1.00  0.00    -0.247 OA
HETATM   12  H   UNL     1     -41.405  55.779 -58.332  1.00  0.00     0.171 HD
HETATM   13  H   UNL     1     -40.566  54.945 -56.676  1.00  0.00     0.170 HD
BRANCH  10  14
HETATM   14  C   UNL     1     -43.303  56.274 -58.858  1.00  0.00     0.086 A 
HETATM   15  C   UNL     1     -43.439  57.601 -59.228  1.00  0.00     0.052 A 
HETATM   16  C   UNL     1     -42.707  58.832 -58.849  1.00  0.00     0.072 C 
HETATM   17  N   UNL     1     -44.466  57.637 -60.126  1.00  0.00    -0.280 N 
HETATM   18  H   UNL     1     -44.846  58.441 -60.613  1.00  0.00     0.189 HD
HETATM   19  N   UNL     1     -45.009  56.444 -60.374  1.00  0.00    -0.177 NA
HETATM   20  C   UNL     1     -44.310  55.593 -59.607  1.00  0.00     0.079 A 
HETATM   21  C   UNL     1     -44.682  54.155 -59.664  1.00  0.00     0.075 C 
ENDBRANCH  10  14
ENDBRANCH   1   8
BRANCH   3  22
HETATM   22  C   UNL     1     -41.413  56.144 -51.183  1.00  0.00     0.253 C 
HETATM   23  N   UNL     1     -40.886  57.407 -51.380  1.00  0.00    -0.352 N 
HETATM   24  H   UNL     1     -40.402  57.618 -52.245  1.00  0.00     0.163 HD
HETATM   25  O   UNL     1     -42.031  55.794 -50.186  1.00  0.00    -0.268 OA
BRANCH  23  26
HETATM   26  C   UNL     1     -40.968  58.431 -50.390  1.00  0.00     0.084 A 
HETATM   27  C   UNL     1     -39.948  59.537 -50.355  1.00  0.00     0.027 A 
HETATM   28  C   UNL     1     -41.358  59.833 -50.775  1.00  0.00     0.027 A 
ENDBRANCH  23  26
ENDBRANCH   3  22
TORSDOF 4
ENDMDL
MODEL 4
REMARK VINA RESULT:      -7.8      3.575      8.090
REMARK  4 active torsions:
REMARK  status: ('A' for Active; 'I' for Inactive)
REMARK    1  A    between atoms: C_8  and  N_9 
REMARK       I    between atoms: N_9  and  C_10 
REMARK       I    between atoms: C_10  and  N_11 
REMARK    2  A    between atoms: N_11  and  C_12 
REMARK    3  A    between atoms: C_14  and  C_15 
REMARK       I    between atoms: C_15  and  N_16 
REMARK    4  A    between atoms: N_16  and  C_17 
ROOT
HETATM    1  C   UNL     1     -41.427  55.621 -54.771  1.00  0.00     0.037 A 
HETATM    2  C   UNL     1     -41.374  56.820 -54.059  1.00  0.00     0.048 A 
HETATM    3  C   UNL     1     -42.132  57.935 -54.462  1.00  0.00     0.055 A 
HETATM    4  C   UNL     1     -42.984  57.837 -55.565  1.00  0.00     0.049 A 
HETATM    5 CL   UNL     1     -43.903  59.164 -56.174  1.00  0.00    -0.083 Cl
HETATM    6  C   UNL     1     -43.069  56.626 -56.257  1.00  0.00     0.027 A 
HETATM    7  C   UNL     1     -42.296  55.526 -55.864  1.00  0.00     0.031 A 
ENDROOT
BRANCH   1   8
HETATM    8  N   UNL     1     -40.643  54.488 -54.463  1.00  0.00    -0.309 N 
HETATM    9  C   UNL     1     -40.957  53.475 -53.561  1.00  0.00     0.325 C 
HETATM   10  N   UNL     1     -39.937  52.544 -53.497  1.00  0.00    -0.305 N 
HETATM   11  O   UNL     1     -41.985  53.440 -52.902  1.00  0.00    -0.247 OA
HETATM   12  H   UNL     1     -39.177  52.641 -54.148  1.00  0.00     0.171 HD
HETATM   13  H   UNL     1     -39.710  54.477 -54.844  1.00  0.00     0.170 HD
BRANCH  10  14
HETATM   14  C   UNL     1     -39.855  51.443 -52.654  1.00  0.00     0.086 A 
HETATM   15  C   UNL     1     -39.632  50.171 -53.152  1.00  0.00     0.052 A 
HETATM   16  C   UNL     1     -39.428  49.648 -54.523  1.00  0.00     0.072 C 
HETATM   17  N   UNL     1     -39.599  49.344 -52.068  1.00  0.00    -0.280 N 
HETATM   18  H   UNL     1     -39.452  48.340 -52.047  1.00  0.00     0.189 HD
HETATM   19  N   UNL     1     -39.780  49.971 -50.904  1.00  0.00    -0.177 NA
HETATM   20  C   UNL     1     -39.938  51.260 -51.240  1.00  0.00     0.079 A 
HETATM   21  C   UNL     1     -40.162  52.233 -50.140  1.00  0.00     0.075 C 
ENDBRANCH  10  14
ENDBRANCH   1   8
BRANCH   3  22
HETATM   22  C   UNL     1     -42.002  59.184 -53.674  1.00  0.00     0.253 C 
HETATM   23  N   UNL     1     -42.920  59.317 -52.648  1.00  0.00    -0.352 N 
HETATM   24  H   UNL     1     -43.583  58.571 -52.469  1.00  0.00     0.163 HD
HETATM   25  O   UNL     1     -41.149  60.015 -53.958  1.00  0.00    -0.268 OA
BRANCH  23  26
HETATM   26  C   UNL     1     -42.997  60.490 -51.840  1.00  0.00     0.084 A 
HETATM   27  C   UNL     1     -43.918  60.536 -50.652  1.00  0.00     0.027 A 
HETATM   28  C   UNL     1     -42.432  60.493 -50.445  1.00  0.00     0.027 A 
ENDBRANCH  23  26
ENDBRANCH   3  22
TORSDOF 4
ENDMDL
MODEL 5
REMARK VINA RESULT:      -7.7      2.309      3.808
REMARK  4 active torsions:
REMARK  status: ('A' for Active; 'I' for Inactive)
REMARK    1  A    between atoms: C_8  and  N_9 
REMARK       I    between atoms: N_9  and  C_10 
REMARK       I    between atoms: C_10  and  N_11 
REMARK    2  A    between atoms: N_11  and  C_12 
REMARK    3  A    between atoms: C_14  and  C_15 
REMARK       I    between atoms: C_15  and  N_16 
REMARK    4  A    between atoms: N_16  and  C_17 
ROOT
HETATM    1  C   UNL     1     -40.874  54.287 -54.755  1.00  0.00     0.037 A 
HETATM    2  C   UNL     1     -41.216  54.564 -53.431  1.00  0.00     0.048 A 
HETATM    3  C   UNL     1     -40.900  53.662 -52.398  1.00  0.00     0.055 A 
HETATM    4  C   UNL     1     -40.199  52.489 -52.687  1.00  0.00     0.049 A 
HETATM    5 CL   UNL     1     -39.823  51.292 -51.502  1.00  0.00    -0.083 Cl
HETATM    6  C   UNL     1     -39.821  52.227 -54.007  1.00  0.00     0.027 A 
HETATM    7  C   UNL     1     -40.156  53.119 -55.033  1.00  0.00     0.031 A 
ENDROOT
BRANCH   1   8
HETATM    8  N   UNL     1     -41.219  55.115 -55.845  1.00  0.00    -0.309 N 
HETATM    9  C   UNL     1     -42.473  55.645 -56.128  1.00  0.00     0.325 C 
HETATM   10  N   UNL     1     -42.442  56.384 -57.296  1.00  0.00    -0.305 N 
HETATM   11  O   UNL     1     -43.467  55.454 -55.443  1.00  0.00    -0.247 OA
HETATM   12  H   UNL     1     -41.545  56.534 -57.727  1.00  0.00     0.171 HD
HETATM   13  H   UNL     1     -40.512  55.231 -56.555  1.00  0.00     0.170 HD
BRANCH  10  14
HETATM   14  C   UNL     1     -43.513  56.993 -57.936  1.00  0.00     0.086 A 
HETATM   15  C   UNL     1     -44.142  56.394 -59.014  1.00  0.00     0.052 A 
HETATM   16  C   UNL     1     -43.925  55.109 -59.719  1.00  0.00     0.072 C 
HETATM   17  N   UNL     1     -45.141  57.246 -59.387  1.00  0.00    -0.280 N 
HETATM   18  H   UNL     1     -45.812  57.136 -60.138  1.00  0.00     0.189 HD
HETATM   19  N   UNL     1     -45.216  58.349 -58.641  1.00  0.00    -0.177 NA
HETATM   20  C   UNL     1     -44.227  58.215 -57.744  1.00  0.00     0.079 A 
HETATM   21  C   UNL     1     -44.050  59.305 -56.749  1.00  0.00     0.075 C 
ENDBRANCH  10  14
ENDBRANCH   1   8
BRANCH   3  22
HETATM   22  C   UNL     1     -41.322  54.010 -51.020  1.00  0.00     0.253 C 
HETATM   23  N   UNL     1     -40.281  54.212 -50.131  1.00  0.00    -0.352 N 
HETATM   24  H   UNL     1     -39.324  54.153 -50.460  1.00  0.00     0.163 HD
HETATM   25  O   UNL     1     -42.509  54.080 -50.729  1.00  0.00    -0.268 OA
BRANCH  23  26
HETATM   26  C   UNL     1     -40.500  54.473 -48.746  1.00  0.00     0.084 A 
HETATM   27  C   UNL     1     -40.833  53.348 -47.805  1.00  0.00     0.027 A 
HETATM   28  C   UNL     1     -39.496  54.023 -47.719  1.00  0.00     0.027 A 
ENDBRANCH  23  26
ENDBRANCH   3  22
TORSDOF 4
ENDMDL
MODEL 6
REMARK VINA RESULT:      -7.6      2.337      4.739
REMARK  4 active torsions:
REMARK  status: ('A' for Active; 'I' for Inactive)
REMARK    1  A    between atoms: C_8  and  N_9 
REMARK       I    between atoms: N_9  and  C_10 
REMARK       I    between atoms: C_10  and  N_11 
REMARK    2  A    between atoms: N_11  and  C_12 
REMARK    3  A    between atoms: C_14  and  C_15 
REMARK       I    between atoms: C_15  and  N_16 
REMARK    4  A    between atoms: N_16  and  C_17 
ROOT
HETATM    1  C   UNL     1     -41.480  55.066 -54.731  1.00  0.00     0.037 A 
HETATM    2  C   UNL     1     -41.450  56.077 -53.769  1.00  0.00     0.048 A 
HETATM    3  C   UNL     1     -41.417  55.769 -52.396  1.00  0.00     0.055 A 
HETATM    4  C   UNL     1     -41.372  54.436 -51.982  1.00  0.00     0.049 A 
HETATM    5 CL   UNL     1     -41.394  53.957 -50.325  1.00  0.00    -0.083 Cl
HETATM    6  C   UNL     1     -41.363  53.421 -52.943  1.00  0.00     0.027 A 
HETATM    7  C   UNL     1     -41.417  53.734 -54.307  1.00  0.00     0.031 A 
ENDROOT
BRANCH   1   8
HETATM    8  N   UNL     1     -41.582  55.304 -56.119  1.00  0.00    -0.309 N 
HETATM    9  C   UNL     1     -42.539  56.080 -56.766  1.00  0.00     0.325 C 
HETATM   10  N   UNL     1     -42.343  56.059 -58.134  1.00  0.00    -0.305 N 
HETATM   11  O   UNL     1     -43.441  56.672 -56.192  1.00  0.00    -0.247 OA
HETATM   12  H   UNL     1     -41.517  55.599 -58.479  1.00  0.00     0.171 HD
HETATM   13  H   UNL     1     -40.973  54.757 -56.708  1.00  0.00     0.170 HD
BRANCH  10  14
HETATM   14  C   UNL     1     -43.141  56.644 -59.107  1.00  0.00     0.086 A 
HETATM   15  C   UNL     1     -44.069  55.902 -59.819  1.00  0.00     0.052 A 
HETATM   16  C   UNL     1     -44.461  54.475 -59.778  1.00  0.00     0.072 C 
HETATM   17  N   UNL     1     -44.675  56.778 -60.672  1.00  0.00    -0.280 N 
HETATM   18  H   UNL     1     -45.411  56.592 -61.345  1.00  0.00     0.189 HD
HETATM   19  N   UNL     1     -44.223  58.029 -60.573  1.00  0.00    -0.177 NA
HETATM   20  C   UNL     1     -43.281  57.971 -59.619  1.00  0.00     0.079 A 
HETATM   21  C   UNL     1     -42.578  59.232 -59.270  1.00  0.00     0.075 C 
ENDBRANCH  10  14
ENDBRANCH   1   8
BRANCH   3  22
HETATM   22  C   UNL     1     -41.417  56.896 -51.433  1.00  0.00     0.253 C 
HETATM   23  N   UNL     1     -42.269  57.936 -51.762  1.00  0.00    -0.352 N 
HETATM   24  H   UNL     1     -42.853  57.863 -52.586  1.00  0.00     0.163 HD
HETATM   25  O   UNL     1     -40.687  56.877 -50.451  1.00  0.00    -0.268 OA
BRANCH  23  26
HETATM   26  C   UNL     1     -42.337  59.137 -50.995  1.00  0.00     0.084 A 
HETATM   27  C   UNL     1     -42.394  60.474 -51.682  1.00  0.00     0.027 A 
HETATM   28  C   UNL     1     -43.604  59.950 -50.964  1.00  0.00     0.027 A 
ENDBRANCH  23  26
ENDBRANCH   3  22
TORSDOF 4
ENDMDL
MODEL 7
REMARK VINA RESULT:      -7.5      2.800      5.055
REMARK  4 active torsions:
REMARK  status: ('A' for Active; 'I' for Inactive)
REMARK    1  A    between atoms: C_8  and  N_9 
REMARK       I    between atoms: N_9  and  C_10 
REMARK       I    between atoms: C_10  and  N_11 
REMARK    2  A    between atoms: N_11  and  C_12 
REMARK    3  A    between atoms: C_14  and  C_15 
REMARK       I    between atoms: C_15  and  N_16 
REMARK    4  A    between atoms: N_16  and  C_17 
ROOT
HETATM    1  C   UNL     1     -43.095  56.151 -53.573  1.00  0.00     0.037 A 
HETATM    2  C   UNL     1     -42.669  57.266 -52.851  1.00  0.00     0.048 A 
HETATM    3  C   UNL     1     -42.127  57.128 -51.560  1.00  0.00     0.055 A 
HETATM    4  C   UNL     1     -41.970  55.857 -51.002  1.00  0.00     0.049 A 
HETATM    5 CL   UNL     1     -41.377  55.590 -49.404  1.00  0.00    -0.083 Cl
HETATM    6  C   UNL     1     -42.360  54.735 -51.738  1.00  0.00     0.027 A 
HETATM    7  C   UNL     1     -42.918  54.881 -53.014  1.00  0.00     0.031 A 
ENDROOT
BRANCH   1   8
HETATM    8  N   UNL     1     -43.709  56.224 -54.842  1.00  0.00    -0.309 N 
HETATM    9  C   UNL     1     -43.074  56.202 -56.080  1.00  0.00     0.325 C 
HETATM   10  N   UNL     1     -43.993  56.323 -57.105  1.00  0.00    -0.305 N 
HETATM   11  O   UNL     1     -41.864  56.114 -56.227  1.00  0.00    -0.247 OA
HETATM   12  H   UNL     1     -44.969  56.308 -56.859  1.00  0.00     0.171 HD
HETATM   13  H   UNL     1     -44.695  56.436 -54.847  1.00  0.00     0.170 HD
BRANCH  10  14
HETATM   14  C   UNL     1     -43.730  56.423 -58.465  1.00  0.00     0.086 A 
HETATM   15  C   UNL     1     -43.104  57.537 -58.997  1.00  0.00     0.052 A 
HETATM   16  C   UNL     1     -42.581  58.784 -58.390  1.00  0.00     0.072 C 
HETATM   17  N   UNL     1     -42.995  57.303 -60.337  1.00  0.00    -0.280 N 
HETATM   18  H   UNL     1     -42.585  57.899 -61.047  1.00  0.00     0.189 HD
HETATM   19  N   UNL     1     -43.497  56.129 -60.722  1.00  0.00    -0.177 NA
HETATM   20  C   UNL     1     -43.953  55.571 -59.590  1.00  0.00     0.079 A 
HETATM   21  C   UNL     1     -44.581  54.228 -59.690  1.00  0.00     0.075 C 
ENDBRANCH  10  14
ENDBRANCH   1   8
BRANCH   3  22
HETATM   22  C   UNL     1     -41.724  58.361 -50.841  1.00  0.00     0.253 C 
HETATM   23  N   UNL     1     -42.745  59.274 -50.646  1.00  0.00    -0.352 N 
HETATM   24  H   UNL     1     -43.684  59.050 -50.955  1.00  0.00     0.163 HD
HETATM   25  O   UNL     1     -40.564  58.527 -50.488  1.00  0.00    -0.268 OA
BRANCH  23  26
HETATM   26  C   UNL     1     -42.523  60.551 -50.049  1.00  0.00     0.084 A 
HETATM   27  C   UNL     1     -42.830  61.810 -50.811  1.00  0.00     0.027 A 
HETATM   28  C   UNL     1     -43.687  61.415 -49.644  1.00  0.00     0.027 A 
ENDBRANCH  23  26
ENDBRANCH   3  22
TORSDOF 4
ENDMDL
MODEL 8
REMARK VINA RESULT:      -7.4      3.418      7.912
REMARK  4 active torsions:
REMARK  status: ('A' for Active; 'I' for Inactive)
REMARK    1  A    between atoms: C_8  and  N_9 
REMARK       I    between atoms: N_9  and  C_10 
REMARK       I    between atoms: C_10  and  N_11 
REMARK    2  A    between atoms: N_11  and  C_12 
REMARK    3  A    between atoms: C_14  and  C_15 
REMARK       I    between atoms: C_15  and  N_16 
REMARK    4  A    between atoms: N_16  and  C_17 
ROOT
HETATM    1  C   UNL     1     -41.962  55.911 -55.238  1.00  0.00     0.037 A 
HETATM    2  C   UNL     1     -42.305  56.973 -54.401  1.00  0.00     0.048 A 
HETATM    3  C   UNL     1     -43.203  57.970 -54.826  1.00  0.00     0.055 A 
HETATM    4  C   UNL     1     -43.796  57.882 -56.088  1.00  0.00     0.049 A 
HETATM    5 CL   UNL     1     -44.857  59.084 -56.724  1.00  0.00    -0.083 Cl
HETATM    6  C   UNL     1     -43.484  56.799 -56.915  1.00  0.00     0.027 A 
HETATM    7  C   UNL     1     -42.574  55.822 -56.493  1.00  0.00     0.031 A 
ENDROOT
BRANCH   1   8
HETATM    8  N   UNL     1     -41.019  54.917 -54.901  1.00  0.00    -0.309 N 
HETATM    9  C   UNL     1     -41.230  53.804 -54.093  1.00  0.00     0.325 C 
HETATM   10  N   UNL     1     -40.069  53.066 -53.961  1.00  0.00    -0.305 N 
HETATM   11  O   UNL     1     -42.296  53.541 -53.556  1.00  0.00    -0.247 OA
HETATM   12  H   UNL     1     -39.277  53.342 -54.517  1.00  0.00     0.171 HD
HETATM   13  H   UNL     1     -40.065  55.098 -55.174  1.00  0.00     0.170 HD
BRANCH  10  14
HETATM   14  C   UNL     1     -39.872  51.941 -53.171  1.00  0.00     0.086 A 
HETATM   15  C   UNL     1     -39.752  52.041 -51.795  1.00  0.00     0.052 A 
HETATM   16  C   UNL     1     -39.799  53.189 -50.861  1.00  0.00     0.072 C 
HETATM   17  N   UNL     1     -39.580  50.765 -51.341  1.00  0.00    -0.280 N 
HETATM   18  H   UNL     1     -39.461  50.450 -50.384  1.00  0.00     0.189 HD
HETATM   19  N   UNL     1     -39.579  49.844 -52.305  1.00  0.00    -0.177 NA
HETATM   20  C   UNL     1     -39.757  50.543 -53.437  1.00  0.00     0.079 A 
HETATM   21  C   UNL     1     -39.805  49.783 -54.712  1.00  0.00     0.075 C 
ENDBRANCH  10  14
ENDBRANCH   1   8
BRANCH   3  22
HETATM   22  C   UNL     1     -43.496  59.083 -53.892  1.00  0.00     0.253 C 
HETATM   23  N   UNL     1     -44.365  58.761 -52.865  1.00  0.00    -0.352 N 
HETATM   24  H   UNL     1     -44.713  57.812 -52.782  1.00  0.00     0.163 HD
HETATM   25  O   UNL     1     -43.006  60.191 -54.067  1.00  0.00    -0.268 OA
BRANCH  23  26
HETATM   26  C   UNL     1     -44.825  59.728 -51.922  1.00  0.00     0.084 A 
HETATM   27  C   UNL     1     -46.219  60.283 -52.022  1.00  0.00     0.027 A 
HETATM   28  C   UNL     1     -45.861  59.358 -50.895  1.00  0.00     0.027 A 
ENDBRANCH  23  26
ENDBRANCH   3  22
TORSDOF 4
ENDMDL
MODEL 9
REMARK VINA RESULT:      -7.4      5.918      8.462
REMARK  4 active torsions:
REMARK  status: ('A' for Active; 'I' for Inactive)
REMARK    1  A    between atoms: C_8  and  N_9 
REMARK       I    between atoms: N_9  and  C_10 
REMARK       I    between atoms: C_10  and  N_11 
REMARK    2  A    between atoms: N_11  and  C_12 
REMARK    3  A    between atoms: C_14  and  C_15 
REMARK       I    between atoms: C_15  and  N_16 
REMARK    4  A    between atoms: N_16  and  C_17 
ROOT
HETATM    1  C   UNL     1     -43.922  58.376 -51.562  1.00  0.00     0.037 A 
HETATM    2  C   UNL     1     -43.532  57.099 -51.157  1.00  0.00     0.048 A 
HETATM    3  C   UNL     1     -43.460  56.038 -52.079  1.00  0.00     0.055 A 
HETATM    4  C   UNL     1     -43.741  56.266 -53.428  1.00  0.00     0.049 A 
HETATM    5 CL   UNL     1     -43.743  55.020 -54.621  1.00  0.00    -0.083 Cl
HETATM    6  C   UNL     1     -44.095  57.553 -53.844  1.00  0.00     0.027 A 
HETATM    7  C   UNL     1     -44.185  58.599 -52.918  1.00  0.00     0.031 A 
ENDROOT
BRANCH   1   8
HETATM    8  N   UNL     1     -44.081  59.466 -50.679  1.00  0.00    -0.309 N 
HETATM    9  C   UNL     1     -45.160  59.708 -49.836  1.00  0.00     0.325 C 
HETATM   10  N   UNL     1     -44.983  60.889 -49.139  1.00  0.00    -0.305 N 
HETATM   11  O   UNL     1     -46.140  58.981 -49.752  1.00  0.00    -0.247 OA
HETATM   12  H   UNL     1     -44.098  61.358 -49.236  1.00  0.00     0.171 HD
HETATM   13  H   UNL     1     -43.399  60.205 -50.760  1.00  0.00     0.170 HD
BRANCH  10  14
HETATM   14  C   UNL     1     -45.880  61.497 -48.271  1.00  0.00     0.086 A 
HETATM   15  C   UNL     1     -46.778  62.452 -48.716  1.00  0.00     0.052 A 
HETATM   16  C   UNL     1     -47.044  63.038 -50.050  1.00  0.00     0.072 C 
HETATM   17  N   UNL     1     -47.502  62.826 -47.622  1.00  0.00    -0.280 N 
HETATM   18  H   UNL     1     -48.254  63.504 -47.568  1.00  0.00     0.189 HD
HETATM   19  N   UNL     1     -47.153  62.192 -46.501  1.00  0.00    -0.177 NA
HETATM   20  C   UNL     1     -46.160  61.371 -46.876  1.00  0.00     0.079 A 
HETATM   21  C   UNL     1     -45.548  60.511 -45.830  1.00  0.00     0.075 C 
ENDBRANCH  10  14
ENDBRANCH   1   8
BRANCH   3  22
HETATM   22  C   UNL     1     -43.066  54.702 -51.570  1.00  0.00     0.253 C 
HETATM   23  N   UNL     1     -41.701  54.506 -51.460  1.00  0.00    -0.352 N 
HETATM   24  H   UNL     1     -41.067  55.264 -51.685  1.00  0.00     0.163 HD
HETATM   25  O   UNL     1     -43.915  53.861 -51.303  1.00  0.00    -0.268 OA
BRANCH  23  26
HETATM   26  C   UNL     1     -41.140  53.255 -51.067  1.00  0.00     0.084 A 
HETATM   27  C   UNL     1     -39.880  52.750 -51.716  1.00  0.00     0.027 A 
HETATM   28  C   UNL     1     -39.853  53.209 -50.287  1.00  0.00     0.027 A 
ENDBRANCH  23  26
ENDBRANCH   3  22
TORSDOF 4
ENDMDL
MODEL 10
REMARK VINA RESULT:      -7.4      5.955      8.508
REMARK  4 active torsions:
REMARK  status: ('A' for Active; 'I' for Inactive)
REMARK    1  A    between atoms: C_8  and  N_9 
REMARK       I    between atoms: N_9  and  C_10 
REMARK       I    between atoms: C_10  and  N_11 
REMARK    2  A    between atoms: N_11  and  C_12 
REMARK    3  A    between atoms: C_14  and  C_15 
REMARK       I    between atoms: C_15  and  N_16 
REMARK    4  A    between atoms: N_16  and  C_17 
ROOT
HETATM    1  C   UNL     1     -43.851  58.423 -51.564  1.00  0.00     0.037 A 
HETATM    2  C   UNL     1     -42.937  57.413 -51.262  1.00  0.00     0.048 A 
HETATM    3  C   UNL     1     -42.818  56.275 -52.082  1.00  0.00     0.055 A 
HETATM    4  C   UNL     1     -43.593  56.166 -53.239  1.00  0.00     0.049 A 
HETATM    5 CL   UNL     1     -43.566  54.784 -54.271  1.00  0.00    -0.083 Cl
HETATM    6  C   UNL     1     -44.482  57.194 -53.566  1.00  0.00     0.027 A 
HETATM    7  C   UNL     1     -44.610  58.313 -52.734  1.00  0.00     0.031 A 
ENDROOT
BRANCH   1   8
HETATM    8  N   UNL     1     -44.069  59.555 -50.750  1.00  0.00    -0.309 N 
HETATM    9  C   UNL     1     -45.226  59.866 -50.043  1.00  0.00     0.325 C 
HETATM   10  N   UNL     1     -45.086  61.071 -49.380  1.00  0.00    -0.305 N 
HETATM   11  O   UNL     1     -46.232  59.173 -50.039  1.00  0.00    -0.247 OA
HETATM   12  H   UNL     1     -44.181  61.509 -49.396  1.00  0.00     0.171 HD
HETATM   13  H   UNL     1     -43.357  60.270 -50.784  1.00  0.00     0.170 HD
BRANCH  10  14
HETATM   14  C   UNL     1     -46.052  61.743 -48.643  1.00  0.00     0.086 A 
HETATM   15  C   UNL     1     -46.255  61.467 -47.302  1.00  0.00     0.052 A 
HETATM   16  C   UNL     1     -45.608  60.526 -46.359  1.00  0.00     0.072 C 
HETATM   17  N   UNL     1     -47.254  62.301 -46.893  1.00  0.00    -0.280 N 
HETATM   18  H   UNL     1     -47.667  62.384 -45.971  1.00  0.00     0.189 HD
HETATM   19  N   UNL     1     -47.719  63.100 -47.856  1.00  0.00    -0.177 NA
HETATM   20  C   UNL     1     -46.995  62.775 -48.939  1.00  0.00     0.079 A 
HETATM   21  C   UNL     1     -47.280  63.507 -50.200  1.00  0.00     0.075 C 
ENDBRANCH  10  14
ENDBRANCH   1   8
BRANCH   3  22
HETATM   22  C   UNL     1     -41.847  55.229 -51.680  1.00  0.00     0.253 C 
HETATM   23  N   UNL     1     -41.933  54.840 -50.356  1.00  0.00    -0.352 N 
HETATM   24  H   UNL     1     -42.649  55.242 -49.761  1.00  0.00     0.163 HD
HETATM   25  O   UNL     1     -41.034  54.791 -52.484  1.00  0.00    -0.268 OA
BRANCH  23  26
HETATM   26  C   UNL     1     -41.024  53.907 -49.774  1.00  0.00     0.084 A 
HETATM   27  C   UNL     1     -39.601  54.307 -49.493  1.00  0.00     0.027 A 
HETATM   28  C   UNL     1     -40.554  54.085 -48.355  1.00  0.00     0.027 A 
ENDBRANCH  23  26
ENDBRANCH   3  22
TORSDOF 4
ENDMDL
