MODEL 1
REMARK VINA RESULT:      -7.9      0.000      0.000
REMARK  8 active torsions:
REMARK  status: ('A' for Active; 'I' for Inactive)
REMARK    1  A    between atoms: C_7  and  C_8 
REMARK       I    between atoms: C_8  and  N_9 
REMARK    2  A    between atoms: N_9  and  C_10 
REMARK    3  A    between atoms: C_12  and  C_13 
REMARK       I    between atoms: C_13  and  N_14 
REMARK    4  A    between atoms: N_14  and  C_15 
REMARK    5  A    between atoms: C_15  and  C_16 
REMARK    6  A    between atoms: C_16  and  C_17 
REMARK    7  A    between atoms: C_18  and  O_19 
REMARK    8  A    between atoms: C_23  and  O_24 
ROOT
HETATM    1  C   UNL     1     -45.077  57.985 -55.145  1.00  0.00     0.035 A 
HETATM    2  C   UNL     1     -44.679  57.153 -54.095  1.00  0.00     0.046 A 
HETATM    3  C   UNL     1     -44.525  57.674 -52.801  1.00  0.00     0.034 A 
HETATM    4  C   UNL     1     -44.746  59.034 -52.561  1.00  0.00     0.017 A 
HETATM    5  C   UNL     1     -45.151  59.865 -53.602  1.00  0.00     0.003 A 
HETATM    6  C   UNL     1     -45.321  59.340 -54.885  1.00  0.00     0.029 A 
ENDROOT
BRANCH   3   7
HETATM    7  C   UNL     1     -44.084  56.819 -51.670  1.00  0.00     0.251 C 
HETATM    8  N   UNL     1     -43.049  55.947 -51.931  1.00  0.00    -0.357 N 
HETATM    9  H   UNL     1     -42.631  55.922 -52.852  1.00  0.00     0.162 HD
HETATM   10  O   UNL     1     -44.653  56.900 -50.587  1.00  0.00    -0.268 OA
BRANCH   8  11
HETATM   11  C   UNL     1     -42.440  55.154 -50.878  1.00  0.00     0.127 C 
BRANCH  11  12
HETATM   12  C   UNL     1     -40.947  54.893 -51.109  1.00  0.00     0.061 C 
BRANCH  12  13
HETATM   13  C   UNL     1     -40.537  53.777 -52.058  1.00  0.00    -0.021 A 
HETATM   14  C   UNL     1     -40.556  54.029 -53.449  1.00  0.00     0.074 A 
HETATM   15  C   UNL     1     -40.181  53.024 -54.343  1.00  0.00     0.040 A 
HETATM   16  C   UNL     1     -39.808  51.765 -53.871  1.00  0.00     0.039 A 
HETATM   17  C   UNL     1     -39.811  51.489 -52.506  1.00  0.00     0.068 A 
HETATM   18  C   UNL     1     -40.182  52.491 -51.606  1.00  0.00     0.046 A 
BRANCH  14  19
HETATM   19  O   UNL     1     -40.950  55.289 -53.823  1.00  0.00    -0.355 OA
HETATM   20  C   UNL     1     -41.442  55.454 -55.147  1.00  0.00     0.210 C 
ENDBRANCH  14  19
BRANCH  17  21
HETATM   21  O   UNL     1     -39.438  50.213 -52.184  1.00  0.00    -0.356 OA
HETATM   22  C   UNL     1     -39.624  49.806 -50.834  1.00  0.00     0.210 C 
ENDBRANCH  17  21
ENDBRANCH  12  13
ENDBRANCH  11  12
ENDBRANCH   8  11
ENDBRANCH   3   7
BRANCH   1  23
HETATM   23  N   UNL     1     -45.243  57.547 -56.474  1.00  0.00    -0.322 N 
HETATM   24  C   UNL     1     -44.355  57.656 -57.528  1.00  0.00     0.265 C 
HETATM   25  O   UNL     1     -43.248  58.182 -57.468  1.00  0.00    -0.267 OA
HETATM   26  H   UNL     1     -46.143  57.145 -56.712  1.00  0.00     0.169 HD
BRANCH  24  27
HETATM   27  C   UNL     1     -44.882  57.075 -58.834  1.00  0.00     0.097 C 
HETATM   28  C   UNL     1     -45.867  57.696 -59.530  1.00  0.00     0.064 C 
HETATM   29  C   UNL     1     -46.429  59.048 -59.170  1.00  0.00     0.078 C 
HETATM   30  O   UNL     1     -46.462  57.212 -60.686  1.00  0.00    -0.353 OA
HETATM   31  C   UNL     1     -46.322  55.814 -60.939  1.00  0.00     0.185 C 
HETATM   32  C   UNL     1     -44.864  55.416 -61.003  1.00  0.00     0.106 C 
HETATM   33  S   UNL     1     -44.155  55.564 -59.346  1.00  0.00    -0.120 SA
ENDBRANCH  24  27
ENDBRANCH   1  23
TORSDOF 8
ENDMDL
MODEL 2
REMARK VINA RESULT:      -7.6      1.213      2.684
REMARK  8 active torsions:
REMARK  status: ('A' for Active; 'I' for Inactive)
REMARK    1  A    between atoms: C_7  and  C_8 
REMARK       I    between atoms: C_8  and  N_9 
REMARK    2  A    between atoms: N_9  and  C_10 
REMARK    3  A    between atoms: C_12  and  C_13 
REMARK       I    between atoms: C_13  and  N_14 
REMARK    4  A    between atoms: N_14  and  C_15 
REMARK    5  A    between atoms: C_15  and  C_16 
REMARK    6  A    between atoms: C_16  and  C_17 
REMARK    7  A    between atoms: C_18  and  O_19 
REMARK    8  A    between atoms: C_23  and  O_24 
ROOT
HETATM    1  C   UNL     1     -44.412  57.541 -54.213  1.00  0.00     0.035 A 
HETATM    2  C   UNL     1     -43.586  56.819 -53.348  1.00  0.00     0.046 A 
HETATM    3  C   UNL     1     -43.449  57.216 -52.009  1.00  0.00     0.034 A 
HETATM    4  C   UNL     1     -44.120  58.349 -51.540  1.00  0.00     0.017 A 
HETATM    5  C   UNL     1     -44.953  59.065 -52.396  1.00  0.00     0.003 A 
HETATM    6  C   UNL     1     -45.101  58.658 -53.723  1.00  0.00     0.029 A 
ENDROOT
BRANCH   3   7
HETATM    7  C   UNL     1     -42.562  56.481 -51.071  1.00  0.00     0.251 C 
HETATM    8  N   UNL     1     -42.904  55.173 -50.805  1.00  0.00    -0.357 N 
HETATM    9  H   UNL     1     -43.718  54.764 -51.248  1.00  0.00     0.162 HD
HETATM   10  O   UNL     1     -41.603  57.052 -50.564  1.00  0.00    -0.268 OA
BRANCH   8  11
HETATM   11  C   UNL     1     -42.048  54.309 -50.011  1.00  0.00     0.127 C 
BRANCH  11  12
HETATM   12  C   UNL     1     -40.634  54.172 -50.586  1.00  0.00     0.061 C 
BRANCH  12  13
HETATM   13  C   UNL     1     -40.450  53.478 -51.926  1.00  0.00    -0.021 A 
HETATM   14  C   UNL     1     -40.038  52.126 -51.939  1.00  0.00     0.074 A 
HETATM   15  C   UNL     1     -39.865  51.462 -53.155  1.00  0.00     0.040 A 
HETATM   16  C   UNL     1     -40.076  52.134 -54.359  1.00  0.00     0.039 A 
HETATM   17  C   UNL     1     -40.453  53.475 -54.368  1.00  0.00     0.068 A 
HETATM   18  C   UNL     1     -40.631  54.143 -53.155  1.00  0.00     0.046 A 
BRANCH  14  19
HETATM   19  O   UNL     1     -39.841  51.550 -50.709  1.00  0.00    -0.355 OA
HETATM   20  C   UNL     1     -39.807  50.129 -50.650  1.00  0.00     0.210 C 
ENDBRANCH  14  19
BRANCH  17  21
HETATM   21  O   UNL     1     -40.612  54.011 -55.617  1.00  0.00    -0.356 OA
HETATM   22  C   UNL     1     -41.626  54.996 -55.771  1.00  0.00     0.210 C 
ENDBRANCH  17  21
ENDBRANCH  12  13
ENDBRANCH  11  12
ENDBRANCH   8  11
ENDBRANCH   3   7
BRANCH   1  23
HETATM   23  N   UNL     1     -44.596  57.220 -55.573  1.00  0.00    -0.322 N 
HETATM   24  C   UNL     1     -44.174  57.927 -56.684  1.00  0.00     0.265 C 
HETATM   25  O   UNL     1     -43.561  58.989 -56.653  1.00  0.00    -0.267 OA
HETATM   26  H   UNL     1     -45.150  56.395 -55.776  1.00  0.00     0.169 HD
BRANCH  24  27
HETATM   27  C   UNL     1     -44.564  57.278 -58.006  1.00  0.00     0.097 C 
HETATM   28  C   UNL     1     -45.800  57.454 -58.535  1.00  0.00     0.064 C 
HETATM   29  C   UNL     1     -46.837  58.388 -57.961  1.00  0.00     0.078 C 
HETATM   30  O   UNL     1     -46.273  56.850 -59.690  1.00  0.00    -0.353 OA
HETATM   31  C   UNL     1     -45.581  55.682 -60.130  1.00  0.00     0.185 C 
HETATM   32  C   UNL     1     -44.114  55.973 -60.362  1.00  0.00     0.106 C 
HETATM   33  S   UNL     1     -43.332  56.287 -58.762  1.00  0.00    -0.120 SA
ENDBRANCH  24  27
ENDBRANCH   1  23
TORSDOF 8
ENDMDL
MODEL 3
REMARK VINA RESULT:      -7.5      3.976      5.592
REMARK  8 active torsions:
REMARK  status: ('A' for Active; 'I' for Inactive)
REMARK    1  A    between atoms: C_7  and  C_8 
REMARK       I    between atoms: C_8  and  N_9 
REMARK    2  A    between atoms: N_9  and  C_10 
REMARK    3  A    between atoms: C_12  and  C_13 
REMARK       I    between atoms: C_13  and  N_14 
REMARK    4  A    between atoms: N_14  and  C_15 
REMARK    5  A    between atoms: C_15  and  C_16 
REMARK    6  A    between atoms: C_16  and  C_17 
REMARK    7  A    between atoms: C_18  and  O_19 
REMARK    8  A    between atoms: C_23  and  O_24 
ROOT
HETATM    1  C   UNL     1     -42.513  58.110 -59.576  1.00  0.00     0.035 A 
HETATM    2  C   UNL     1     -42.320  57.732 -58.245  1.00  0.00     0.046 A 
HETATM    3  C   UNL     1     -42.872  56.534 -57.764  1.00  0.00     0.034 A 
HETATM    4  C   UNL     1     -43.637  55.724 -58.610  1.00  0.00     0.017 A 
HETATM    5  C   UNL     1     -43.823  56.092 -59.940  1.00  0.00     0.003 A 
HETATM    6  C   UNL     1     -43.258  57.275 -60.420  1.00  0.00     0.029 A 
ENDROOT
BRANCH   3   7
HETATM    7  C   UNL     1     -42.702  56.117 -56.349  1.00  0.00     0.251 C 
HETATM    8  N   UNL     1     -43.230  54.890 -56.007  1.00  0.00    -0.357 N 
HETATM    9  H   UNL     1     -43.695  54.328 -56.708  1.00  0.00     0.162 HD
HETATM   10  O   UNL     1     -42.139  56.863 -55.557  1.00  0.00    -0.268 OA
BRANCH   8  11
HETATM   11  C   UNL     1     -43.016  54.311 -54.692  1.00  0.00     0.127 C 
BRANCH  11  12
HETATM   12  C   UNL     1     -41.671  53.587 -54.566  1.00  0.00     0.061 C 
BRANCH  12  13
HETATM   13  C   UNL     1     -41.159  53.228 -53.180  1.00  0.00    -0.021 A 
HETATM   14  C   UNL     1     -40.234  52.168 -53.052  1.00  0.00     0.074 A 
HETATM   15  C   UNL     1     -39.744  51.818 -51.792  1.00  0.00     0.040 A 
HETATM   16  C   UNL     1     -40.181  52.498 -50.655  1.00  0.00     0.039 A 
HETATM   17  C   UNL     1     -41.115  53.526 -50.756  1.00  0.00     0.068 A 
HETATM   18  C   UNL     1     -41.606  53.882 -52.014  1.00  0.00     0.046 A 
BRANCH  14  19
HETATM   19  O   UNL     1     -39.872  51.547 -54.221  1.00  0.00    -0.355 OA
HETATM   20  C   UNL     1     -40.153  50.158 -54.338  1.00  0.00     0.210 C 
ENDBRANCH  14  19
BRANCH  17  21
HETATM   21  O   UNL     1     -41.464  54.096 -49.563  1.00  0.00    -0.356 OA
HETATM   22  C   UNL     1     -41.359  55.511 -49.468  1.00  0.00     0.210 C 
ENDBRANCH  17  21
ENDBRANCH  12  13
ENDBRANCH  11  12
ENDBRANCH   8  11
ENDBRANCH   3   7
BRANCH   1  23
HETATM   23  N   UNL     1     -42.006  59.299 -60.136  1.00  0.00    -0.322 N 
HETATM   24  C   UNL     1     -42.486  60.587 -59.987  1.00  0.00     0.265 C 
HETATM   25  O   UNL     1     -43.473  60.901 -59.330  1.00  0.00    -0.267 OA
HETATM   26  H   UNL     1     -41.220  59.205 -60.771  1.00  0.00     0.169 HD
BRANCH  24  27
HETATM   27  C   UNL     1     -41.683  61.631 -60.755  1.00  0.00     0.097 C 
HETATM   28  C   UNL     1     -40.730  62.373 -60.140  1.00  0.00     0.064 C 
HETATM   29  C   UNL     1     -40.283  62.158 -58.715  1.00  0.00     0.078 C 
HETATM   30  O   UNL     1     -40.000  63.393 -60.732  1.00  0.00    -0.353 OA
HETATM   31  C   UNL     1     -40.547  63.963 -61.921  1.00  0.00     0.185 C 
HETATM   32  C   UNL     1     -40.757  62.907 -62.984  1.00  0.00     0.106 C 
HETATM   33  S   UNL     1     -42.094  61.813 -62.449  1.00  0.00    -0.120 SA
ENDBRANCH  24  27
ENDBRANCH   1  23
TORSDOF 8
ENDMDL
MODEL 4
REMARK VINA RESULT:      -7.5      3.979      5.264
REMARK  8 active torsions:
REMARK  status: ('A' for Active; 'I' for Inactive)
REMARK    1  A    between atoms: C_7  and  C_8 
REMARK       I    between atoms: C_8  and  N_9 
REMARK    2  A    between atoms: N_9  and  C_10 
REMARK    3  A    between atoms: C_12  and  C_13 
REMARK       I    between atoms: C_13  and  N_14 
REMARK    4  A    between atoms: N_14  and  C_15 
REMARK    5  A    between atoms: C_15  and  C_16 
REMARK    6  A    between atoms: C_16  and  C_17 
REMARK    7  A    between atoms: C_18  and  O_19 
REMARK    8  A    between atoms: C_23  and  O_24 
ROOT
HETATM    1  C   UNL     1     -42.202  58.059 -58.976  1.00  0.00     0.035 A 
HETATM    2  C   UNL     1     -42.572  57.813 -57.651  1.00  0.00     0.046 A 
HETATM    3  C   UNL     1     -43.122  56.573 -57.291  1.00  0.00     0.034 A 
HETATM    4  C   UNL     1     -43.325  55.586 -58.261  1.00  0.00     0.017 A 
HETATM    5  C   UNL     1     -42.949  55.823 -59.580  1.00  0.00     0.003 A 
HETATM    6  C   UNL     1     -42.385  57.051 -59.933  1.00  0.00     0.029 A 
ENDROOT
BRANCH   3   7
HETATM    7  C   UNL     1     -43.544  56.289 -55.895  1.00  0.00     0.251 C 
HETATM    8  N   UNL     1     -43.228  55.041 -55.404  1.00  0.00    -0.357 N 
HETATM    9  H   UNL     1     -42.730  54.381 -55.987  1.00  0.00     0.162 HD
HETATM   10  O   UNL     1     -44.158  57.139 -55.259  1.00  0.00    -0.268 OA
BRANCH   8  11
HETATM   11  C   UNL     1     -43.467  54.688 -54.015  1.00  0.00     0.127 C 
BRANCH  11  12
HETATM   12  C   UNL     1     -42.285  55.022 -53.098  1.00  0.00     0.061 C 
BRANCH  12  13
HETATM   13  C   UNL     1     -41.410  53.888 -52.588  1.00  0.00    -0.021 A 
HETATM   14  C   UNL     1     -41.283  53.705 -51.192  1.00  0.00     0.074 A 
HETATM   15  C   UNL     1     -40.488  52.670 -50.695  1.00  0.00     0.040 A 
HETATM   16  C   UNL     1     -39.800  51.829 -51.571  1.00  0.00     0.039 A 
HETATM   17  C   UNL     1     -39.889  52.012 -52.949  1.00  0.00     0.068 A 
HETATM   18  C   UNL     1     -40.685  53.044 -53.452  1.00  0.00     0.046 A 
BRANCH  14  19
HETATM   19  O   UNL     1     -41.983  54.587 -50.408  1.00  0.00    -0.355 OA
HETATM   20  C   UNL     1     -41.233  55.418 -49.530  1.00  0.00     0.210 C 
ENDBRANCH  14  19
BRANCH  17  21
HETATM   21  O   UNL     1     -39.154  51.126 -53.687  1.00  0.00    -0.356 OA
HETATM   22  C   UNL     1     -39.870  50.108 -54.374  1.00  0.00     0.210 C 
ENDBRANCH  17  21
ENDBRANCH  12  13
ENDBRANCH  11  12
ENDBRANCH   8  11
ENDBRANCH   3   7
BRANCH   1  23
HETATM   23  N   UNL     1     -41.655  59.277 -59.425  1.00  0.00    -0.322 N 
HETATM   24  C   UNL     1     -42.267  60.515 -59.497  1.00  0.00     0.265 C 
HETATM   25  O   UNL     1     -43.430  60.747 -59.181  1.00  0.00    -0.267 OA
HETATM   26  H   UNL     1     -40.709  59.245 -59.792  1.00  0.00     0.169 HD
BRANCH  24  27
HETATM   27  C   UNL     1     -41.365  61.612 -60.049  1.00  0.00     0.097 C 
HETATM   28  C   UNL     1     -41.324  61.885 -61.376  1.00  0.00     0.064 C 
HETATM   29  C   UNL     1     -42.236  61.248 -62.395  1.00  0.00     0.078 C 
HETATM   30  O   UNL     1     -40.487  62.810 -61.981  1.00  0.00    -0.353 OA
HETATM   31  C   UNL     1     -39.334  63.209 -61.239  1.00  0.00     0.185 C 
HETATM   32  C   UNL     1     -39.724  63.789 -59.898  1.00  0.00     0.106 C 
HETATM   33  S   UNL     1     -40.385  62.458 -58.867  1.00  0.00    -0.120 SA
ENDBRANCH  24  27
ENDBRANCH   1  23
TORSDOF 8
ENDMDL
MODEL 5
REMARK VINA RESULT:      -7.5      4.387      7.687
REMARK  8 active torsions:
REMARK  status: ('A' for Active; 'I' for Inactive)
REMARK    1  A    between atoms: C_7  and  C_8 
REMARK       I    between atoms: C_8  and  N_9 
REMARK    2  A    between atoms: N_9  and  C_10 
REMARK    3  A    between atoms: C_12  and  C_13 
REMARK       I    between atoms: C_13  and  N_14 
REMARK    4  A    between atoms: N_14  and  C_15 
REMARK    5  A    between atoms: C_15  and  C_16 
REMARK    6  A    between atoms: C_16  and  C_17 
REMARK    7  A    between atoms: C_18  and  O_19 
REMARK    8  A    between atoms: C_23  and  O_24 
ROOT
HETATM    1  C   UNL     1     -43.274  60.172 -50.458  1.00  0.00     0.035 A 
HETATM    2  C   UNL     1     -43.690  59.251 -51.423  1.00  0.00     0.046 A 
HETATM    3  C   UNL     1     -42.745  58.482 -52.119  1.00  0.00     0.034 A 
HETATM    4  C   UNL     1     -41.380  58.650 -51.867  1.00  0.00     0.017 A 
HETATM    5  C   UNL     1     -40.960  59.559 -50.899  1.00  0.00     0.003 A 
HETATM    6  C   UNL     1     -41.904  60.310 -50.195  1.00  0.00     0.029 A 
ENDROOT
BRANCH   3   7
HETATM    7  C   UNL     1     -43.156  57.511 -53.165  1.00  0.00     0.251 C 
HETATM    8  N   UNL     1     -42.144  56.788 -53.759  1.00  0.00    -0.357 N 
HETATM    9  H   UNL     1     -41.185  56.932 -53.469  1.00  0.00     0.162 HD
HETATM   10  O   UNL     1     -44.339  57.407 -53.469  1.00  0.00    -0.268 OA
BRANCH   8  11
HETATM   11  C   UNL     1     -42.425  55.717 -54.698  1.00  0.00     0.127 C 
BRANCH  11  12
HETATM   12  C   UNL     1     -42.792  54.397 -54.011  1.00  0.00     0.061 C 
BRANCH  12  13
HETATM   13  C   UNL     1     -41.696  53.599 -53.323  1.00  0.00    -0.021 A 
HETATM   14  C   UNL     1     -41.366  53.914 -51.985  1.00  0.00     0.074 A 
HETATM   15  C   UNL     1     -40.365  53.196 -51.327  1.00  0.00     0.040 A 
HETATM   16  C   UNL     1     -39.674  52.182 -51.991  1.00  0.00     0.039 A 
HETATM   17  C   UNL     1     -39.964  51.877 -53.319  1.00  0.00     0.068 A 
HETATM   18  C   UNL     1     -40.966  52.589 -53.982  1.00  0.00     0.046 A 
BRANCH  14  19
HETATM   19  O   UNL     1     -42.086  54.933 -51.417  1.00  0.00    -0.355 OA
HETATM   20  C   UNL     1     -43.021  54.587 -50.402  1.00  0.00     0.210 C 
ENDBRANCH  14  19
BRANCH  17  21
HETATM   21  O   UNL     1     -39.202  50.872 -53.850  1.00  0.00    -0.356 OA
HETATM   22  C   UNL     1     -39.887  49.850 -54.562  1.00  0.00     0.210 C 
ENDBRANCH  17  21
ENDBRANCH  12  13
ENDBRANCH  11  12
ENDBRANCH   8  11
ENDBRANCH   3   7
BRANCH   1  23
HETATM   23  N   UNL     1     -44.153  60.992 -49.724  1.00  0.00    -0.322 N 
HETATM   24  C   UNL     1     -45.371  60.655 -49.163  1.00  0.00     0.265 C 
HETATM   25  O   UNL     1     -45.898  59.550 -49.233  1.00  0.00    -0.267 OA
HETATM   26  H   UNL     1     -43.894  61.969 -49.632  1.00  0.00     0.169 HD
BRANCH  24  27
HETATM   27  C   UNL     1     -46.054  61.812 -48.445  1.00  0.00     0.097 C 
HETATM   28  C   UNL     1     -46.050  61.897 -47.092  1.00  0.00     0.064 C 
HETATM   29  C   UNL     1     -45.281  60.964 -46.191  1.00  0.00     0.078 C 
HETATM   30  O   UNL     1     -46.703  62.868 -46.346  1.00  0.00    -0.353 OA
HETATM   31  C   UNL     1     -47.756  63.576 -47.001  1.00  0.00     0.185 C 
HETATM   32  C   UNL     1     -47.256  64.257 -48.256  1.00  0.00     0.106 C 
HETATM   33  S   UNL     1     -46.850  62.985 -49.476  1.00  0.00    -0.120 SA
ENDBRANCH  24  27
ENDBRANCH   1  23
TORSDOF 8
ENDMDL
MODEL 6
REMARK VINA RESULT:      -7.3      2.118      2.379
REMARK  8 active torsions:
REMARK  status: ('A' for Active; 'I' for Inactive)
REMARK    1  A    between atoms: C_7  and  C_8 
REMARK       I    between atoms: C_8  and  N_9 
REMARK    2  A    between atoms: N_9  and  C_10 
REMARK    3  A    between atoms: C_12  and  C_13 
REMARK       I    between atoms: C_13  and  N_14 
REMARK    4  A    between atoms: N_14  and  C_15 
REMARK    5  A    between atoms: C_15  and  C_16 
REMARK    6  A    between atoms: C_16  and  C_17 
REMARK    7  A    between atoms: C_18  and  O_19 
REMARK    8  A    between atoms: C_23  and  O_24 
ROOT
HETATM    1  C   UNL     1     -44.429  59.068 -54.722  1.00  0.00     0.035 A 
HETATM    2  C   UNL     1     -44.198  57.983 -53.872  1.00  0.00     0.046 A 
HETATM    3  C   UNL     1     -44.636  58.025 -52.539  1.00  0.00     0.034 A 
HETATM    4  C   UNL     1     -45.287  59.162 -52.050  1.00  0.00     0.017 A 
HETATM    5  C   UNL     1     -45.529  60.241 -52.896  1.00  0.00     0.003 A 
HETATM    6  C   UNL     1     -45.107  60.190 -54.226  1.00  0.00     0.029 A 
ENDROOT
BRANCH   3   7
HETATM    7  C   UNL     1     -44.387  56.896 -51.607  1.00  0.00     0.251 C 
HETATM    8  N   UNL     1     -43.535  55.911 -52.055  1.00  0.00    -0.357 N 
HETATM    9  H   UNL     1     -43.114  55.987 -52.973  1.00  0.00     0.162 HD
HETATM   10  O   UNL     1     -44.948  56.871 -50.517  1.00  0.00    -0.268 OA
BRANCH   8  11
HETATM   11  C   UNL     1     -43.107  54.825 -51.191  1.00  0.00     0.127 C 
BRANCH  11  12
HETATM   12  C   UNL     1     -41.583  54.677 -51.120  1.00  0.00     0.061 C 
BRANCH  12  13
HETATM   13  C   UNL     1     -40.908  53.623 -51.984  1.00  0.00    -0.021 A 
HETATM   14  C   UNL     1     -40.876  53.812 -53.384  1.00  0.00     0.074 A 
HETATM   15  C   UNL     1     -40.261  52.862 -54.202  1.00  0.00     0.040 A 
HETATM   16  C   UNL     1     -39.695  51.715 -53.644  1.00  0.00     0.039 A 
HETATM   17  C   UNL     1     -39.742  51.496 -52.269  1.00  0.00     0.068 A 
HETATM   18  C   UNL     1     -40.354  52.444 -51.446  1.00  0.00     0.046 A 
BRANCH  14  19
HETATM   19  O   UNL     1     -41.470  54.960 -53.845  1.00  0.00    -0.355 OA
HETATM   20  C   UNL     1     -40.685  55.818 -54.665  1.00  0.00     0.210 C 
ENDBRANCH  14  19
BRANCH  17  21
HETATM   21  O   UNL     1     -39.162  50.327 -51.861  1.00  0.00    -0.356 OA
HETATM   22  C   UNL     1     -39.638  49.759 -50.647  1.00  0.00     0.210 C 
ENDBRANCH  17  21
ENDBRANCH  12  13
ENDBRANCH  11  12
ENDBRANCH   8  11
ENDBRANCH   3   7
BRANCH   1  23
HETATM   23  N   UNL     1     -44.012  59.114 -56.067  1.00  0.00    -0.322 N 
HETATM   24  C   UNL     1     -42.734  59.298 -56.561  1.00  0.00     0.265 C 
HETATM   25  O   UNL     1     -41.731  59.469 -55.876  1.00  0.00    -0.267 OA
HETATM   26  H   UNL     1     -44.740  59.056 -56.772  1.00  0.00     0.169 HD
BRANCH  24  27
HETATM   27  C   UNL     1     -42.662  59.302 -58.083  1.00  0.00     0.097 C 
HETATM   28  C   UNL     1     -42.596  58.144 -58.785  1.00  0.00     0.064 C 
HETATM   29  C   UNL     1     -42.721  56.775 -58.164  1.00  0.00     0.078 C 
HETATM   30  O   UNL     1     -42.455  58.045 -60.161  1.00  0.00    -0.353 OA
HETATM   31  C   UNL     1     -41.953  59.199 -60.836  1.00  0.00     0.185 C 
HETATM   32  C   UNL     1     -42.827  60.406 -60.575  1.00  0.00     0.106 C 
HETATM   33  S   UNL     1     -42.644  60.883 -58.840  1.00  0.00    -0.120 SA
ENDBRANCH  24  27
ENDBRANCH   1  23
TORSDOF 8
ENDMDL
MODEL 7
REMARK VINA RESULT:      -7.2      4.368      7.308
REMARK  8 active torsions:
REMARK  status: ('A' for Active; 'I' for Inactive)
REMARK    1  A    between atoms: C_7  and  C_8 
REMARK       I    between atoms: C_8  and  N_9 
REMARK    2  A    between atoms: N_9  and  C_10 
REMARK    3  A    between atoms: C_12  and  C_13 
REMARK       I    between atoms: C_13  and  N_14 
REMARK    4  A    between atoms: N_14  and  C_15 
REMARK    5  A    between atoms: C_15  and  C_16 
REMARK    6  A    between atoms: C_16  and  C_17 
REMARK    7  A    between atoms: C_18  and  O_19 
REMARK    8  A    between atoms: C_23  and  O_24 
ROOT
HETATM    1  C   UNL     1     -42.632  60.079 -50.944  1.00  0.00     0.035 A 
HETATM    2  C   UNL     1     -42.722  59.292 -52.096  1.00  0.00     0.046 A 
HETATM    3  C   UNL     1     -41.613  58.550 -52.533  1.00  0.00     0.034 A 
HETATM    4  C   UNL     1     -40.406  58.613 -51.830  1.00  0.00     0.017 A 
HETATM    5  C   UNL     1     -40.314  59.388 -50.677  1.00  0.00     0.003 A 
HETATM    6  C   UNL     1     -41.424  60.111 -50.235  1.00  0.00     0.029 A 
ENDROOT
BRANCH   3   7
HETATM    7  C   UNL     1     -41.672  57.722 -53.764  1.00  0.00     0.251 C 
HETATM    8  N   UNL     1     -41.451  56.371 -53.602  1.00  0.00    -0.357 N 
HETATM    9  H   UNL     1     -41.267  55.998 -52.679  1.00  0.00     0.162 HD
HETATM   10  O   UNL     1     -41.886  58.254 -54.847  1.00  0.00    -0.268 OA
BRANCH   8  11
HETATM   11  C   UNL     1     -41.611  55.438 -54.703  1.00  0.00     0.127 C 
BRANCH  11  12
HETATM   12  C   UNL     1     -41.865  53.999 -54.239  1.00  0.00     0.061 C 
BRANCH  12  13
HETATM   13  C   UNL     1     -41.313  53.554 -52.893  1.00  0.00    -0.021 A 
HETATM   14  C   UNL     1     -40.327  52.542 -52.866  1.00  0.00     0.074 A 
HETATM   15  C   UNL     1     -39.800  52.115 -51.646  1.00  0.00     0.040 A 
HETATM   16  C   UNL     1     -40.258  52.670 -50.450  1.00  0.00     0.039 A 
HETATM   17  C   UNL     1     -41.249  53.648 -50.454  1.00  0.00     0.068 A 
HETATM   18  C   UNL     1     -41.778  54.080 -51.672  1.00  0.00     0.046 A 
BRANCH  14  19
HETATM   19  O   UNL     1     -39.948  52.044 -54.088  1.00  0.00    -0.355 OA
HETATM   20  C   UNL     1     -39.963  50.631 -54.251  1.00  0.00     0.210 C 
ENDBRANCH  14  19
BRANCH  17  21
HETATM   21  O   UNL     1     -41.612  54.093 -49.212  1.00  0.00    -0.356 OA
HETATM   22  C   UNL     1     -40.570  54.274 -48.262  1.00  0.00     0.210 C 
ENDBRANCH  17  21
ENDBRANCH  12  13
ENDBRANCH  11  12
ENDBRANCH   8  11
ENDBRANCH   3   7
BRANCH   1  23
HETATM   23  N   UNL     1     -43.690  60.863 -50.444  1.00  0.00    -0.322 N 
HETATM   24  C   UNL     1     -44.968  60.460 -50.105  1.00  0.00     0.265 C 
HETATM   25  O   UNL     1     -45.396  59.314 -50.204  1.00  0.00    -0.267 OA
HETATM   26  H   UNL     1     -43.520  61.860 -50.366  1.00  0.00     0.169 HD
BRANCH  24  27
HETATM   27  C   UNL     1     -45.854  61.594 -49.605  1.00  0.00     0.097 C 
HETATM   28  C   UNL     1     -46.027  61.815 -48.278  1.00  0.00     0.064 C 
HETATM   29  C   UNL     1     -45.280  61.076 -47.196  1.00  0.00     0.078 C 
HETATM   30  O   UNL     1     -46.866  62.771 -47.726  1.00  0.00    -0.353 OA
HETATM   31  C   UNL     1     -47.899  63.280 -48.571  1.00  0.00     0.185 C 
HETATM   32  C   UNL     1     -47.322  63.885 -49.832  1.00  0.00     0.106 C 
HETATM   33  S   UNL     1     -46.636  62.554 -50.846  1.00  0.00    -0.120 SA
ENDBRANCH  24  27
ENDBRANCH   1  23
TORSDOF 8
ENDMDL
MODEL 8
REMARK VINA RESULT:      -7.2      2.373      2.885
REMARK  8 active torsions:
REMARK  status: ('A' for Active; 'I' for Inactive)
REMARK    1  A    between atoms: C_7  and  C_8 
REMARK       I    between atoms: C_8  and  N_9 
REMARK    2  A    between atoms: N_9  and  C_10 
REMARK    3  A    between atoms: C_12  and  C_13 
REMARK       I    between atoms: C_13  and  N_14 
REMARK    4  A    between atoms: N_14  and  C_15 
REMARK    5  A    between atoms: C_15  and  C_16 
REMARK    6  A    between atoms: C_16  and  C_17 
REMARK    7  A    between atoms: C_18  and  O_19 
REMARK    8  A    between atoms: C_23  and  O_24 
ROOT
HETATM    1  C   UNL     1     -43.146  59.728 -53.763  1.00  0.00     0.035 A 
HETATM    2  C   UNL     1     -42.542  58.700 -53.035  1.00  0.00     0.046 A 
HETATM    3  C   UNL     1     -42.124  58.922 -51.713  1.00  0.00     0.034 A 
HETATM    4  C   UNL     1     -42.291  60.180 -51.126  1.00  0.00     0.017 A 
HETATM    5  C   UNL     1     -42.902  61.205 -51.844  1.00  0.00     0.003 A 
HETATM    6  C   UNL     1     -43.332  60.976 -53.153  1.00  0.00     0.029 A 
ENDROOT
BRANCH   3   7
HETATM    7  C   UNL     1     -41.460  57.856 -50.921  1.00  0.00     0.251 C 
HETATM    8  N   UNL     1     -42.206  56.723 -50.677  1.00  0.00    -0.357 N 
HETATM    9  H   UNL     1     -43.149  56.652 -51.038  1.00  0.00     0.162 HD
HETATM   10  O   UNL     1     -40.319  58.025 -50.508  1.00  0.00    -0.268 OA
BRANCH   8  11
HETATM   11  C   UNL     1     -41.628  55.558 -50.030  1.00  0.00     0.127 C 
BRANCH  11  12
HETATM   12  C   UNL     1     -42.147  54.234 -50.602  1.00  0.00     0.061 C 
BRANCH  12  13
HETATM   13  C   UNL     1     -41.550  53.711 -51.899  1.00  0.00    -0.021 A 
HETATM   14  C   UNL     1     -42.000  54.258 -53.122  1.00  0.00     0.074 A 
HETATM   15  C   UNL     1     -41.467  53.799 -54.329  1.00  0.00     0.040 A 
HETATM   16  C   UNL     1     -40.507  52.787 -54.333  1.00  0.00     0.039 A 
HETATM   17  C   UNL     1     -40.072  52.215 -53.141  1.00  0.00     0.068 A 
HETATM   18  C   UNL     1     -40.599  52.672 -51.930  1.00  0.00     0.046 A 
BRANCH  14  19
HETATM   19  O   UNL     1     -42.956  55.237 -53.022  1.00  0.00    -0.355 OA
HETATM   20  C   UNL     1     -43.857  55.384 -54.113  1.00  0.00     0.210 C 
ENDBRANCH  14  19
BRANCH  17  21
HETATM   21  O   UNL     1     -39.139  51.226 -53.292  1.00  0.00    -0.356 OA
HETATM   22  C   UNL     1     -39.524  50.086 -54.051  1.00  0.00     0.210 C 
ENDBRANCH  17  21
ENDBRANCH  12  13
ENDBRANCH  11  12
ENDBRANCH   8  11
ENDBRANCH   3   7
BRANCH   1  23
HETATM   23  N   UNL     1     -43.582  59.595 -55.096  1.00  0.00    -0.322 N 
HETATM   24  C   UNL     1     -42.841  59.724 -56.256  1.00  0.00     0.265 C 
HETATM   25  O   UNL     1     -41.646  59.998 -56.303  1.00  0.00    -0.267 OA
HETATM   26  H   UNL     1     -44.574  59.433 -55.237  1.00  0.00     0.169 HD
BRANCH  24  27
HETATM   27  C   UNL     1     -43.655  59.521 -57.528  1.00  0.00     0.097 C 
HETATM   28  C   UNL     1     -43.714  58.311 -58.136  1.00  0.00     0.064 C 
HETATM   29  C   UNL     1     -43.114  57.050 -57.565  1.00  0.00     0.078 C 
HETATM   30  O   UNL     1     -44.366  58.043 -59.331  1.00  0.00    -0.353 OA
HETATM   31  C   UNL     1     -44.648  59.164 -60.169  1.00  0.00     0.185 C 
HETATM   32  C   UNL     1     -45.485  60.192 -59.440  1.00  0.00     0.106 C 
HETATM   33  S   UNL     1     -44.470  60.944 -58.146  1.00  0.00    -0.120 SA
ENDBRANCH  24  27
ENDBRANCH   1  23
TORSDOF 8
ENDMDL
MODEL 9
REMARK VINA RESULT:      -7.1      2.345      8.058
REMARK  8 active torsions:
REMARK  status: ('A' for Active; 'I' for Inactive)
REMARK    1  A    between atoms: C_7  and  C_8 
REMARK       I    between atoms: C_8  and  N_9 
REMARK    2  A    between atoms: N_9  and  C_10 
REMARK    3  A    between atoms: C_12  and  C_13 
REMARK       I    between atoms: C_13  and  N_14 
REMARK    4  A    between atoms: N_14  and  C_15 
REMARK    5  A    between atoms: C_15  and  C_16 
REMARK    6  A    between atoms: C_16  and  C_17 
REMARK    7  A    between atoms: C_18  and  O_19 
REMARK    8  A    between atoms: C_23  and  O_24 
ROOT
HETATM    1  C   UNL     1     -43.278  56.038 -52.587  1.00  0.00     0.035 A 
HETATM    2  C   UNL     1     -43.603  56.800 -53.712  1.00  0.00     0.046 A 
HETATM    3  C   UNL     1     -44.456  57.908 -53.591  1.00  0.00     0.034 A 
HETATM    4  C   UNL     1     -45.002  58.241 -52.348  1.00  0.00     0.017 A 
HETATM    5  C   UNL     1     -44.673  57.491 -51.222  1.00  0.00     0.003 A 
HETATM    6  C   UNL     1     -43.810  56.399 -51.342  1.00  0.00     0.029 A 
ENDROOT
BRANCH   3   7
HETATM    7  C   UNL     1     -44.836  58.725 -54.772  1.00  0.00     0.251 C 
HETATM    8  N   UNL     1     -44.259  58.369 -55.972  1.00  0.00    -0.357 N 
HETATM    9  H   UNL     1     -43.620  57.584 -56.011  1.00  0.00     0.162 HD
HETATM   10  O   UNL     1     -45.606  59.669 -54.637  1.00  0.00    -0.268 OA
BRANCH   8  11
HETATM   11  C   UNL     1     -44.648  59.002 -57.219  1.00  0.00     0.127 C 
BRANCH  11  12
HETATM   12  C   UNL     1     -43.869  58.474 -58.429  1.00  0.00     0.061 C 
BRANCH  12  13
HETATM   13  C   UNL     1     -44.332  57.187 -59.095  1.00  0.00    -0.021 A 
HETATM   14  C   UNL     1     -43.745  55.967 -58.693  1.00  0.00     0.074 A 
HETATM   15  C   UNL     1     -44.152  54.769 -59.285  1.00  0.00     0.040 A 
HETATM   16  C   UNL     1     -45.122  54.775 -60.288  1.00  0.00     0.039 A 
HETATM   17  C   UNL     1     -45.691  55.971 -60.719  1.00  0.00     0.068 A 
HETATM   18  C   UNL     1     -45.290  57.172 -60.128  1.00  0.00     0.046 A 
BRANCH  14  19
HETATM   19  O   UNL     1     -42.790  56.057 -57.712  1.00  0.00    -0.355 OA
HETATM   20  C   UNL     1     -42.855  55.116 -56.648  1.00  0.00     0.210 C 
ENDBRANCH  14  19
BRANCH  17  21
HETATM   21  O   UNL     1     -46.618  55.832 -61.716  1.00  0.00    -0.356 OA
HETATM   22  C   UNL     1     -47.820  56.581 -61.589  1.00  0.00     0.210 C 
ENDBRANCH  17  21
ENDBRANCH  12  13
ENDBRANCH  11  12
ENDBRANCH   8  11
ENDBRANCH   3   7
BRANCH   1  23
HETATM   23  N   UNL     1     -42.442  54.904 -52.621  1.00  0.00    -0.322 N 
HETATM   24  C   UNL     1     -41.134  54.791 -52.186  1.00  0.00     0.265 C 
HETATM   25  O   UNL     1     -40.473  55.700 -51.695  1.00  0.00    -0.267 OA
HETATM   26  H   UNL     1     -42.819  54.073 -53.066  1.00  0.00     0.169 HD
BRANCH  24  27
HETATM   27  C   UNL     1     -40.539  53.404 -52.394  1.00  0.00     0.097 C 
HETATM   28  C   UNL     1     -40.121  52.997 -53.617  1.00  0.00     0.064 C 
HETATM   29  C   UNL     1     -40.075  53.889 -54.832  1.00  0.00     0.078 C 
HETATM   30  O   UNL     1     -39.634  51.734 -53.921  1.00  0.00    -0.353 OA
HETATM   31  C   UNL     1     -39.959  50.687 -53.006  1.00  0.00     0.185 C 
HETATM   32  C   UNL     1     -39.474  51.014 -51.611  1.00  0.00     0.106 C 
HETATM   33  S   UNL     1     -40.461  52.387 -50.968  1.00  0.00    -0.120 SA
ENDBRANCH  24  27
ENDBRANCH   1  23
TORSDOF 8
ENDMDL
MODEL 10
REMARK VINA RESULT:      -7.1      3.588      5.062
REMARK  8 active torsions:
REMARK  status: ('A' for Active; 'I' for Inactive)
REMARK    1  A    between atoms: C_7  and  C_8 
REMARK       I    between atoms: C_8  and  N_9 
REMARK    2  A    between atoms: N_9  and  C_10 
REMARK    3  A    between atoms: C_12  and  C_13 
REMARK       I    between atoms: C_13  and  N_14 
REMARK    4  A    between atoms: N_14  and  C_15 
REMARK    5  A    between atoms: C_15  and  C_16 
REMARK    6  A    between atoms: C_16  and  C_17 
REMARK    7  A    between atoms: C_18  and  O_19 
REMARK    8  A    between atoms: C_23  and  O_24 
ROOT
HETATM    1  C   UNL     1     -42.657  58.234 -58.259  1.00  0.00     0.035 A 
HETATM    2  C   UNL     1     -42.690  57.608 -57.010  1.00  0.00     0.046 A 
HETATM    3  C   UNL     1     -42.924  56.227 -56.919  1.00  0.00     0.034 A 
HETATM    4  C   UNL     1     -43.148  55.475 -58.077  1.00  0.00     0.017 A 
HETATM    5  C   UNL     1     -43.106  56.093 -59.324  1.00  0.00     0.003 A 
HETATM    6  C   UNL     1     -42.856  57.464 -59.412  1.00  0.00     0.029 A 
ENDROOT
BRANCH   3   7
HETATM    7  C   UNL     1     -42.985  55.537 -55.605  1.00  0.00     0.251 C 
HETATM    8  N   UNL     1     -42.639  56.289 -54.504  1.00  0.00    -0.357 N 
HETATM    9  H   UNL     1     -42.369  57.258 -54.620  1.00  0.00     0.162 HD
HETATM   10  O   UNL     1     -43.308  54.355 -55.552  1.00  0.00    -0.268 OA
BRANCH   8  11
HETATM   11  C   UNL     1     -42.784  55.772 -53.154  1.00  0.00     0.127 C 
BRANCH  11  12
HETATM   12  C   UNL     1     -41.442  55.556 -52.446  1.00  0.00     0.061 C 
BRANCH  12  13
HETATM   13  C   UNL     1     -40.853  54.155 -52.403  1.00  0.00    -0.021 A 
HETATM   14  C   UNL     1     -40.419  53.640 -51.161  1.00  0.00     0.074 A 
HETATM   15  C   UNL     1     -39.877  52.355 -51.091  1.00  0.00     0.040 A 
HETATM   16  C   UNL     1     -39.742  51.585 -52.246  1.00  0.00     0.039 A 
HETATM   17  C   UNL     1     -40.136  52.086 -53.484  1.00  0.00     0.068 A 
HETATM   18  C   UNL     1     -40.682  53.369 -53.560  1.00  0.00     0.046 A 
BRANCH  14  19
HETATM   19  O   UNL     1     -40.576  54.472 -50.081  1.00  0.00    -0.355 OA
HETATM   20  C   UNL     1     -39.983  54.068 -48.853  1.00  0.00     0.210 C 
ENDBRANCH  14  19
BRANCH  17  21
HETATM   21  O   UNL     1     -39.935  51.231 -54.533  1.00  0.00    -0.356 OA
HETATM   22  C   UNL     1     -39.658  49.873 -54.215  1.00  0.00     0.210 C 
ENDBRANCH  17  21
ENDBRANCH  12  13
ENDBRANCH  11  12
ENDBRANCH   8  11
ENDBRANCH   3   7
BRANCH   1  23
HETATM   23  N   UNL     1     -42.442  59.614 -58.439  1.00  0.00    -0.322 N 
HETATM   24  C   UNL     1     -41.880  60.516 -57.554  1.00  0.00     0.265 C 
HETATM   25  O   UNL     1     -41.479  60.243 -56.427  1.00  0.00    -0.267 OA
HETATM   26  H   UNL     1     -42.784  60.020 -59.304  1.00  0.00     0.169 HD
BRANCH  24  27
HETATM   27  C   UNL     1     -41.817  61.941 -58.090  1.00  0.00     0.097 C 
HETATM   28  C   UNL     1     -42.869  62.787 -57.958  1.00  0.00     0.064 C 
HETATM   29  C   UNL     1     -44.116  62.463 -57.174  1.00  0.00     0.078 C 
HETATM   30  O   UNL     1     -42.936  64.072 -58.473  1.00  0.00    -0.353 OA
HETATM   31  C   UNL     1     -42.030  64.384 -59.532  1.00  0.00     0.185 C 
HETATM   32  C   UNL     1     -40.596  64.164 -59.103  1.00  0.00     0.106 C 
HETATM   33  S   UNL     1     -40.326  62.387 -58.896  1.00  0.00    -0.120 SA
ENDBRANCH  24  27
ENDBRANCH   1  23
TORSDOF 8
ENDMDL
