MODEL 1
REMARK VINA RESULT:      -7.4      0.000      0.000
REMARK  6 active torsions:
REMARK  status: ('A' for Active; 'I' for Inactive)
REMARK    1  A    between atoms: C_4  and  C_5 
REMARK    2  A    between atoms: C_5  and  N_6 
REMARK       I    between atoms: N_6  and  C_7 
REMARK       I    between atoms: C_7  and  N_8 
REMARK    3  A    between atoms: N_8  and  C_9 
REMARK    4  A    between atoms: C_9  and  C_10 
REMARK    5  A    between atoms: C_12  and  O_13 
REMARK    6  A    between atoms: O_13  and  C_14 
ROOT
HETATM    1  N   UNL     1     -41.342  53.803 -52.190  1.00  0.00    -0.333 N 
HETATM    2  C   UNL     1     -42.644  54.161 -52.304  1.00  0.00     0.317 C 
HETATM    3  N   UNL     1     -43.031  54.656 -53.506  1.00  0.00    -0.339 N 
HETATM    4  O   UNL     1     -43.463  54.054 -51.398  1.00  0.00    -0.247 OA
HETATM    5  H   UNL     1     -40.790  53.686 -53.027  1.00  0.00     0.165 HD
HETATM    6  H   UNL     1     -44.005  54.930 -53.512  1.00  0.00     0.164 HD
ENDROOT
BRANCH   3   7
HETATM    7  C   UNL     1     -42.204  55.097 -54.610  1.00  0.00     0.163 C 
BRANCH   7   8
HETATM    8  C   UNL     1     -41.955  56.583 -54.669  1.00  0.00    -0.035 A 
HETATM    9  C   UNL     1     -41.061  57.238 -53.817  1.00  0.00     0.066 A 
HETATM   10  C   UNL     1     -40.939  58.615 -53.910  1.00  0.00     0.164 A 
HETATM   11  N   UNL     1     -41.598  59.376 -54.809  1.00  0.00    -0.237 NA
HETATM   12  C   UNL     1     -42.425  58.724 -55.650  1.00  0.00     0.120 A 
HETATM   13  C   UNL     1     -42.637  57.353 -55.618  1.00  0.00     0.028 A 
BRANCH  10  14
HETATM   14  O   UNL     1     -40.094  59.224 -53.003  1.00  0.00    -0.329 OA
BRANCH  14  15
HETATM   15  C   UNL     1     -40.262  58.826 -51.626  1.00  0.00     0.130 C 
HETATM   16  C   UNL     1     -39.437  59.604 -50.564  1.00  0.00     0.032 C 
HETATM   17  C   UNL     1     -40.677  59.562 -49.656  1.00  0.00     0.005 C 
HETATM   18  C   UNL     1     -41.523  59.408 -50.933  1.00  0.00     0.032 C 
ENDBRANCH  14  15
ENDBRANCH  10  14
ENDBRANCH   7   8
ENDBRANCH   3   7
BRANCH   1  19
HETATM   19  C   UNL     1     -40.818  53.150 -51.004  1.00  0.00     0.139 C 
HETATM   20  C   UNL     1     -39.745  54.006 -50.342  1.00  0.00     0.039 C 
BRANCH  19  21
HETATM   21  C   UNL     1     -40.273  51.817 -51.410  1.00  0.00     0.075 A 
HETATM   22  O   UNL     1     -40.088  51.597 -52.749  1.00  0.00    -0.318 OA
HETATM   23  C   UNL     1     -39.631  50.322 -52.887  1.00  0.00     0.049 A 
HETATM   24  C   UNL     1     -39.381  49.858 -54.267  1.00  0.00     0.076 C 
HETATM   25  C   UNL     1     -39.501  49.727 -51.653  1.00  0.00     0.035 A 
HETATM   26  C   UNL     1     -39.918  50.688 -50.700  1.00  0.00     0.037 A 
ENDBRANCH  19  21
ENDBRANCH   1  19
TORSDOF 6
ENDMDL
MODEL 2
REMARK VINA RESULT:      -7.4      2.975      7.153
REMARK  6 active torsions:
REMARK  status: ('A' for Active; 'I' for Inactive)
REMARK    1  A    between atoms: C_4  and  C_5 
REMARK    2  A    between atoms: C_5  and  N_6 
REMARK       I    between atoms: N_6  and  C_7 
REMARK       I    between atoms: C_7  and  N_8 
REMARK    3  A    between atoms: N_8  and  C_9 
REMARK    4  A    between atoms: C_9  and  C_10 
REMARK    5  A    between atoms: C_12  and  O_13 
REMARK    6  A    between atoms: O_13  and  C_14 
ROOT
HETATM    1  N   UNL     1     -41.825  55.909 -55.864  1.00  0.00    -0.333 N 
HETATM    2  C   UNL     1     -40.950  56.056 -54.839  1.00  0.00     0.317 C 
HETATM    3  N   UNL     1     -40.174  54.981 -54.549  1.00  0.00    -0.339 N 
HETATM    4  O   UNL     1     -40.830  57.087 -54.187  1.00  0.00    -0.247 OA
HETATM    5  H   UNL     1     -41.704  55.139 -56.505  1.00  0.00     0.165 HD
HETATM    6  H   UNL     1     -39.568  55.150 -53.757  1.00  0.00     0.164 HD
ENDROOT
BRANCH   3   7
HETATM    7  C   UNL     1     -40.317  53.614 -55.007  1.00  0.00     0.163 C 
BRANCH   7   8
HETATM    8  C   UNL     1     -40.141  52.562 -53.942  1.00  0.00    -0.035 A 
HETATM    9  C   UNL     1     -40.273  52.833 -52.576  1.00  0.00     0.066 A 
HETATM   10  C   UNL     1     -40.040  51.813 -51.668  1.00  0.00     0.164 A 
HETATM   11  N   UNL     1     -39.735  50.544 -52.015  1.00  0.00    -0.237 NA
HETATM   12  C   UNL     1     -39.653  50.289 -53.335  1.00  0.00     0.120 A 
HETATM   13  C   UNL     1     -39.840  51.249 -54.321  1.00  0.00     0.028 A 
BRANCH  10  14
HETATM   14  O   UNL     1     -40.116  52.146 -50.330  1.00  0.00    -0.329 OA
BRANCH  14  15
HETATM   15  C   UNL     1     -40.213  53.557 -50.041  1.00  0.00     0.130 C 
HETATM   16  C   UNL     1     -41.641  54.138 -49.854  1.00  0.00     0.032 C 
HETATM   17  C   UNL     1     -41.081  54.987 -48.700  1.00  0.00     0.005 C 
HETATM   18  C   UNL     1     -39.970  53.931 -48.555  1.00  0.00     0.032 C 
ENDBRANCH  14  15
ENDBRANCH  10  14
ENDBRANCH   7   8
ENDBRANCH   3   7
BRANCH   1  19
HETATM   19  C   UNL     1     -42.630  57.010 -56.360  1.00  0.00     0.139 C 
HETATM   20  C   UNL     1     -43.955  57.094 -55.612  1.00  0.00     0.039 C 
BRANCH  19  21
HETATM   21  C   UNL     1     -42.847  56.803 -57.826  1.00  0.00     0.075 A 
HETATM   22  O   UNL     1     -43.669  55.774 -58.199  1.00  0.00    -0.318 OA
HETATM   23  C   UNL     1     -43.688  55.746 -59.559  1.00  0.00     0.049 A 
HETATM   24  C   UNL     1     -44.503  54.688 -60.186  1.00  0.00     0.076 C 
HETATM   25  C   UNL     1     -42.904  56.759 -60.066  1.00  0.00     0.035 A 
HETATM   26  C   UNL     1     -42.359  57.439 -58.950  1.00  0.00     0.037 A 
ENDBRANCH  19  21
ENDBRANCH   1  19
TORSDOF 6
ENDMDL
MODEL 3
REMARK VINA RESULT:      -7.2      4.300      8.385
REMARK  6 active torsions:
REMARK  status: ('A' for Active; 'I' for Inactive)
REMARK    1  A    between atoms: C_4  and  C_5 
REMARK    2  A    between atoms: C_5  and  N_6 
REMARK       I    between atoms: N_6  and  C_7 
REMARK       I    between atoms: C_7  and  N_8 
REMARK    3  A    between atoms: N_8  and  C_9 
REMARK    4  A    between atoms: C_9  and  C_10 
REMARK    5  A    between atoms: C_12  and  O_13 
REMARK    6  A    between atoms: O_13  and  C_14 
ROOT
HETATM    1  N   UNL     1     -44.712  59.935 -49.936  1.00  0.00    -0.333 N 
HETATM    2  C   UNL     1     -45.431  58.936 -50.504  1.00  0.00     0.317 C 
HETATM    3  N   UNL     1     -44.724  57.878 -50.977  1.00  0.00    -0.339 N 
HETATM    4  O   UNL     1     -46.653  58.943 -50.601  1.00  0.00    -0.247 OA
HETATM    5  H   UNL     1     -43.755  59.760 -49.670  1.00  0.00     0.165 HD
HETATM    6  H   UNL     1     -45.319  57.185 -51.413  1.00  0.00     0.164 HD
ENDROOT
BRANCH   3   7
HETATM    7  C   UNL     1     -43.297  57.770 -51.193  1.00  0.00     0.163 C 
BRANCH   7   8
HETATM    8  C   UNL     1     -42.882  56.749 -52.222  1.00  0.00    -0.035 A 
HETATM    9  C   UNL     1     -41.833  55.847 -52.018  1.00  0.00     0.066 A 
HETATM   10  C   UNL     1     -41.490  54.980 -53.043  1.00  0.00     0.164 A 
HETATM   11  N   UNL     1     -42.135  54.912 -54.226  1.00  0.00    -0.237 NA
HETATM   12  C   UNL     1     -43.170  55.759 -54.392  1.00  0.00     0.120 A 
HETATM   13  C   UNL     1     -43.573  56.682 -53.437  1.00  0.00     0.028 A 
BRANCH  10  14
HETATM   14  O   UNL     1     -40.404  54.156 -52.818  1.00  0.00    -0.329 OA
BRANCH  14  15
HETATM   15  C   UNL     1     -40.641  52.744 -53.005  1.00  0.00     0.130 C 
HETATM   16  C   UNL     1     -40.114  52.112 -54.322  1.00  0.00     0.032 C 
HETATM   17  C   UNL     1     -39.691  50.886 -53.495  1.00  0.00     0.005 C 
HETATM   18  C   UNL     1     -39.636  51.817 -52.270  1.00  0.00     0.032 C 
ENDBRANCH  14  15
ENDBRANCH  10  14
ENDBRANCH   7   8
ENDBRANCH   3   7
BRANCH   1  19
HETATM   19  C   UNL     1     -45.342  61.068 -49.284  1.00  0.00     0.139 C 
HETATM   20  C   UNL     1     -44.545  62.344 -49.522  1.00  0.00     0.039 C 
BRANCH  19  21
HETATM   21  C   UNL     1     -45.452  60.762 -47.824  1.00  0.00     0.075 A 
HETATM   22  O   UNL     1     -46.333  59.783 -47.453  1.00  0.00    -0.318 OA
HETATM   23  C   UNL     1     -46.299  59.704 -46.094  1.00  0.00     0.049 A 
HETATM   24  C   UNL     1     -47.200  58.715 -45.469  1.00  0.00     0.076 C 
HETATM   25  C   UNL     1     -45.391  60.606 -45.588  1.00  0.00     0.035 A 
HETATM   26  C   UNL     1     -44.846  61.291 -46.702  1.00  0.00     0.037 A 
ENDBRANCH  19  21
ENDBRANCH   1  19
TORSDOF 6
ENDMDL
MODEL 4
REMARK VINA RESULT:      -7.2      1.835      6.355
REMARK  6 active torsions:
REMARK  status: ('A' for Active; 'I' for Inactive)
REMARK    1  A    between atoms: C_4  and  C_5 
REMARK    2  A    between atoms: C_5  and  N_6 
REMARK       I    between atoms: N_6  and  C_7 
REMARK       I    between atoms: C_7  and  N_8 
REMARK    3  A    between atoms: N_8  and  C_9 
REMARK    4  A    between atoms: C_9  and  C_10 
REMARK    5  A    between atoms: C_12  and  O_13 
REMARK    6  A    between atoms: O_13  and  C_14 
ROOT
HETATM    1  N   UNL     1     -42.031  56.652 -54.167  1.00  0.00    -0.333 N 
HETATM    2  C   UNL     1     -43.029  55.754 -54.352  1.00  0.00     0.317 C 
HETATM    3  N   UNL     1     -42.651  54.481 -54.635  1.00  0.00    -0.339 N 
HETATM    4  O   UNL     1     -44.221  56.031 -54.271  1.00  0.00    -0.247 OA
HETATM    5  H   UNL     1     -41.093  56.316 -54.006  1.00  0.00     0.165 HD
HETATM    6  H   UNL     1     -43.444  53.872 -54.790  1.00  0.00     0.164 HD
ENDROOT
BRANCH   3   7
HETATM    7  C   UNL     1     -41.344  53.992 -55.020  1.00  0.00     0.163 C 
BRANCH   7   8
HETATM    8  C   UNL     1     -40.730  52.994 -54.072  1.00  0.00    -0.035 A 
HETATM    9  C   UNL     1     -40.785  53.133 -52.682  1.00  0.00     0.066 A 
HETATM   10  C   UNL     1     -40.145  52.192 -51.892  1.00  0.00     0.164 A 
HETATM   11  N   UNL     1     -39.502  51.107 -52.374  1.00  0.00    -0.237 NA
HETATM   12  C   UNL     1     -39.494  50.966 -53.714  1.00  0.00     0.120 A 
HETATM   13  C   UNL     1     -40.080  51.868 -54.590  1.00  0.00     0.028 A 
BRANCH  10  14
HETATM   14  O   UNL     1     -40.169  52.409 -50.528  1.00  0.00    -0.329 OA
BRANCH  14  15
HETATM   15  C   UNL     1     -40.289  53.787 -50.116  1.00  0.00     0.130 C 
HETATM   16  C   UNL     1     -41.714  54.294 -49.765  1.00  0.00     0.032 C 
HETATM   17  C   UNL     1     -41.087  55.070 -48.595  1.00  0.00     0.005 C 
HETATM   18  C   UNL     1     -39.933  54.051 -48.628  1.00  0.00     0.032 C 
ENDBRANCH  14  15
ENDBRANCH  10  14
ENDBRANCH   7   8
ENDBRANCH   3   7
BRANCH   1  19
HETATM   19  C   UNL     1     -42.285  58.016 -53.743  1.00  0.00     0.139 C 
HETATM   20  C   UNL     1     -41.728  59.012 -54.752  1.00  0.00     0.039 C 
BRANCH  19  21
HETATM   21  C   UNL     1     -41.665  58.206 -52.395  1.00  0.00     0.075 A 
HETATM   22  O   UNL     1     -40.453  58.840 -52.346  1.00  0.00    -0.318 OA
HETATM   23  C   UNL     1     -40.063  58.865 -51.043  1.00  0.00     0.049 A 
HETATM   24  C   UNL     1     -38.756  59.490 -50.756  1.00  0.00     0.076 C 
HETATM   25  C   UNL     1     -41.021  58.273 -50.249  1.00  0.00     0.035 A 
HETATM   26  C   UNL     1     -42.052  57.846 -51.120  1.00  0.00     0.037 A 
ENDBRANCH  19  21
ENDBRANCH   1  19
TORSDOF 6
ENDMDL
MODEL 5
REMARK VINA RESULT:      -7.2      2.165      6.964
REMARK  6 active torsions:
REMARK  status: ('A' for Active; 'I' for Inactive)
REMARK    1  A    between atoms: C_4  and  C_5 
REMARK    2  A    between atoms: C_5  and  N_6 
REMARK       I    between atoms: N_6  and  C_7 
REMARK       I    between atoms: C_7  and  N_8 
REMARK    3  A    between atoms: N_8  and  C_9 
REMARK    4  A    between atoms: C_9  and  C_10 
REMARK    5  A    between atoms: C_12  and  O_13 
REMARK    6  A    between atoms: O_13  and  C_14 
ROOT
HETATM    1  N   UNL     1     -41.763  57.712 -53.269  1.00  0.00    -0.333 N 
HETATM    2  C   UNL     1     -40.849  58.305 -52.463  1.00  0.00     0.317 C 
HETATM    3  N   UNL     1     -40.741  57.809 -51.205  1.00  0.00    -0.339 N 
HETATM    4  O   UNL     1     -40.134  59.238 -52.812  1.00  0.00    -0.247 OA
HETATM    5  H   UNL     1     -42.135  56.812 -53.008  1.00  0.00     0.165 HD
HETATM    6  H   UNL     1     -40.064  58.315 -50.650  1.00  0.00     0.164 HD
ENDROOT
BRANCH   3   7
HETATM    7  C   UNL     1     -41.635  56.904 -50.512  1.00  0.00     0.163 C 
BRANCH   7   8
HETATM    8  C   UNL     1     -41.089  55.517 -50.283  1.00  0.00    -0.035 A 
HETATM    9  C   UNL     1     -40.415  54.793 -51.271  1.00  0.00     0.066 A 
HETATM   10  C   UNL     1     -39.997  53.504 -50.983  1.00  0.00     0.164 A 
HETATM   11  N   UNL     1     -40.154  52.904 -49.784  1.00  0.00    -0.237 NA
HETATM   12  C   UNL     1     -40.769  53.631 -48.830  1.00  0.00     0.120 A 
HETATM   13  C   UNL     1     -41.249  54.918 -49.028  1.00  0.00     0.028 A 
BRANCH  10  14
HETATM   14  O   UNL     1     -39.396  52.805 -52.012  1.00  0.00    -0.329 OA
BRANCH  14  15
HETATM   15  C   UNL     1     -40.247  51.879 -52.720  1.00  0.00     0.130 C 
HETATM   16  C   UNL     1     -40.285  52.002 -54.268  1.00  0.00     0.032 C 
HETATM   17  C   UNL     1     -40.295  50.466 -54.332  1.00  0.00     0.005 C 
HETATM   18  C   UNL     1     -39.629  50.472 -52.943  1.00  0.00     0.032 C 
ENDBRANCH  14  15
ENDBRANCH  10  14
ENDBRANCH   7   8
ENDBRANCH   3   7
BRANCH   1  19
HETATM   19  C   UNL     1     -41.901  58.061 -54.671  1.00  0.00     0.139 C 
HETATM   20  C   UNL     1     -42.951  59.149 -54.860  1.00  0.00     0.039 C 
BRANCH  19  21
HETATM   21  C   UNL     1     -42.265  56.821 -55.424  1.00  0.00     0.075 A 
HETATM   22  O   UNL     1     -42.580  56.961 -56.749  1.00  0.00    -0.318 OA
HETATM   23  C   UNL     1     -42.915  55.728 -57.216  1.00  0.00     0.049 A 
HETATM   24  C   UNL     1     -43.317  55.647 -58.635  1.00  0.00     0.076 C 
HETATM   25  C   UNL     1     -42.799  54.792 -56.213  1.00  0.00     0.035 A 
HETATM   26  C   UNL     1     -42.384  55.495 -55.057  1.00  0.00     0.037 A 
ENDBRANCH  19  21
ENDBRANCH   1  19
TORSDOF 6
ENDMDL
MODEL 6
REMARK VINA RESULT:      -7.1      2.005      4.030
REMARK  6 active torsions:
REMARK  status: ('A' for Active; 'I' for Inactive)
REMARK    1  A    between atoms: C_4  and  C_5 
REMARK    2  A    between atoms: C_5  and  N_6 
REMARK       I    between atoms: N_6  and  C_7 
REMARK       I    between atoms: C_7  and  N_8 
REMARK    3  A    between atoms: N_8  and  C_9 
REMARK    4  A    between atoms: C_9  and  C_10 
REMARK    5  A    between atoms: C_12  and  O_13 
REMARK    6  A    between atoms: O_13  and  C_14 
ROOT
HETATM    1  N   UNL     1     -41.902  54.809 -51.112  1.00  0.00    -0.333 N 
HETATM    2  C   UNL     1     -43.246  54.748 -51.280  1.00  0.00     0.317 C 
HETATM    3  N   UNL     1     -43.883  55.930 -51.479  1.00  0.00    -0.339 N 
HETATM    4  O   UNL     1     -43.890  53.705 -51.265  1.00  0.00    -0.247 OA
HETATM    5  H   UNL     1     -41.412  55.651 -51.376  1.00  0.00     0.165 HD
HETATM    6  H   UNL     1     -44.884  55.815 -51.567  1.00  0.00     0.164 HD
ENDROOT
BRANCH   3   7
HETATM    7  C   UNL     1     -43.375  57.273 -51.288  1.00  0.00     0.163 C 
BRANCH   7   8
HETATM    8  C   UNL     1     -42.785  57.914 -52.517  1.00  0.00    -0.035 A 
HETATM    9  C   UNL     1     -43.416  57.890 -53.765  1.00  0.00     0.066 A 
HETATM   10  C   UNL     1     -42.771  58.461 -54.850  1.00  0.00     0.164 A 
HETATM   11  N   UNL     1     -41.579  59.090 -54.779  1.00  0.00    -0.237 NA
HETATM   12  C   UNL     1     -41.003  59.142 -53.561  1.00  0.00     0.120 A 
HETATM   13  C   UNL     1     -41.555  58.576 -52.421  1.00  0.00     0.028 A 
BRANCH  10  14
HETATM   14  O   UNL     1     -43.403  58.352 -56.073  1.00  0.00    -0.329 OA
BRANCH  14  15
HETATM   15  C   UNL     1     -42.768  57.478 -57.030  1.00  0.00     0.130 C 
HETATM   16  C   UNL     1     -42.860  55.952 -56.757  1.00  0.00     0.032 C 
HETATM   17  C   UNL     1     -43.082  55.755 -58.266  1.00  0.00     0.005 C 
HETATM   18  C   UNL     1     -43.603  57.203 -58.309  1.00  0.00     0.032 C 
ENDBRANCH  14  15
ENDBRANCH  10  14
ENDBRANCH   7   8
ENDBRANCH   3   7
BRANCH   1  19
HETATM   19  C   UNL     1     -41.080  53.617 -51.009  1.00  0.00     0.139 C 
HETATM   20  C   UNL     1     -39.842  53.883 -50.162  1.00  0.00     0.039 C 
BRANCH  19  21
HETATM   21  C   UNL     1     -40.707  53.188 -52.393  1.00  0.00     0.075 A 
HETATM   22  O   UNL     1     -40.337  51.882 -52.566  1.00  0.00    -0.318 OA
HETATM   23  C   UNL     1     -40.004  51.728 -53.877  1.00  0.00     0.049 A 
HETATM   24  C   UNL     1     -39.547  50.386 -54.288  1.00  0.00     0.076 C 
HETATM   25  C   UNL     1     -40.177  52.915 -54.553  1.00  0.00     0.035 A 
HETATM   26  C   UNL     1     -40.627  53.858 -53.598  1.00  0.00     0.037 A 
ENDBRANCH  19  21
ENDBRANCH   1  19
TORSDOF 6
ENDMDL
MODEL 7
REMARK VINA RESULT:      -7.0      2.697      4.578
REMARK  6 active torsions:
REMARK  status: ('A' for Active; 'I' for Inactive)
REMARK    1  A    between atoms: C_4  and  C_5 
REMARK    2  A    between atoms: C_5  and  N_6 
REMARK       I    between atoms: N_6  and  C_7 
REMARK       I    between atoms: C_7  and  N_8 
REMARK    3  A    between atoms: N_8  and  C_9 
REMARK    4  A    between atoms: C_9  and  C_10 
REMARK    5  A    between atoms: C_12  and  O_13 
REMARK    6  A    between atoms: O_13  and  C_14 
ROOT
HETATM    1  N   UNL     1     -42.229  55.145 -51.364  1.00  0.00    -0.333 N 
HETATM    2  C   UNL     1     -43.520  55.181 -50.954  1.00  0.00     0.317 C 
HETATM    3  N   UNL     1     -44.236  56.278 -51.308  1.00  0.00    -0.339 N 
HETATM    4  O   UNL     1     -44.054  54.290 -50.302  1.00  0.00    -0.247 OA
HETATM    5  H   UNL     1     -41.927  55.778 -52.090  1.00  0.00     0.165 HD
HETATM    6  H   UNL     1     -45.180  56.253 -50.944  1.00  0.00     0.164 HD
ENDROOT
BRANCH   3   7
HETATM    7  C   UNL     1     -43.756  57.535 -51.843  1.00  0.00     0.163 C 
BRANCH   7   8
HETATM    8  C   UNL     1     -44.037  57.755 -53.307  1.00  0.00    -0.035 A 
HETATM    9  C   UNL     1     -43.435  57.001 -54.318  1.00  0.00     0.066 A 
HETATM   10  C   UNL     1     -43.714  57.312 -55.639  1.00  0.00     0.164 A 
HETATM   11  N   UNL     1     -44.576  58.276 -56.025  1.00  0.00    -0.237 NA
HETATM   12  C   UNL     1     -45.179  58.967 -55.038  1.00  0.00     0.120 A 
HETATM   13  C   UNL     1     -44.945  58.750 -53.688  1.00  0.00     0.028 A 
BRANCH  10  14
HETATM   14  O   UNL     1     -43.044  56.583 -56.602  1.00  0.00    -0.329 OA
BRANCH  14  15
HETATM   15  C   UNL     1     -43.339  56.931 -57.971  1.00  0.00     0.130 C 
HETATM   16  C   UNL     1     -42.231  57.680 -58.760  1.00  0.00     0.032 C 
HETATM   17  C   UNL     1     -42.597  56.817 -59.979  1.00  0.00     0.005 C 
HETATM   18  C   UNL     1     -43.149  55.775 -58.989  1.00  0.00     0.032 C 
ENDBRANCH  14  15
ENDBRANCH  10  14
ENDBRANCH   7   8
ENDBRANCH   3   7
BRANCH   1  19
HETATM   19  C   UNL     1     -41.382  53.984 -51.160  1.00  0.00     0.139 C 
HETATM   20  C   UNL     1     -40.207  54.321 -50.251  1.00  0.00     0.039 C 
BRANCH  19  21
HETATM   21  C   UNL     1     -40.913  53.511 -52.499  1.00  0.00     0.075 A 
HETATM   22  O   UNL     1     -40.605  52.183 -52.622  1.00  0.00    -0.318 OA
HETATM   23  C   UNL     1     -40.167  51.987 -53.895  1.00  0.00     0.049 A 
HETATM   24  C   UNL     1     -39.754  50.613 -54.246  1.00  0.00     0.076 C 
HETATM   25  C   UNL     1     -40.209  53.169 -54.600  1.00  0.00     0.035 A 
HETATM   26  C   UNL     1     -40.686  54.153 -53.700  1.00  0.00     0.037 A 
ENDBRANCH  19  21
ENDBRANCH   1  19
TORSDOF 6
ENDMDL
MODEL 8
REMARK VINA RESULT:      -6.7      2.933      5.512
REMARK  6 active torsions:
REMARK  status: ('A' for Active; 'I' for Inactive)
REMARK    1  A    between atoms: C_4  and  C_5 
REMARK    2  A    between atoms: C_5  and  N_6 
REMARK       I    between atoms: N_6  and  C_7 
REMARK       I    between atoms: C_7  and  N_8 
REMARK    3  A    between atoms: N_8  and  C_9 
REMARK    4  A    between atoms: C_9  and  C_10 
REMARK    5  A    between atoms: C_12  and  O_13 
REMARK    6  A    between atoms: O_13  and  C_14 
ROOT
HETATM    1  N   UNL     1     -41.597  59.064 -52.312  1.00  0.00    -0.333 N 
HETATM    2  C   UNL     1     -42.680  59.809 -52.642  1.00  0.00     0.317 C 
HETATM    3  N   UNL     1     -42.931  59.955 -53.967  1.00  0.00    -0.339 N 
HETATM    4  O   UNL     1     -43.423  60.335 -51.820  1.00  0.00    -0.247 OA
HETATM    5  H   UNL     1     -41.181  58.468 -53.011  1.00  0.00     0.165 HD
HETATM    6  H   UNL     1     -43.734  60.545 -54.142  1.00  0.00     0.164 HD
ENDROOT
BRANCH   3   7
HETATM    7  C   UNL     1     -42.070  59.645 -55.089  1.00  0.00     0.163 C 
BRANCH   7   8
HETATM    8  C   UNL     1     -42.546  58.517 -55.968  1.00  0.00    -0.035 A 
HETATM    9  C   UNL     1     -42.257  57.174 -55.707  1.00  0.00     0.066 A 
HETATM   10  C   UNL     1     -42.693  56.211 -56.602  1.00  0.00     0.164 A 
HETATM   11  N   UNL     1     -43.429  56.476 -57.702  1.00  0.00    -0.237 NA
HETATM   12  C   UNL     1     -43.735  57.770 -57.918  1.00  0.00     0.120 A 
HETATM   13  C   UNL     1     -43.321  58.810 -57.097  1.00  0.00     0.028 A 
BRANCH  10  14
HETATM   14  O   UNL     1     -42.324  54.907 -56.336  1.00  0.00    -0.329 OA
BRANCH  14  15
HETATM   15  C   UNL     1     -41.605  54.699 -55.102  1.00  0.00     0.130 C 
HETATM   16  C   UNL     1     -41.958  53.423 -54.290  1.00  0.00     0.032 C 
HETATM   17  C   UNL     1     -40.457  53.267 -53.995  1.00  0.00     0.005 C 
HETATM   18  C   UNL     1     -40.191  54.083 -55.273  1.00  0.00     0.032 C 
ENDBRANCH  14  15
ENDBRANCH  10  14
ENDBRANCH   7   8
ENDBRANCH   3   7
BRANCH   1  19
HETATM   19  C   UNL     1     -41.279  58.726 -50.937  1.00  0.00     0.139 C 
HETATM   20  C   UNL     1     -39.902  59.253 -50.553  1.00  0.00     0.039 C 
BRANCH  19  21
HETATM   21  C   UNL     1     -41.348  57.238 -50.796  1.00  0.00     0.075 A 
HETATM   22  O   UNL     1     -41.029  56.709 -49.575  1.00  0.00    -0.318 OA
HETATM   23  C   UNL     1     -41.118  55.355 -49.687  1.00  0.00     0.049 A 
HETATM   24  C   UNL     1     -40.790  54.571 -48.480  1.00  0.00     0.076 C 
HETATM   25  C   UNL     1     -41.510  55.009 -50.961  1.00  0.00     0.035 A 
HETATM   26  C   UNL     1     -41.655  56.221 -51.677  1.00  0.00     0.037 A 
ENDBRANCH  19  21
ENDBRANCH   1  19
TORSDOF 6
ENDMDL
MODEL 9
REMARK VINA RESULT:      -6.7      2.767      4.310
REMARK  6 active torsions:
REMARK  status: ('A' for Active; 'I' for Inactive)
REMARK    1  A    between atoms: C_4  and  C_5 
REMARK    2  A    between atoms: C_5  and  N_6 
REMARK       I    between atoms: N_6  and  C_7 
REMARK       I    between atoms: C_7  and  N_8 
REMARK    3  A    between atoms: N_8  and  C_9 
REMARK    4  A    between atoms: C_9  and  C_10 
REMARK    5  A    between atoms: C_12  and  O_13 
REMARK    6  A    between atoms: O_13  and  C_14 
ROOT
HETATM    1  N   UNL     1     -41.556  53.881 -51.547  1.00  0.00    -0.333 N 
HETATM    2  C   UNL     1     -42.818  54.343 -51.371  1.00  0.00     0.317 C 
HETATM    3  N   UNL     1     -43.437  54.843 -52.470  1.00  0.00    -0.339 N 
HETATM    4  O   UNL     1     -43.408  54.323 -50.296  1.00  0.00    -0.247 OA
HETATM    5  H   UNL     1     -41.226  53.702 -52.484  1.00  0.00     0.165 HD
HETATM    6  H   UNL     1     -44.362  55.196 -52.261  1.00  0.00     0.164 HD
ENDROOT
BRANCH   3   7
HETATM    7  C   UNL     1     -42.860  55.190 -53.752  1.00  0.00     0.163 C 
BRANCH   7   8
HETATM    8  C   UNL     1     -43.486  56.380 -54.433  1.00  0.00    -0.035 A 
HETATM    9  C   UNL     1     -43.655  56.460 -55.819  1.00  0.00     0.066 A 
HETATM   10  C   UNL     1     -44.193  57.617 -56.359  1.00  0.00     0.164 A 
HETATM   11  N   UNL     1     -44.614  58.671 -55.629  1.00  0.00    -0.237 NA
HETATM   12  C   UNL     1     -44.482  58.561 -54.292  1.00  0.00     0.120 A 
HETATM   13  C   UNL     1     -43.931  57.457 -53.658  1.00  0.00     0.028 A 
BRANCH  10  14
HETATM   14  O   UNL     1     -44.277  57.675 -57.737  1.00  0.00    -0.329 OA
BRANCH  14  15
HETATM   15  C   UNL     1     -43.134  57.168 -58.456  1.00  0.00     0.130 C 
HETATM   16  C   UNL     1     -43.260  57.075 -60.001  1.00  0.00     0.032 C 
HETATM   17  C   UNL     1     -41.807  57.569 -60.092  1.00  0.00     0.005 C 
HETATM   18  C   UNL     1     -42.011  58.210 -58.707  1.00  0.00     0.032 C 
ENDBRANCH  14  15
ENDBRANCH  10  14
ENDBRANCH   7   8
ENDBRANCH   3   7
BRANCH   1  19
HETATM   19  C   UNL     1     -40.820  53.213 -50.490  1.00  0.00     0.139 C 
HETATM   20  C   UNL     1     -39.680  54.087 -49.985  1.00  0.00     0.039 C 
BRANCH  19  21
HETATM   21  C   UNL     1     -40.309  51.914 -51.029  1.00  0.00     0.075 A 
HETATM   22  O   UNL     1     -40.112  51.830 -52.381  1.00  0.00    -0.318 OA
HETATM   23  C   UNL     1     -39.692  50.564 -52.649  1.00  0.00     0.049 A 
HETATM   24  C   UNL     1     -39.437  50.240 -54.067  1.00  0.00     0.076 C 
HETATM   25  C   UNL     1     -39.596  49.838 -51.483  1.00  0.00     0.035 A 
HETATM   26  C   UNL     1     -39.997  50.706 -50.438  1.00  0.00     0.037 A 
ENDBRANCH  19  21
ENDBRANCH   1  19
TORSDOF 6
ENDMDL
MODEL 10
REMARK VINA RESULT:      -6.7      1.927      5.533
REMARK  6 active torsions:
REMARK  status: ('A' for Active; 'I' for Inactive)
REMARK    1  A    between atoms: C_4  and  C_5 
REMARK    2  A    between atoms: C_5  and  N_6 
REMARK       I    between atoms: N_6  and  C_7 
REMARK       I    between atoms: C_7  and  N_8 
REMARK    3  A    between atoms: N_8  and  C_9 
REMARK    4  A    between atoms: C_9  and  C_10 
REMARK    5  A    between atoms: C_12  and  O_13 
REMARK    6  A    between atoms: O_13  and  C_14 
ROOT
HETATM    1  N   UNL     1     -41.860  58.173 -52.506  1.00  0.00    -0.333 N 
HETATM    2  C   UNL     1     -42.571  59.151 -53.118  1.00  0.00     0.317 C 
HETATM    3  N   UNL     1     -42.780  59.002 -54.451  1.00  0.00    -0.339 N 
HETATM    4  O   UNL     1     -43.025  60.131 -52.537  1.00  0.00    -0.247 OA
HETATM    5  H   UNL     1     -41.730  57.292 -52.979  1.00  0.00     0.165 HD
HETATM    6  H   UNL     1     -43.291  59.780 -54.847  1.00  0.00     0.164 HD
ENDROOT
BRANCH   3   7
HETATM    7  C   UNL     1     -42.141  58.081 -55.367  1.00  0.00     0.163 C 
BRANCH   7   8
HETATM    8  C   UNL     1     -42.276  56.623 -55.007  1.00  0.00    -0.035 A 
HETATM    9  C   UNL     1     -41.177  55.800 -54.742  1.00  0.00     0.066 A 
HETATM   10  C   UNL     1     -41.398  54.459 -54.472  1.00  0.00     0.164 A 
HETATM   11  N   UNL     1     -42.620  53.891 -54.400  1.00  0.00    -0.237 NA
HETATM   12  C   UNL     1     -43.671  54.706 -54.617  1.00  0.00     0.120 A 
HETATM   13  C   UNL     1     -43.553  56.055 -54.922  1.00  0.00     0.028 A 
BRANCH  10  14
HETATM   14  O   UNL     1     -40.278  53.674 -54.283  1.00  0.00    -0.329 OA
BRANCH  14  15
HETATM   15  C   UNL     1     -40.465  52.503 -53.461  1.00  0.00     0.130 C 
HETATM   16  C   UNL     1     -39.419  51.365 -53.611  1.00  0.00     0.032 C 
HETATM   17  C   UNL     1     -39.482  51.186 -52.085  1.00  0.00     0.005 C 
HETATM   18  C   UNL     1     -39.957  52.648 -52.002  1.00  0.00     0.032 C 
ENDBRANCH  14  15
ENDBRANCH  10  14
ENDBRANCH   7   8
ENDBRANCH   3   7
BRANCH   1  19
HETATM   19  C   UNL     1     -41.662  58.143 -51.069  1.00  0.00     0.139 C 
HETATM   20  C   UNL     1     -40.271  58.643 -50.700  1.00  0.00     0.039 C 
BRANCH  19  21
HETATM   21  C   UNL     1     -41.875  56.738 -50.601  1.00  0.00     0.075 A 
HETATM   22  O   UNL     1     -41.034  56.267 -49.628  1.00  0.00    -0.318 OA
HETATM   23  C   UNL     1     -41.379  54.972 -49.390  1.00  0.00     0.049 A 
HETATM   24  C   UNL     1     -40.578  54.252 -48.379  1.00  0.00     0.076 C 
HETATM   25  C   UNL     1     -42.444  54.610 -50.184  1.00  0.00     0.035 A 
HETATM   26  C   UNL     1     -42.762  55.746 -50.967  1.00  0.00     0.037 A 
ENDBRANCH  19  21
ENDBRANCH   1  19
TORSDOF 6
ENDMDL
