MODEL 1
REMARK VINA RESULT:      -7.5      0.000      0.000
REMARK  4 active torsions:
REMARK  status: ('A' for Active; 'I' for Inactive)
REMARK    1  A    between atoms: C_5  and  C_6 
REMARK       I    between atoms: C_6  and  N_7 
REMARK    2  A    between atoms: N_7  and  C_8 
REMARK    3  A    between atoms: C_8  and  N_9 
REMARK    4  A    between atoms: N_9  and  C_10 
ROOT
HETATM    1  C   UNL     1     -40.787  54.601 -54.278  1.00  0.00     0.257 C 
HETATM    2  N   UNL     1     -42.106  55.025 -54.147  1.00  0.00    -0.299 N 
HETATM    3  O   UNL     1     -39.929  55.091 -55.002  1.00  0.00    -0.267 OA
HETATM    4  H   UNL     1     -42.713  54.428 -53.591  1.00  0.00     0.171 HD
ENDROOT
BRANCH   2   5
HETATM    5  C   UNL     1     -42.794  56.088 -54.698  1.00  0.00     0.180 C 
HETATM    6  S   UNL     1     -44.296  56.665 -54.247  1.00  0.00    -0.040 SA
BRANCH   5   7
HETATM    7  N   UNL     1     -42.163  56.744 -55.729  1.00  0.00    -0.318 N 
HETATM    8  H   UNL     1     -41.349  57.271 -55.440  1.00  0.00     0.170 HD
BRANCH   7   9
HETATM    9  C   UNL     1     -42.492  56.763 -57.093  1.00  0.00     0.129 A 
HETATM   10  N   UNL     1     -42.147  57.832 -57.846  1.00  0.00    -0.243 NA
HETATM   11  C   UNL     1     -42.490  57.805 -59.154  1.00  0.00     0.119 A 
HETATM   12  C   UNL     1     -43.169  56.760 -59.752  1.00  0.00     0.026 A 
HETATM   13  C   UNL     1     -43.517  55.660 -58.970  1.00  0.00    -0.057 A 
HETATM   14  C   UNL     1     -44.286  54.511 -59.550  1.00  0.00     0.048 C 
HETATM   15  C   UNL     1     -43.172  55.668 -57.614  1.00  0.00     0.057 A 
ENDBRANCH   7   9
ENDBRANCH   5   7
ENDBRANCH   2   5
BRANCH   1  16
HETATM   16  C   UNL     1     -40.458  53.380 -53.491  1.00  0.00     0.032 A 
HETATM   17  C   UNL     1     -40.474  53.463 -52.096  1.00  0.00     0.017 A 
HETATM   18  C   UNL     1     -40.115  52.355 -51.325  1.00  0.00     0.007 A 
HETATM   19  C   UNL     1     -39.750  51.152 -51.940  1.00  0.00    -0.062 A 
HETATM   20  C   UNL     1     -39.341  49.962 -51.122  1.00  0.00     0.048 C 
HETATM   21  C   UNL     1     -39.769  51.064 -53.338  1.00  0.00     0.007 A 
HETATM   22  C   UNL     1     -40.125  52.170 -54.113  1.00  0.00     0.017 A 
ENDBRANCH   1  16
TORSDOF 4
ENDMDL
MODEL 2
REMARK VINA RESULT:      -7.3     14.441     16.794
REMARK  4 active torsions:
REMARK  status: ('A' for Active; 'I' for Inactive)
REMARK    1  A    between atoms: C_5  and  C_6 
REMARK       I    between atoms: C_6  and  N_7 
REMARK    2  A    between atoms: N_7  and  C_8 
REMARK    3  A    between atoms: C_8  and  N_9 
REMARK    4  A    between atoms: N_9  and  C_10 
ROOT
HETATM    1  C   UNL     1     -36.434  41.732 -53.819  1.00  0.00     0.257 C 
HETATM    2  N   UNL     1     -36.733  40.539 -53.168  1.00  0.00    -0.299 N 
HETATM    3  O   UNL     1     -36.080  42.782 -53.297  1.00  0.00    -0.267 OA
HETATM    4  H   UNL     1     -37.128  39.803 -53.747  1.00  0.00     0.171 HD
ENDROOT
BRANCH   2   5
HETATM    5  C   UNL     1     -36.669  40.170 -51.839  1.00  0.00     0.180 C 
HETATM    6  S   UNL     1     -37.635  39.060 -51.049  1.00  0.00    -0.040 SA
BRANCH   5   7
HETATM    7  N   UNL     1     -35.692  40.785 -51.091  1.00  0.00    -0.318 N 
HETATM    8  H   UNL     1     -36.042  41.510 -50.479  1.00  0.00     0.170 HD
BRANCH   7   9
HETATM    9  C   UNL     1     -34.312  40.529 -51.065  1.00  0.00     0.129 A 
HETATM   10  N   UNL     1     -33.602  40.591 -52.214  1.00  0.00    -0.243 NA
HETATM   11  C   UNL     1     -32.277  40.333 -52.139  1.00  0.00     0.119 A 
HETATM   12  C   UNL     1     -31.619  40.009 -50.966  1.00  0.00     0.026 A 
HETATM   13  C   UNL     1     -32.358  39.953 -49.785  1.00  0.00    -0.057 A 
HETATM   14  C   UNL     1     -31.711  39.572 -48.487  1.00  0.00     0.048 C 
HETATM   15  C   UNL     1     -33.731  40.215 -49.842  1.00  0.00     0.057 A 
ENDBRANCH   7   9
ENDBRANCH   5   7
ENDBRANCH   2   5
BRANCH   1  16
HETATM   16  C   UNL     1     -36.654  41.695 -55.292  1.00  0.00     0.032 A 
HETATM   17  C   UNL     1     -35.650  42.193 -56.127  1.00  0.00     0.017 A 
HETATM   18  C   UNL     1     -35.844  42.228 -57.510  1.00  0.00     0.007 A 
HETATM   19  C   UNL     1     -37.036  41.753 -58.071  1.00  0.00    -0.062 A 
HETATM   20  C   UNL     1     -37.264  41.806 -59.554  1.00  0.00     0.048 C 
HETATM   21  C   UNL     1     -38.024  41.223 -57.232  1.00  0.00     0.007 A 
HETATM   22  C   UNL     1     -37.835  41.189 -55.849  1.00  0.00     0.017 A 
ENDBRANCH   1  16
TORSDOF 4
ENDMDL
MODEL 3
REMARK VINA RESULT:      -7.3      2.478      4.272
REMARK  4 active torsions:
REMARK  status: ('A' for Active; 'I' for Inactive)
REMARK    1  A    between atoms: C_5  and  C_6 
REMARK       I    between atoms: C_6  and  N_7 
REMARK    2  A    between atoms: N_7  and  C_8 
REMARK    3  A    between atoms: C_8  and  N_9 
REMARK    4  A    between atoms: N_9  and  C_10 
ROOT
HETATM    1  C   UNL     1     -40.876  54.261 -54.422  1.00  0.00     0.257 C 
HETATM    2  N   UNL     1     -42.242  54.265 -54.689  1.00  0.00    -0.299 N 
HETATM    3  O   UNL     1     -40.037  55.020 -54.889  1.00  0.00    -0.267 OA
HETATM    4  H   UNL     1     -42.773  53.487 -54.307  1.00  0.00     0.171 HD
ENDROOT
BRANCH   2   5
HETATM    5  C   UNL     1     -43.031  55.100 -55.454  1.00  0.00     0.180 C 
HETATM    6  S   UNL     1     -42.835  55.478 -57.070  1.00  0.00    -0.040 SA
BRANCH   5   7
HETATM    7  N   UNL     1     -44.100  55.677 -54.808  1.00  0.00    -0.318 N 
HETATM    8  H   UNL     1     -44.999  55.410 -55.189  1.00  0.00     0.170 HD
BRANCH   7   9
HETATM    9  C   UNL     1     -44.098  56.554 -53.713  1.00  0.00     0.129 A 
HETATM   10  N   UNL     1     -43.499  56.179 -52.561  1.00  0.00    -0.243 NA
HETATM   11  C   UNL     1     -43.527  57.057 -51.532  1.00  0.00     0.119 A 
HETATM   12  C   UNL     1     -44.130  58.300 -51.596  1.00  0.00     0.026 A 
HETATM   13  C   UNL     1     -44.741  58.681 -52.789  1.00  0.00    -0.057 A 
HETATM   14  C   UNL     1     -45.445  60.000 -52.911  1.00  0.00     0.048 C 
HETATM   15  C   UNL     1     -44.725  57.786 -53.865  1.00  0.00     0.057 A 
ENDBRANCH   7   9
ENDBRANCH   5   7
ENDBRANCH   2   5
BRANCH   1  16
HETATM   16  C   UNL     1     -40.433  53.155 -53.528  1.00  0.00     0.032 A 
HETATM   17  C   UNL     1     -40.069  51.936 -54.106  1.00  0.00     0.017 A 
HETATM   18  C   UNL     1     -39.704  50.858 -53.297  1.00  0.00     0.007 A 
HETATM   19  C   UNL     1     -39.687  50.992 -51.903  1.00  0.00    -0.062 A 
HETATM   20  C   UNL     1     -39.318  49.834 -51.022  1.00  0.00     0.048 C 
HETATM   21  C   UNL     1     -40.020  52.226 -51.330  1.00  0.00     0.007 A 
HETATM   22  C   UNL     1     -40.388  53.306 -52.136  1.00  0.00     0.017 A 
ENDBRANCH   1  16
TORSDOF 4
ENDMDL
MODEL 4
REMARK VINA RESULT:      -7.2      3.621      5.581
REMARK  4 active torsions:
REMARK  status: ('A' for Active; 'I' for Inactive)
REMARK    1  A    between atoms: C_5  and  C_6 
REMARK       I    between atoms: C_6  and  N_7 
REMARK    2  A    between atoms: N_7  and  C_8 
REMARK    3  A    between atoms: C_8  and  N_9 
REMARK    4  A    between atoms: N_9  and  C_10 
ROOT
HETATM    1  C   UNL     1     -41.752  54.847 -52.470  1.00  0.00     0.257 C 
HETATM    2  N   UNL     1     -42.876  55.146 -53.233  1.00  0.00    -0.299 N 
HETATM    3  O   UNL     1     -41.265  55.534 -51.582  1.00  0.00    -0.267 OA
HETATM    4  H   UNL     1     -43.069  54.519 -54.009  1.00  0.00     0.171 HD
ENDROOT
BRANCH   2   5
HETATM    5  C   UNL     1     -43.767  56.200 -53.190  1.00  0.00     0.180 C 
HETATM    6  S   UNL     1     -44.335  57.099 -54.479  1.00  0.00    -0.040 SA
BRANCH   5   7
HETATM    7  N   UNL     1     -44.242  56.537 -51.944  1.00  0.00    -0.318 N 
HETATM    8  H   UNL     1     -44.491  55.740 -51.373  1.00  0.00     0.170 HD
BRANCH   7   9
HETATM    9  C   UNL     1     -44.409  57.811 -51.380  1.00  0.00     0.129 A 
HETATM   10  N   UNL     1     -45.614  58.165 -50.879  1.00  0.00    -0.243 NA
HETATM   11  C   UNL     1     -45.726  59.405 -50.351  1.00  0.00     0.119 A 
HETATM   12  C   UNL     1     -44.688  60.318 -50.300  1.00  0.00     0.026 A 
HETATM   13  C   UNL     1     -43.448  59.943 -50.814  1.00  0.00    -0.057 A 
HETATM   14  C   UNL     1     -42.294  60.900 -50.822  1.00  0.00     0.048 C 
HETATM   15  C   UNL     1     -43.312  58.665 -51.366  1.00  0.00     0.057 A 
ENDBRANCH   7   9
ENDBRANCH   5   7
ENDBRANCH   2   5
BRANCH   1  16
HETATM   16  C   UNL     1     -41.067  53.584 -52.865  1.00  0.00     0.032 A 
HETATM   17  C   UNL     1     -41.297  53.073 -54.145  1.00  0.00     0.017 A 
HETATM   18  C   UNL     1     -40.719  51.862 -54.531  1.00  0.00     0.007 A 
HETATM   19  C   UNL     1     -39.895  51.157 -53.646  1.00  0.00    -0.062 A 
HETATM   20  C   UNL     1     -39.286  49.843 -54.041  1.00  0.00     0.048 C 
HETATM   21  C   UNL     1     -39.640  51.689 -52.376  1.00  0.00     0.007 A 
HETATM   22  C   UNL     1     -40.218  52.900 -51.985  1.00  0.00     0.017 A 
ENDBRANCH   1  16
TORSDOF 4
ENDMDL
MODEL 5
REMARK VINA RESULT:      -7.2      3.355      5.355
REMARK  4 active torsions:
REMARK  status: ('A' for Active; 'I' for Inactive)
REMARK    1  A    between atoms: C_5  and  C_6 
REMARK       I    between atoms: C_6  and  N_7 
REMARK    2  A    between atoms: N_7  and  C_8 
REMARK    3  A    between atoms: C_8  and  N_9 
REMARK    4  A    between atoms: N_9  and  C_10 
ROOT
HETATM    1  C   UNL     1     -41.516  54.987 -52.643  1.00  0.00     0.257 C 
HETATM    2  N   UNL     1     -42.100  55.588 -53.754  1.00  0.00    -0.299 N 
HETATM    3  O   UNL     1     -41.421  55.461 -51.518  1.00  0.00    -0.267 OA
HETATM    4  H   UNL     1     -41.983  55.101 -54.638  1.00  0.00     0.171 HD
ENDROOT
BRANCH   2   5
HETATM    5  C   UNL     1     -42.764  56.789 -53.911  1.00  0.00     0.180 C 
HETATM    6  S   UNL     1     -44.380  57.012 -54.269  1.00  0.00    -0.040 SA
BRANCH   5   7
HETATM    7  N   UNL     1     -42.003  57.923 -53.746  1.00  0.00    -0.318 N 
HETATM    8  H   UNL     1     -41.586  58.263 -54.603  1.00  0.00     0.170 HD
BRANCH   7   9
HETATM    9  C   UNL     1     -41.752  58.650 -52.573  1.00  0.00     0.129 A 
HETATM   10  N   UNL     1     -42.777  59.257 -51.933  1.00  0.00    -0.243 NA
HETATM   11  C   UNL     1     -42.483  59.950 -50.809  1.00  0.00     0.119 A 
HETATM   12  C   UNL     1     -41.208  60.071 -50.289  1.00  0.00     0.026 A 
HETATM   13  C   UNL     1     -40.158  59.438 -50.952  1.00  0.00    -0.057 A 
HETATM   14  C   UNL     1     -38.747  59.562 -50.459  1.00  0.00     0.048 C 
HETATM   15  C   UNL     1     -40.440  58.718 -52.117  1.00  0.00     0.057 A 
ENDBRANCH   7   9
ENDBRANCH   5   7
ENDBRANCH   2   5
BRANCH   1  16
HETATM   16  C   UNL     1     -40.893  53.663 -52.924  1.00  0.00     0.032 A 
HETATM   17  C   UNL     1     -41.027  53.123 -54.207  1.00  0.00     0.017 A 
HETATM   18  C   UNL     1     -40.508  51.859 -54.492  1.00  0.00     0.007 A 
HETATM   19  C   UNL     1     -39.838  51.128 -53.503  1.00  0.00    -0.062 A 
HETATM   20  C   UNL     1     -39.295  49.759 -53.791  1.00  0.00     0.048 C 
HETATM   21  C   UNL     1     -39.677  51.688 -52.229  1.00  0.00     0.007 A 
HETATM   22  C   UNL     1     -40.197  52.951 -51.939  1.00  0.00     0.017 A 
ENDBRANCH   1  16
TORSDOF 4
ENDMDL
MODEL 6
REMARK VINA RESULT:      -7.2      2.116      3.021
REMARK  4 active torsions:
REMARK  status: ('A' for Active; 'I' for Inactive)
REMARK    1  A    between atoms: C_5  and  C_6 
REMARK       I    between atoms: C_6  and  N_7 
REMARK    2  A    between atoms: N_7  and  C_8 
REMARK    3  A    between atoms: C_8  and  N_9 
REMARK    4  A    between atoms: N_9  and  C_10 
ROOT
HETATM    1  C   UNL     1     -40.962  54.730 -51.683  1.00  0.00     0.257 C 
HETATM    2  N   UNL     1     -41.326  55.745 -52.562  1.00  0.00    -0.299 N 
HETATM    3  O   UNL     1     -40.916  54.800 -50.461  1.00  0.00    -0.267 OA
HETATM    4  H   UNL     1     -41.191  55.549 -53.550  1.00  0.00     0.171 HD
ENDROOT
BRANCH   2   5
HETATM    5  C   UNL     1     -41.779  57.032 -52.350  1.00  0.00     0.180 C 
HETATM    6  S   UNL     1     -41.496  57.997 -51.015  1.00  0.00    -0.040 SA
BRANCH   5   7
HETATM    7  N   UNL     1     -42.541  57.577 -53.358  1.00  0.00    -0.318 N 
HETATM    8  H   UNL     1     -43.089  58.376 -53.069  1.00  0.00     0.170 HD
BRANCH   7   9
HETATM    9  C   UNL     1     -42.639  57.178 -54.699  1.00  0.00     0.129 A 
HETATM   10  N   UNL     1     -42.977  55.901 -54.991  1.00  0.00    -0.243 NA
HETATM   11  C   UNL     1     -43.055  55.564 -56.299  1.00  0.00     0.119 A 
HETATM   12  C   UNL     1     -42.807  56.442 -57.338  1.00  0.00     0.026 A 
HETATM   13  C   UNL     1     -42.464  57.757 -57.028  1.00  0.00    -0.057 A 
HETATM   14  C   UNL     1     -42.147  58.747 -58.108  1.00  0.00     0.048 C 
HETATM   15  C   UNL     1     -42.377  58.126 -55.682  1.00  0.00     0.057 A 
ENDBRANCH   7   9
ENDBRANCH   5   7
ENDBRANCH   2   5
BRANCH   1  16
HETATM   16  C   UNL     1     -40.521  53.474 -52.352  1.00  0.00     0.032 A 
HETATM   17  C   UNL     1     -40.807  53.307 -53.710  1.00  0.00     0.017 A 
HETATM   18  C   UNL     1     -40.462  52.119 -54.357  1.00  0.00     0.007 A 
HETATM   19  C   UNL     1     -39.816  51.092 -53.657  1.00  0.00    -0.062 A 
HETATM   20  C   UNL     1     -39.460  49.802 -54.337  1.00  0.00     0.048 C 
HETATM   21  C   UNL     1     -39.502  51.278 -52.305  1.00  0.00     0.007 A 
HETATM   22  C   UNL     1     -39.847  52.464 -51.653  1.00  0.00     0.017 A 
ENDBRANCH   1  16
TORSDOF 4
ENDMDL
MODEL 7
REMARK VINA RESULT:      -7.0      1.659      2.187
REMARK  4 active torsions:
REMARK  status: ('A' for Active; 'I' for Inactive)
REMARK    1  A    between atoms: C_5  and  C_6 
REMARK       I    between atoms: C_6  and  N_7 
REMARK    2  A    between atoms: N_7  and  C_8 
REMARK    3  A    between atoms: C_8  and  N_9 
REMARK    4  A    between atoms: N_9  and  C_10 
ROOT
HETATM    1  C   UNL     1     -42.108  56.033 -53.615  1.00  0.00     0.257 C 
HETATM    2  N   UNL     1     -41.770  56.851 -54.690  1.00  0.00    -0.299 N 
HETATM    3  O   UNL     1     -42.879  56.304 -52.703  1.00  0.00    -0.267 OA
HETATM    4  H   UNL     1     -41.022  56.513 -55.289  1.00  0.00     0.171 HD
ENDROOT
BRANCH   2   5
HETATM    5  C   UNL     1     -42.211  58.102 -55.073  1.00  0.00     0.180 C 
HETATM    6  S   UNL     1     -41.821  59.569 -54.374  1.00  0.00    -0.040 SA
BRANCH   5   7
HETATM    7  N   UNL     1     -43.059  58.136 -56.155  1.00  0.00    -0.318 N 
HETATM    8  H   UNL     1     -43.946  58.581 -55.964  1.00  0.00     0.170 HD
BRANCH   7   9
HETATM    9  C   UNL     1     -42.845  57.654 -57.455  1.00  0.00     0.129 A 
HETATM   10  N   UNL     1     -41.987  58.303 -58.274  1.00  0.00    -0.243 NA
HETATM   11  C   UNL     1     -41.819  57.802 -59.519  1.00  0.00     0.119 A 
HETATM   12  C   UNL     1     -42.471  56.678 -59.993  1.00  0.00     0.026 A 
HETATM   13  C   UNL     1     -43.350  56.012 -59.140  1.00  0.00    -0.057 A 
HETATM   14  C   UNL     1     -44.115  54.810 -59.606  1.00  0.00     0.048 C 
HETATM   15  C   UNL     1     -43.539  56.515 -57.849  1.00  0.00     0.057 A 
ENDBRANCH   7   9
ENDBRANCH   5   7
ENDBRANCH   2   5
BRANCH   1  16
HETATM   16  C   UNL     1     -41.373  54.737 -53.581  1.00  0.00     0.032 A 
HETATM   17  C   UNL     1     -40.891  54.214 -54.784  1.00  0.00     0.017 A 
HETATM   18  C   UNL     1     -40.249  52.973 -54.800  1.00  0.00     0.007 A 
HETATM   19  C   UNL     1     -40.071  52.252 -53.613  1.00  0.00    -0.062 A 
HETATM   20  C   UNL     1     -39.402  50.909 -53.621  1.00  0.00     0.048 C 
HETATM   21  C   UNL     1     -40.526  52.797 -52.406  1.00  0.00     0.007 A 
HETATM   22  C   UNL     1     -41.171  54.036 -52.386  1.00  0.00     0.017 A 
ENDBRANCH   1  16
TORSDOF 4
ENDMDL
MODEL 8
REMARK VINA RESULT:      -6.9     13.937     15.704
REMARK  4 active torsions:
REMARK  status: ('A' for Active; 'I' for Inactive)
REMARK    1  A    between atoms: C_5  and  C_6 
REMARK       I    between atoms: C_6  and  N_7 
REMARK    2  A    between atoms: N_7  and  C_8 
REMARK    3  A    between atoms: C_8  and  N_9 
REMARK    4  A    between atoms: N_9  and  C_10 
ROOT
HETATM    1  C   UNL     1     -34.756  41.503 -55.159  1.00  0.00     0.257 C 
HETATM    2  N   UNL     1     -35.780  40.773 -54.564  1.00  0.00    -0.299 N 
HETATM    3  O   UNL     1     -34.834  42.635 -55.620  1.00  0.00    -0.267 OA
HETATM    4  H   UNL     1     -35.568  39.804 -54.346  1.00  0.00     0.171 HD
ENDROOT
BRANCH   2   5
HETATM    5  C   UNL     1     -37.091  41.093 -54.268  1.00  0.00     0.180 C 
HETATM    6  S   UNL     1     -37.831  41.048 -52.771  1.00  0.00    -0.040 SA
BRANCH   5   7
HETATM    7  N   UNL     1     -37.865  41.501 -55.330  1.00  0.00    -0.318 N 
HETATM    8  H   UNL     1     -38.528  42.228 -55.096  1.00  0.00     0.170 HD
BRANCH   7   9
HETATM    9  C   UNL     1     -37.840  41.053 -56.660  1.00  0.00     0.129 A 
HETATM   10  N   UNL     1     -38.038  39.742 -56.924  1.00  0.00    -0.243 NA
HETATM   11  C   UNL     1     -38.001  39.359 -58.221  1.00  0.00     0.119 A 
HETATM   12  C   UNL     1     -37.772  40.224 -59.275  1.00  0.00     0.026 A 
HETATM   13  C   UNL     1     -37.574  41.575 -58.993  1.00  0.00    -0.057 A 
HETATM   14  C   UNL     1     -37.284  42.558 -60.088  1.00  0.00     0.048 C 
HETATM   15  C   UNL     1     -37.607  41.992 -57.658  1.00  0.00     0.057 A 
ENDBRANCH   7   9
ENDBRANCH   5   7
ENDBRANCH   2   5
BRANCH   1  16
HETATM   16  C   UNL     1     -33.473  40.757 -55.289  1.00  0.00     0.032 A 
HETATM   17  C   UNL     1     -32.963  40.527 -56.569  1.00  0.00     0.017 A 
HETATM   18  C   UNL     1     -31.793  39.781 -56.734  1.00  0.00     0.007 A 
HETATM   19  C   UNL     1     -31.115  39.271 -55.620  1.00  0.00    -0.062 A 
HETATM   20  C   UNL     1     -29.870  38.450 -55.786  1.00  0.00     0.048 C 
HETATM   21  C   UNL     1     -31.612  39.533 -54.337  1.00  0.00     0.007 A 
HETATM   22  C   UNL     1     -32.783  40.276 -54.168  1.00  0.00     0.017 A 
ENDBRANCH   1  16
TORSDOF 4
ENDMDL
MODEL 9
REMARK VINA RESULT:      -6.9      3.506      5.379
REMARK  4 active torsions:
REMARK  status: ('A' for Active; 'I' for Inactive)
REMARK    1  A    between atoms: C_5  and  C_6 
REMARK       I    between atoms: C_6  and  N_7 
REMARK    2  A    between atoms: N_7  and  C_8 
REMARK    3  A    between atoms: C_8  and  N_9 
REMARK    4  A    between atoms: N_9  and  C_10 
ROOT
HETATM    1  C   UNL     1     -42.464  56.253 -54.016  1.00  0.00     0.257 C 
HETATM    2  N   UNL     1     -41.895  57.171 -54.893  1.00  0.00    -0.299 N 
HETATM    3  O   UNL     1     -43.457  56.424 -53.320  1.00  0.00    -0.267 OA
HETATM    4  H   UNL     1     -41.003  56.904 -55.300  1.00  0.00     0.171 HD
ENDROOT
BRANCH   2   5
HETATM    5  C   UNL     1     -42.275  58.443 -55.275  1.00  0.00     0.180 C 
HETATM    6  S   UNL     1     -43.353  58.857 -56.482  1.00  0.00    -0.040 SA
BRANCH   5   7
HETATM    7  N   UNL     1     -41.703  59.478 -54.572  1.00  0.00    -0.318 N 
HETATM    8  H   UNL     1     -41.496  60.290 -55.139  1.00  0.00     0.170 HD
BRANCH   7   9
HETATM    9  C   UNL     1     -41.391  59.547 -53.206  1.00  0.00     0.129 A 
HETATM   10  N   UNL     1     -40.224  59.026 -52.763  1.00  0.00    -0.243 NA
HETATM   11  C   UNL     1     -39.970  59.113 -51.437  1.00  0.00     0.119 A 
HETATM   12  C   UNL     1     -40.830  59.697 -50.524  1.00  0.00     0.026 A 
HETATM   13  C   UNL     1     -42.027  60.236 -50.990  1.00  0.00    -0.057 A 
HETATM   14  C   UNL     1     -43.018  60.849 -50.046  1.00  0.00     0.048 C 
HETATM   15  C   UNL     1     -42.310  60.155 -52.358  1.00  0.00     0.057 A 
ENDBRANCH   7   9
ENDBRANCH   5   7
ENDBRANCH   2   5
BRANCH   1  16
HETATM   16  C   UNL     1     -41.709  54.975 -53.897  1.00  0.00     0.032 A 
HETATM   17  C   UNL     1     -41.709  54.314 -52.666  1.00  0.00     0.017 A 
HETATM   18  C   UNL     1     -40.965  53.143 -52.499  1.00  0.00     0.007 A 
HETATM   19  C   UNL     1     -40.225  52.616 -53.564  1.00  0.00    -0.062 A 
HETATM   20  C   UNL     1     -39.405  51.372 -53.391  1.00  0.00     0.048 C 
HETATM   21  C   UNL     1     -40.256  53.263 -54.806  1.00  0.00     0.007 A 
HETATM   22  C   UNL     1     -40.997  54.436 -54.976  1.00  0.00     0.017 A 
ENDBRANCH   1  16
TORSDOF 4
ENDMDL
MODEL 10
REMARK VINA RESULT:      -6.7      2.001      7.905
REMARK  4 active torsions:
REMARK  status: ('A' for Active; 'I' for Inactive)
REMARK    1  A    between atoms: C_5  and  C_6 
REMARK       I    between atoms: C_6  and  N_7 
REMARK    2  A    between atoms: N_7  and  C_8 
REMARK    3  A    between atoms: C_8  and  N_9 
REMARK    4  A    between atoms: N_9  and  C_10 
ROOT
HETATM    1  C   UNL     1     -42.724  56.473 -57.834  1.00  0.00     0.257 C 
HETATM    2  N   UNL     1     -42.154  56.327 -56.573  1.00  0.00    -0.299 N 
HETATM    3  O   UNL     1     -43.367  55.632 -58.449  1.00  0.00    -0.267 OA
HETATM    4  H   UNL     1     -41.553  57.087 -56.265  1.00  0.00     0.171 HD
ENDROOT
BRANCH   2   5
HETATM    5  C   UNL     1     -42.184  55.292 -55.660  1.00  0.00     0.180 C 
HETATM    6  S   UNL     1     -43.507  54.736 -54.804  1.00  0.00    -0.040 SA
BRANCH   5   7
HETATM    7  N   UNL     1     -40.990  54.646 -55.442  1.00  0.00    -0.318 N 
HETATM    8  H   UNL     1     -40.293  54.825 -56.153  1.00  0.00     0.170 HD
BRANCH   7   9
HETATM    9  C   UNL     1     -40.626  53.804 -54.380  1.00  0.00     0.129 A 
HETATM   10  N   UNL     1     -40.594  54.296 -53.121  1.00  0.00    -0.243 NA
HETATM   11  C   UNL     1     -40.233  53.446 -52.132  1.00  0.00     0.119 A 
HETATM   12  C   UNL     1     -39.897  52.120 -52.339  1.00  0.00     0.026 A 
HETATM   13  C   UNL     1     -39.937  51.620 -53.640  1.00  0.00    -0.057 A 
HETATM   14  C   UNL     1     -39.549  50.203 -53.935  1.00  0.00     0.048 C 
HETATM   15  C   UNL     1     -40.307  52.483 -54.677  1.00  0.00     0.057 A 
ENDBRANCH   7   9
ENDBRANCH   5   7
ENDBRANCH   2   5
BRANCH   1  16
HETATM   16  C   UNL     1     -42.432  57.780 -58.487  1.00  0.00     0.032 A 
HETATM   17  C   UNL     1     -42.444  57.843 -59.884  1.00  0.00     0.017 A 
HETATM   18  C   UNL     1     -42.117  59.035 -60.533  1.00  0.00     0.007 A 
HETATM   19  C   UNL     1     -41.789  60.178 -59.794  1.00  0.00    -0.062 A 
HETATM   20  C   UNL     1     -41.416  61.459 -60.481  1.00  0.00     0.048 C 
HETATM   21  C   UNL     1     -41.812  60.119 -58.395  1.00  0.00     0.007 A 
HETATM   22  C   UNL     1     -42.136  58.927 -57.741  1.00  0.00     0.017 A 
ENDBRANCH   1  16
TORSDOF 4
ENDMDL
