MODEL 1
REMARK VINA RESULT:      -8.1      0.000      0.000
REMARK  4 active torsions:
REMARK  status: ('A' for Active; 'I' for Inactive)
REMARK    1  A    between atoms: C_3  and  C_4 
REMARK    2  A    between atoms: C_9  and  N_10 
REMARK       I    between atoms: N_10  and  C_11 
REMARK    3  A    between atoms: C_11  and  C_12 
REMARK    4  A    between atoms: C_16  and  C_17 
ROOT
HETATM    1  N   UNL     1     -42.594  56.942 -52.408  1.00  0.00    -0.322 N 
HETATM    2  C   UNL     1     -42.228  56.810 -53.733  1.00  0.00     0.276 C 
HETATM    3  O   UNL     1     -42.499  57.576 -54.651  1.00  0.00    -0.266 OA
HETATM    4  H   UNL     1     -42.262  56.175 -51.825  1.00  0.00     0.169 HD
ENDROOT
BRANCH   2   5
HETATM    5  C   UNL     1     -41.477  55.562 -53.966  1.00  0.00     0.147 A 
HETATM    6  N   UNL     1     -40.526  55.466 -54.916  1.00  0.00    -0.169 NA
HETATM    7  N   UNL     1     -40.062  54.211 -54.780  1.00  0.00    -0.277 N 
HETATM    8  H   UNL     1     -39.339  53.902 -55.418  1.00  0.00     0.189 HD
HETATM    9  C   UNL     1     -40.627  53.498 -53.751  1.00  0.00     0.063 A 
HETATM   10  C   UNL     1     -41.585  54.353 -53.237  1.00  0.00     0.071 A 
BRANCH   9  11
HETATM   11  C   UNL     1     -40.221  52.144 -53.356  1.00  0.00    -0.008 A 
HETATM   12  C   UNL     1     -39.848  51.837 -52.037  1.00  0.00     0.014 A 
HETATM   13  C   UNL     1     -39.494  50.534 -51.674  1.00  0.00     0.001 A 
HETATM   14  C   UNL     1     -39.509  49.514 -52.621  1.00  0.00     0.000 A 
HETATM   15  C   UNL     1     -39.875  49.798 -53.933  1.00  0.00     0.001 A 
HETATM   16  C   UNL     1     -40.226  51.102 -54.296  1.00  0.00     0.014 A 
ENDBRANCH   9  11
ENDBRANCH   2   5
BRANCH   1  17
HETATM   17  C   UNL     1     -43.430  57.906 -51.826  1.00  0.00     0.035 A 
HETATM   18  C   UNL     1     -44.788  57.712 -51.586  1.00  0.00     0.030 A 
HETATM   19  C   UNL     1     -45.544  58.706 -50.956  1.00  0.00     0.018 A 
HETATM   20  C   UNL     1     -44.948  59.908 -50.550  1.00  0.00     0.015 A 
HETATM   21  C   UNL     1     -43.579  60.126 -50.796  1.00  0.00    -0.046 A 
HETATM   22  C   UNL     1     -42.878  61.393 -50.390  1.00  0.00     0.049 C 
HETATM   23  C   UNL     1     -42.840  59.119 -51.446  1.00  0.00     0.037 A 
BRANCH  20  24
HETATM   24  C   UNL     1     -45.789  60.930 -49.864  1.00  0.00     0.156 C 
HETATM   25  C   UNL     1     -46.424  62.007 -50.706  1.00  0.00     0.097 C 
HETATM   26  O   UNL     1     -45.942  60.898 -48.646  1.00  0.00    -0.293 OA
ENDBRANCH  20  24
ENDBRANCH   1  17
TORSDOF 4
ENDMDL
MODEL 2
REMARK VINA RESULT:      -8.1      1.068      1.986
REMARK  4 active torsions:
REMARK  status: ('A' for Active; 'I' for Inactive)
REMARK    1  A    between atoms: C_3  and  C_4 
REMARK    2  A    between atoms: C_9  and  N_10 
REMARK       I    between atoms: N_10  and  C_11 
REMARK    3  A    between atoms: C_11  and  C_12 
REMARK    4  A    between atoms: C_16  and  C_17 
ROOT
HETATM    1  N   UNL     1     -41.747  57.257 -52.147  1.00  0.00    -0.322 N 
HETATM    2  C   UNL     1     -41.382  57.136 -53.474  1.00  0.00     0.276 C 
HETATM    3  O   UNL     1     -41.416  58.014 -54.329  1.00  0.00    -0.266 OA
HETATM    4  H   UNL     1     -41.641  56.389 -51.624  1.00  0.00     0.169 HD
ENDROOT
BRANCH   2   5
HETATM    5  C   UNL     1     -40.969  55.758 -53.798  1.00  0.00     0.147 A 
HETATM    6  N   UNL     1     -40.422  55.436 -54.987  1.00  0.00    -0.169 NA
HETATM    7  N   UNL     1     -40.152  54.123 -54.871  1.00  0.00    -0.277 N 
HETATM    8  H   UNL     1     -39.746  53.652 -55.670  1.00  0.00     0.189 HD
HETATM    9  C   UNL     1     -40.446  53.582 -53.644  1.00  0.00     0.063 A 
HETATM   10  C   UNL     1     -41.022  54.628 -52.946  1.00  0.00     0.071 A 
BRANCH   9  11
HETATM   11  C   UNL     1     -40.159  52.196 -53.255  1.00  0.00    -0.008 A 
HETATM   12  C   UNL     1     -40.178  51.146 -54.188  1.00  0.00     0.014 A 
HETATM   13  C   UNL     1     -39.872  49.837 -53.804  1.00  0.00     0.001 A 
HETATM   14  C   UNL     1     -39.537  49.555 -52.482  1.00  0.00     0.000 A 
HETATM   15  C   UNL     1     -39.513  50.581 -51.544  1.00  0.00     0.001 A 
HETATM   16  C   UNL     1     -39.822  51.890 -51.928  1.00  0.00     0.014 A 
ENDBRANCH   9  11
ENDBRANCH   2   5
BRANCH   1  17
HETATM   17  C   UNL     1     -42.326  58.358 -51.498  1.00  0.00     0.035 A 
HETATM   18  C   UNL     1     -41.592  59.376 -50.893  1.00  0.00     0.030 A 
HETATM   19  C   UNL     1     -42.245  60.465 -50.308  1.00  0.00     0.018 A 
HETATM   20  C   UNL     1     -43.643  60.556 -50.328  1.00  0.00     0.015 A 
HETATM   21  C   UNL     1     -44.401  59.531 -50.924  1.00  0.00    -0.046 A 
HETATM   22  C   UNL     1     -45.904  59.563 -50.976  1.00  0.00     0.049 C 
HETATM   23  C   UNL     1     -43.726  58.434 -51.493  1.00  0.00     0.037 A 
BRANCH  20  24
HETATM   24  C   UNL     1     -44.293  61.746 -49.709  1.00  0.00     0.156 C 
HETATM   25  C   UNL     1     -44.686  61.667 -48.256  1.00  0.00     0.097 C 
HETATM   26  O   UNL     1     -44.515  62.754 -50.376  1.00  0.00    -0.293 OA
ENDBRANCH  20  24
ENDBRANCH   1  17
TORSDOF 4
ENDMDL
MODEL 3
REMARK VINA RESULT:      -7.7      5.853      9.113
REMARK  4 active torsions:
REMARK  status: ('A' for Active; 'I' for Inactive)
REMARK    1  A    between atoms: C_3  and  C_4 
REMARK    2  A    between atoms: C_9  and  N_10 
REMARK       I    between atoms: N_10  and  C_11 
REMARK    3  A    between atoms: C_11  and  C_12 
REMARK    4  A    between atoms: C_16  and  C_17 
ROOT
HETATM    1  N   UNL     1     -43.006  54.913 -56.666  1.00  0.00    -0.322 N 
HETATM    2  C   UNL     1     -42.996  56.116 -57.344  1.00  0.00     0.276 C 
HETATM    3  O   UNL     1     -42.332  57.110 -57.068  1.00  0.00    -0.266 OA
HETATM    4  H   UNL     1     -43.644  54.232 -57.074  1.00  0.00     0.169 HD
ENDROOT
BRANCH   2   5
HETATM    5  C   UNL     1     -43.951  56.113 -58.467  1.00  0.00     0.147 A 
HETATM    6  N   UNL     1     -44.113  55.040 -59.267  1.00  0.00    -0.169 NA
HETATM    7  N   UNL     1     -45.082  55.418 -60.119  1.00  0.00    -0.277 N 
HETATM    8  H   UNL     1     -45.361  54.762 -60.838  1.00  0.00     0.189 HD
HETATM    9  C   UNL     1     -45.601  56.667 -59.882  1.00  0.00     0.063 A 
HETATM   10  C   UNL     1     -44.841  57.152 -58.833  1.00  0.00     0.071 A 
BRANCH   9  11
HETATM   11  C   UNL     1     -46.722  57.257 -60.624  1.00  0.00    -0.008 A 
HETATM   12  C   UNL     1     -47.002  58.632 -60.573  1.00  0.00     0.014 A 
HETATM   13  C   UNL     1     -48.057  59.179 -61.311  1.00  0.00     0.001 A 
HETATM   14  C   UNL     1     -48.847  58.362 -62.116  1.00  0.00     0.000 A 
HETATM   15  C   UNL     1     -48.585  56.997 -62.179  1.00  0.00     0.001 A 
HETATM   16  C   UNL     1     -47.532  56.450 -61.438  1.00  0.00     0.014 A 
ENDBRANCH   9  11
ENDBRANCH   2   5
BRANCH   1  17
HETATM   17  C   UNL     1     -42.352  54.579 -55.471  1.00  0.00     0.035 A 
HETATM   18  C   UNL     1     -40.977  54.386 -55.367  1.00  0.00     0.030 A 
HETATM   19  C   UNL     1     -40.395  54.102 -54.127  1.00  0.00     0.018 A 
HETATM   20  C   UNL     1     -41.182  54.016 -52.971  1.00  0.00     0.015 A 
HETATM   21  C   UNL     1     -42.575  54.196 -53.060  1.00  0.00    -0.046 A 
HETATM   22  C   UNL     1     -43.478  54.112 -51.860  1.00  0.00     0.049 C 
HETATM   23  C   UNL     1     -43.144  54.464 -54.319  1.00  0.00     0.037 A 
BRANCH  20  24
HETATM   24  C   UNL     1     -40.514  53.731 -51.668  1.00  0.00     0.156 C 
HETATM   25  C   UNL     1     -39.964  52.347 -51.440  1.00  0.00     0.097 C 
HETATM   26  O   UNL     1     -40.434  54.601 -50.805  1.00  0.00    -0.293 OA
ENDBRANCH  20  24
ENDBRANCH   1  17
TORSDOF 4
ENDMDL
MODEL 4
REMARK VINA RESULT:      -7.6      1.635      2.039
REMARK  4 active torsions:
REMARK  status: ('A' for Active; 'I' for Inactive)
REMARK    1  A    between atoms: C_3  and  C_4 
REMARK    2  A    between atoms: C_9  and  N_10 
REMARK       I    between atoms: N_10  and  C_11 
REMARK    3  A    between atoms: C_11  and  C_12 
REMARK    4  A    between atoms: C_16  and  C_17 
ROOT
HETATM    1  N   UNL     1     -43.281  56.877 -52.771  1.00  0.00    -0.322 N 
HETATM    2  C   UNL     1     -41.901  56.901 -52.721  1.00  0.00     0.276 C 
HETATM    3  O   UNL     1     -41.195  57.833 -52.351  1.00  0.00    -0.266 OA
HETATM    4  H   UNL     1     -43.651  55.995 -53.122  1.00  0.00     0.169 HD
ENDROOT
BRANCH   2   5
HETATM    5  C   UNL     1     -41.318  55.646 -53.230  1.00  0.00     0.147 A 
HETATM    6  N   UNL     1     -40.606  55.599 -54.374  1.00  0.00    -0.169 NA
HETATM    7  N   UNL     1     -40.223  54.313 -54.461  1.00  0.00    -0.277 N 
HETATM    8  H   UNL     1     -39.681  54.036 -55.270  1.00  0.00     0.189 HD
HETATM    9  C   UNL     1     -40.604  53.527 -53.401  1.00  0.00     0.063 A 
HETATM   10  C   UNL     1     -41.359  54.373 -52.610  1.00  0.00     0.071 A 
BRANCH   9  11
HETATM   11  C   UNL     1     -40.228  52.118 -53.234  1.00  0.00    -0.008 A 
HETATM   12  C   UNL     1     -40.216  51.221 -54.315  1.00  0.00     0.014 A 
HETATM   13  C   UNL     1     -39.825  49.889 -54.140  1.00  0.00     0.001 A 
HETATM   14  C   UNL     1     -39.437  49.432 -52.884  1.00  0.00     0.000 A 
HETATM   15  C   UNL     1     -39.443  50.305 -51.801  1.00  0.00     0.001 A 
HETATM   16  C   UNL     1     -39.836  51.636 -51.975  1.00  0.00     0.014 A 
ENDBRANCH   9  11
ENDBRANCH   2   5
BRANCH   1  17
HETATM   17  C   UNL     1     -44.182  57.921 -52.515  1.00  0.00     0.035 A 
HETATM   18  C   UNL     1     -44.892  58.057 -51.324  1.00  0.00     0.030 A 
HETATM   19  C   UNL     1     -45.736  59.154 -51.127  1.00  0.00     0.018 A 
HETATM   20  C   UNL     1     -45.876  60.136 -52.117  1.00  0.00     0.015 A 
HETATM   21  C   UNL     1     -45.176  60.008 -53.331  1.00  0.00    -0.046 A 
HETATM   22  C   UNL     1     -45.284  61.022 -54.436  1.00  0.00     0.049 C 
HETATM   23  C   UNL     1     -44.344  58.888 -53.517  1.00  0.00     0.037 A 
BRANCH  20  24
HETATM   24  C   UNL     1     -46.773  61.298 -51.853  1.00  0.00     0.156 C 
HETATM   25  C   UNL     1     -46.325  62.326 -50.845  1.00  0.00     0.097 C 
HETATM   26  O   UNL     1     -47.851  61.399 -52.432  1.00  0.00    -0.293 OA
ENDBRANCH  20  24
ENDBRANCH   1  17
TORSDOF 4
ENDMDL
MODEL 5
REMARK VINA RESULT:      -7.6      3.951      5.635
REMARK  4 active torsions:
REMARK  status: ('A' for Active; 'I' for Inactive)
REMARK    1  A    between atoms: C_3  and  C_4 
REMARK    2  A    between atoms: C_9  and  N_10 
REMARK       I    between atoms: N_10  and  C_11 
REMARK    3  A    between atoms: C_11  and  C_12 
REMARK    4  A    between atoms: C_16  and  C_17 
ROOT
HETATM    1  N   UNL     1     -42.643  56.387 -55.637  1.00  0.00    -0.322 N 
HETATM    2  C   UNL     1     -41.819  56.791 -54.604  1.00  0.00     0.276 C 
HETATM    3  O   UNL     1     -41.486  57.940 -54.337  1.00  0.00    -0.266 OA
HETATM    4  H   UNL     1     -42.773  55.377 -55.670  1.00  0.00     0.169 HD
ENDROOT
BRANCH   2   5
HETATM    5  C   UNL     1     -41.307  55.641 -53.837  1.00  0.00     0.147 A 
HETATM    6  N   UNL     1     -41.201  55.667 -52.493  1.00  0.00    -0.169 NA
HETATM    7  N   UNL     1     -40.746  54.439 -52.184  1.00  0.00    -0.277 N 
HETATM    8  H   UNL     1     -40.569  54.233 -51.209  1.00  0.00     0.189 HD
HETATM    9  C   UNL     1     -40.601  53.593 -53.256  1.00  0.00     0.063 A 
HETATM   10  C   UNL     1     -40.922  54.377 -54.348  1.00  0.00     0.071 A 
BRANCH   9  11
HETATM   11  C   UNL     1     -40.204  52.183 -53.155  1.00  0.00    -0.008 A 
HETATM   12  C   UNL     1     -39.785  51.617 -51.939  1.00  0.00     0.014 A 
HETATM   13  C   UNL     1     -39.440  50.264 -51.857  1.00  0.00     0.001 A 
HETATM   14  C   UNL     1     -39.512  49.453 -52.987  1.00  0.00     0.000 A 
HETATM   15  C   UNL     1     -39.924  49.996 -54.199  1.00  0.00     0.001 A 
HETATM   16  C   UNL     1     -40.266  51.349 -54.282  1.00  0.00     0.014 A 
ENDBRANCH   9  11
ENDBRANCH   2   5
BRANCH   1  17
HETATM   17  C   UNL     1     -43.200  57.163 -56.664  1.00  0.00     0.035 A 
HETATM   18  C   UNL     1     -44.356  57.927 -56.518  1.00  0.00     0.030 A 
HETATM   19  C   UNL     1     -44.822  58.713 -57.576  1.00  0.00     0.018 A 
HETATM   20  C   UNL     1     -44.132  58.751 -58.796  1.00  0.00     0.015 A 
HETATM   21  C   UNL     1     -42.970  57.975 -58.965  1.00  0.00    -0.046 A 
HETATM   22  C   UNL     1     -42.185  57.966 -60.248  1.00  0.00     0.049 C 
HETATM   23  C   UNL     1     -42.527  57.178 -57.893  1.00  0.00     0.037 A 
BRANCH  20  24
HETATM   24  C   UNL     1     -44.656  59.619 -59.889  1.00  0.00     0.156 C 
HETATM   25  C   UNL     1     -44.187  61.050 -59.946  1.00  0.00     0.097 C 
HETATM   26  O   UNL     1     -45.460  59.177 -60.706  1.00  0.00    -0.293 OA
ENDBRANCH  20  24
ENDBRANCH   1  17
TORSDOF 4
ENDMDL
MODEL 6
REMARK VINA RESULT:      -7.5     16.598     19.068
REMARK  4 active torsions:
REMARK  status: ('A' for Active; 'I' for Inactive)
REMARK    1  A    between atoms: C_3  and  C_4 
REMARK    2  A    between atoms: C_9  and  N_10 
REMARK       I    between atoms: N_10  and  C_11 
REMARK    3  A    between atoms: C_11  and  C_12 
REMARK    4  A    between atoms: C_16  and  C_17 
ROOT
HETATM    1  N   UNL     1     -34.408  40.150 -51.643  1.00  0.00    -0.322 N 
HETATM    2  C   UNL     1     -34.894  41.415 -51.907  1.00  0.00     0.276 C 
HETATM    3  O   UNL     1     -34.616  42.449 -51.308  1.00  0.00    -0.266 OA
HETATM    4  H   UNL     1     -34.788  39.440 -52.267  1.00  0.00     0.169 HD
ENDROOT
BRANCH   2   5
HETATM    5  C   UNL     1     -35.873  41.402 -53.008  1.00  0.00     0.147 A 
HETATM    6  N   UNL     1     -37.177  41.683 -52.811  1.00  0.00    -0.169 NA
HETATM    7  N   UNL     1     -37.712  41.607 -54.042  1.00  0.00    -0.277 N 
HETATM    8  H   UNL     1     -38.708  41.765 -54.135  1.00  0.00     0.189 HD
HETATM    9  C   UNL     1     -36.811  41.343 -55.045  1.00  0.00     0.063 A 
HETATM   10  C   UNL     1     -35.612  41.162 -54.380  1.00  0.00     0.071 A 
BRANCH   9  11
HETATM   11  C   UNL     1     -37.146  41.301 -56.473  1.00  0.00    -0.008 A 
HETATM   12  C   UNL     1     -36.516  42.140 -57.407  1.00  0.00     0.014 A 
HETATM   13  C   UNL     1     -36.828  42.063 -58.769  1.00  0.00     0.001 A 
HETATM   14  C   UNL     1     -37.770  41.143 -59.221  1.00  0.00     0.000 A 
HETATM   15  C   UNL     1     -38.404  40.303 -58.311  1.00  0.00     0.001 A 
HETATM   16  C   UNL     1     -38.095  40.382 -56.950  1.00  0.00     0.014 A 
ENDBRANCH   9  11
ENDBRANCH   2   5
BRANCH   1  17
HETATM   17  C   UNL     1     -33.580  39.734 -50.590  1.00  0.00     0.035 A 
HETATM   18  C   UNL     1     -32.228  40.057 -50.493  1.00  0.00     0.030 A 
HETATM   19  C   UNL     1     -31.481  39.644 -49.386  1.00  0.00     0.018 A 
HETATM   20  C   UNL     1     -32.079  38.909 -48.353  1.00  0.00     0.015 A 
HETATM   21  C   UNL     1     -33.440  38.563 -48.441  1.00  0.00    -0.046 A 
HETATM   22  C   UNL     1     -34.143  37.772 -47.372  1.00  0.00     0.049 C 
HETATM   23  C   UNL     1     -34.171  38.974 -49.572  1.00  0.00     0.037 A 
BRANCH  20  24
HETATM   24  C   UNL     1     -31.246  38.508 -47.183  1.00  0.00     0.156 C 
HETATM   25  C   UNL     1     -30.906  39.561 -46.160  1.00  0.00     0.097 C 
HETATM   26  O   UNL     1     -30.839  37.354 -47.072  1.00  0.00    -0.293 OA
ENDBRANCH  20  24
ENDBRANCH   1  17
TORSDOF 4
ENDMDL
MODEL 7
REMARK VINA RESULT:      -7.5      4.983      6.761
REMARK  4 active torsions:
REMARK  status: ('A' for Active; 'I' for Inactive)
REMARK    1  A    between atoms: C_3  and  C_4 
REMARK    2  A    between atoms: C_9  and  N_10 
REMARK       I    between atoms: N_10  and  C_11 
REMARK    3  A    between atoms: C_11  and  C_12 
REMARK    4  A    between atoms: C_16  and  C_17 
ROOT
HETATM    1  N   UNL     1     -42.140  57.234 -57.724  1.00  0.00    -0.322 N 
HETATM    2  C   UNL     1     -42.460  57.278 -56.381  1.00  0.00     0.276 C 
HETATM    3  O   UNL     1     -42.780  58.270 -55.734  1.00  0.00    -0.266 OA
HETATM    4  H   UNL     1     -41.896  56.298 -58.044  1.00  0.00     0.169 HD
ENDROOT
BRANCH   2   5
HETATM    5  C   UNL     1     -42.325  55.954 -55.747  1.00  0.00     0.147 A 
HETATM    6  N   UNL     1     -43.130  54.921 -56.068  1.00  0.00    -0.169 NA
HETATM    7  N   UNL     1     -42.664  53.906 -55.319  1.00  0.00    -0.277 N 
HETATM    8  H   UNL     1     -43.140  53.015 -55.383  1.00  0.00     0.189 HD
HETATM    9  C   UNL     1     -41.558  54.210 -54.564  1.00  0.00     0.063 A 
HETATM   10  C   UNL     1     -41.351  55.557 -54.799  1.00  0.00     0.071 A 
BRANCH   9  11
HETATM   11  C   UNL     1     -40.825  53.244 -53.737  1.00  0.00    -0.008 A 
HETATM   12  C   UNL     1     -40.306  52.053 -54.273  1.00  0.00     0.014 A 
HETATM   13  C   UNL     1     -39.584  51.160 -53.476  1.00  0.00     0.001 A 
HETATM   14  C   UNL     1     -39.363  51.443 -52.130  1.00  0.00     0.000 A 
HETATM   15  C   UNL     1     -39.869  52.617 -51.581  1.00  0.00     0.001 A 
HETATM   16  C   UNL     1     -40.594  53.508 -52.378  1.00  0.00     0.014 A 
ENDBRANCH   9  11
ENDBRANCH   2   5
BRANCH   1  17
HETATM   17  C   UNL     1     -42.009  58.300 -58.626  1.00  0.00     0.035 A 
HETATM   18  C   UNL     1     -42.174  58.175 -60.003  1.00  0.00     0.030 A 
HETATM   19  C   UNL     1     -42.074  59.297 -60.832  1.00  0.00     0.018 A 
HETATM   20  C   UNL     1     -41.815  60.564 -60.291  1.00  0.00     0.015 A 
HETATM   21  C   UNL     1     -41.633  60.707 -58.903  1.00  0.00    -0.046 A 
HETATM   22  C   UNL     1     -41.349  62.035 -58.258  1.00  0.00     0.049 C 
HETATM   23  C   UNL     1     -41.722  59.562 -58.088  1.00  0.00     0.037 A 
BRANCH  20  24
HETATM   24  C   UNL     1     -41.737  61.734 -61.212  1.00  0.00     0.156 C 
HETATM   25  C   UNL     1     -43.016  62.451 -61.559  1.00  0.00     0.097 C 
HETATM   26  O   UNL     1     -40.659  62.087 -61.683  1.00  0.00    -0.293 OA
ENDBRANCH  20  24
ENDBRANCH   1  17
TORSDOF 4
ENDMDL
MODEL 8
REMARK VINA RESULT:      -7.3      1.678      2.290
REMARK  4 active torsions:
REMARK  status: ('A' for Active; 'I' for Inactive)
REMARK    1  A    between atoms: C_3  and  C_4 
REMARK    2  A    between atoms: C_9  and  N_10 
REMARK       I    between atoms: N_10  and  C_11 
REMARK    3  A    between atoms: C_11  and  C_12 
REMARK    4  A    between atoms: C_16  and  C_17 
ROOT
HETATM    1  N   UNL     1     -42.225  58.024 -51.191  1.00  0.00    -0.322 N 
HETATM    2  C   UNL     1     -41.803  57.389 -52.343  1.00  0.00     0.276 C 
HETATM    3  O   UNL     1     -41.877  57.820 -53.488  1.00  0.00    -0.266 OA
HETATM    4  H   UNL     1     -42.069  57.468 -50.351  1.00  0.00     0.169 HD
ENDROOT
BRANCH   2   5
HETATM    5  C   UNL     1     -41.269  56.045 -52.057  1.00  0.00     0.147 A 
HETATM    6  N   UNL     1     -41.013  55.629 -50.800  1.00  0.00    -0.169 NA
HETATM    7  N   UNL     1     -40.590  54.362 -50.962  1.00  0.00    -0.277 N 
HETATM    8  H   UNL     1     -40.316  53.847 -50.134  1.00  0.00     0.189 HD
HETATM    9  C   UNL     1     -40.608  53.911 -52.258  1.00  0.00     0.063 A 
HETATM   10  C   UNL     1     -41.007  55.014 -52.991  1.00  0.00     0.071 A 
BRANCH   9  11
HETATM   11  C   UNL     1     -40.275  52.541 -52.667  1.00  0.00    -0.008 A 
HETATM   12  C   UNL     1     -39.765  51.600 -51.758  1.00  0.00     0.014 A 
HETATM   13  C   UNL     1     -39.482  50.290 -52.160  1.00  0.00     0.001 A 
HETATM   14  C   UNL     1     -39.708  49.898 -53.477  1.00  0.00     0.000 A 
HETATM   15  C   UNL     1     -40.212  50.817 -54.393  1.00  0.00     0.001 A 
HETATM   16  C   UNL     1     -40.492  52.126 -53.990  1.00  0.00     0.014 A 
ENDBRANCH   9  11
ENDBRANCH   2   5
BRANCH   1  17
HETATM   17  C   UNL     1     -42.915  59.239 -51.066  1.00  0.00     0.035 A 
HETATM   18  C   UNL     1     -42.319  60.430 -50.657  1.00  0.00     0.030 A 
HETATM   19  C   UNL     1     -43.065  61.611 -50.604  1.00  0.00     0.018 A 
HETATM   20  C   UNL     1     -44.419  61.619 -50.969  1.00  0.00     0.015 A 
HETATM   21  C   UNL     1     -45.039  60.422 -51.373  1.00  0.00    -0.046 A 
HETATM   22  C   UNL     1     -46.488  60.359 -51.773  1.00  0.00     0.049 C 
HETATM   23  C   UNL     1     -44.275  59.240 -51.403  1.00  0.00     0.037 A 
BRANCH  20  24
HETATM   24  C   UNL     1     -45.168  62.906 -50.916  1.00  0.00     0.156 C 
HETATM   25  C   UNL     1     -45.145  63.793 -52.135  1.00  0.00     0.097 C 
HETATM   26  O   UNL     1     -45.771  63.236 -49.897  1.00  0.00    -0.293 OA
ENDBRANCH  20  24
ENDBRANCH   1  17
TORSDOF 4
ENDMDL
MODEL 9
REMARK VINA RESULT:      -7.3      2.718      9.276
REMARK  4 active torsions:
REMARK  status: ('A' for Active; 'I' for Inactive)
REMARK    1  A    between atoms: C_3  and  C_4 
REMARK    2  A    between atoms: C_9  and  N_10 
REMARK       I    between atoms: N_10  and  C_11 
REMARK    3  A    between atoms: C_11  and  C_12 
REMARK    4  A    between atoms: C_16  and  C_17 
ROOT
HETATM    1  N   UNL     1     -41.670  57.387 -52.758  1.00  0.00    -0.322 N 
HETATM    2  C   UNL     1     -40.923  58.538 -52.913  1.00  0.00     0.276 C 
HETATM    3  O   UNL     1     -39.777  58.619 -53.341  1.00  0.00    -0.266 OA
HETATM    4  H   UNL     1     -42.598  57.563 -52.375  1.00  0.00     0.169 HD
ENDROOT
BRANCH   2   5
HETATM    5  C   UNL     1     -41.658  59.727 -52.444  1.00  0.00     0.147 A 
HETATM    6  N   UNL     1     -42.197  60.619 -53.299  1.00  0.00    -0.169 NA
HETATM    7  N   UNL     1     -42.803  61.510 -52.493  1.00  0.00    -0.277 N 
HETATM    8  H   UNL     1     -43.268  62.298 -52.926  1.00  0.00     0.189 HD
HETATM    9  C   UNL     1     -42.732  61.215 -51.154  1.00  0.00     0.063 A 
HETATM   10  C   UNL     1     -41.949  60.077 -51.103  1.00  0.00     0.071 A 
BRANCH   9  11
HETATM   11  C   UNL     1     -43.389  61.991 -50.096  1.00  0.00    -0.008 A 
HETATM   12  C   UNL     1     -43.270  63.388 -50.018  1.00  0.00     0.014 A 
HETATM   13  C   UNL     1     -43.929  64.112 -49.019  1.00  0.00     0.001 A 
HETATM   14  C   UNL     1     -44.722  63.453 -48.084  1.00  0.00     0.000 A 
HETATM   15  C   UNL     1     -44.853  62.069 -48.144  1.00  0.00     0.001 A 
HETATM   16  C   UNL     1     -44.191  61.346 -49.141  1.00  0.00     0.014 A 
ENDBRANCH   9  11
ENDBRANCH   2   5
BRANCH   1  17
HETATM   17  C   UNL     1     -41.271  56.055 -52.950  1.00  0.00     0.035 A 
HETATM   18  C   UNL     1     -40.819  55.550 -54.167  1.00  0.00     0.030 A 
HETATM   19  C   UNL     1     -40.394  54.221 -54.265  1.00  0.00     0.018 A 
HETATM   20  C   UNL     1     -40.408  53.381 -53.143  1.00  0.00     0.015 A 
HETATM   21  C   UNL     1     -40.873  53.872 -51.910  1.00  0.00    -0.046 A 
HETATM   22  C   UNL     1     -40.919  53.023 -50.669  1.00  0.00     0.049 C 
HETATM   23  C   UNL     1     -41.313  55.207 -51.835  1.00  0.00     0.037 A 
BRANCH  20  24
HETATM   24  C   UNL     1     -39.926  51.978 -53.293  1.00  0.00     0.156 C 
HETATM   25  C   UNL     1     -40.546  51.125 -54.370  1.00  0.00     0.097 C 
HETATM   26  O   UNL     1     -39.060  51.532 -52.544  1.00  0.00    -0.293 OA
ENDBRANCH  20  24
ENDBRANCH   1  17
TORSDOF 4
ENDMDL
MODEL 10
REMARK VINA RESULT:      -7.2      2.646      9.612
REMARK  4 active torsions:
REMARK  status: ('A' for Active; 'I' for Inactive)
REMARK    1  A    between atoms: C_3  and  C_4 
REMARK    2  A    between atoms: C_9  and  N_10 
REMARK       I    between atoms: N_10  and  C_11 
REMARK    3  A    between atoms: C_11  and  C_12 
REMARK    4  A    between atoms: C_16  and  C_17 
ROOT
HETATM    1  N   UNL     1     -42.162  56.930 -51.793  1.00  0.00    -0.322 N 
HETATM    2  C   UNL     1     -41.535  58.151 -51.643  1.00  0.00     0.276 C 
HETATM    3  O   UNL     1     -40.341  58.389 -51.794  1.00  0.00    -0.266 OA
HETATM    4  H   UNL     1     -43.162  56.971 -51.608  1.00  0.00     0.169 HD
ENDROOT
BRANCH   2   5
HETATM    5  C   UNL     1     -42.481  59.196 -51.212  1.00  0.00     0.147 A 
HETATM    6  N   UNL     1     -43.817  59.028 -51.285  1.00  0.00    -0.169 NA
HETATM    7  N   UNL     1     -44.312  60.165 -50.766  1.00  0.00    -0.277 N 
HETATM    8  H   UNL     1     -45.319  60.272 -50.738  1.00  0.00     0.189 HD
HETATM    9  C   UNL     1     -43.366  61.048 -50.306  1.00  0.00     0.063 A 
HETATM   10  C   UNL     1     -42.163  60.448 -50.631  1.00  0.00     0.071 A 
BRANCH   9  11
HETATM   11  C   UNL     1     -43.669  62.311 -49.624  1.00  0.00    -0.008 A 
HETATM   12  C   UNL     1     -44.562  62.372 -48.541  1.00  0.00     0.014 A 
HETATM   13  C   UNL     1     -44.815  63.581 -47.884  1.00  0.00     0.001 A 
HETATM   14  C   UNL     1     -44.176  64.748 -48.295  1.00  0.00     0.000 A 
HETATM   15  C   UNL     1     -43.288  64.708 -49.365  1.00  0.00     0.001 A 
HETATM   16  C   UNL     1     -43.039  63.500 -50.024  1.00  0.00     0.014 A 
ENDBRANCH   9  11
ENDBRANCH   2   5
BRANCH   1  17
HETATM   17  C   UNL     1     -41.583  55.677 -52.048  1.00  0.00     0.035 A 
HETATM   18  C   UNL     1     -41.483  54.662 -51.099  1.00  0.00     0.030 A 
HETATM   19  C   UNL     1     -40.935  53.423 -51.445  1.00  0.00     0.018 A 
HETATM   20  C   UNL     1     -40.487  53.179 -52.751  1.00  0.00     0.015 A 
HETATM   21  C   UNL     1     -40.569  54.197 -53.718  1.00  0.00    -0.046 A 
HETATM   22  C   UNL     1     -40.103  54.004 -55.135  1.00  0.00     0.049 C 
HETATM   23  C   UNL     1     -41.108  55.444 -53.346  1.00  0.00     0.037 A 
BRANCH  20  24
HETATM   24  C   UNL     1     -39.929  51.836 -53.078  1.00  0.00     0.156 C 
HETATM   25  C   UNL     1     -40.516  51.088 -54.247  1.00  0.00     0.097 C 
HETATM   26  O   UNL     1     -39.028  51.352 -52.397  1.00  0.00    -0.293 OA
ENDBRANCH  20  24
ENDBRANCH   1  17
TORSDOF 4
ENDMDL
