MODEL 1
REMARK VINA RESULT:      -7.2      0.000      0.000
REMARK  7 active torsions:
REMARK  status: ('A' for Active; 'I' for Inactive)
REMARK    1  A    between atoms: C_2  and  C_3 
REMARK    2  A    between atoms: C_3  and  N_4 
REMARK       I    between atoms: N_4  and  C_5 
REMARK    3  A    between atoms: C_5  and  C_6 
REMARK    4  A    between atoms: C_9  and  N_10 
REMARK       I    between atoms: N_10  and  C_11 
REMARK    5  A    between atoms: C_11  and  C_12 
REMARK    6  A    between atoms: C_14  and  O_15 
REMARK    7  A    between atoms: O_15  and  C_16 
ROOT
HETATM    1  N   UNL     1     -44.007  57.504 -50.893  1.00  0.00    -0.323 N 
HETATM    2  C   UNL     1     -44.643  58.097 -51.970  1.00  0.00     0.256 C 
HETATM    3  O   UNL     1     -44.822  57.599 -53.076  1.00  0.00    -0.267 OA
HETATM    4  H   UNL     1     -44.084  57.965 -49.998  1.00  0.00     0.169 HD
ENDROOT
BRANCH   1   5
HETATM    5  C   UNL     1     -43.255  56.310 -50.897  1.00  0.00     0.035 A 
HETATM    6  C   UNL     1     -43.806  55.036 -50.754  1.00  0.00     0.030 A 
HETATM    7  C   UNL     1     -43.000  53.892 -50.842  1.00  0.00     0.019 A 
HETATM    8  C   UNL     1     -41.629  54.012 -51.091  1.00  0.00     0.032 A 
HETATM    9  C   UNL     1     -41.068  55.291 -51.197  1.00  0.00     0.019 A 
HETATM   10  C   UNL     1     -41.875  56.429 -51.101  1.00  0.00     0.030 A 
BRANCH   8  11
HETATM   11  C   UNL     1     -40.726  52.836 -51.258  1.00  0.00     0.251 C 
HETATM   12  N   UNL     1     -40.272  52.574 -52.536  1.00  0.00    -0.357 N 
HETATM   13  H   UNL     1     -40.445  53.244 -53.272  1.00  0.00     0.162 HD
HETATM   14  O   UNL     1     -40.385  52.184 -50.276  1.00  0.00    -0.268 OA
BRANCH  12  15
HETATM   15  C   UNL     1     -39.277  51.550 -52.788  1.00  0.00     0.122 C 
BRANCH  15  16
HETATM   16  C   UNL     1     -39.878  50.198 -53.168  1.00  0.00     0.015 C 
HETATM   17  C   UNL     1     -39.783  49.909 -54.658  1.00  0.00     0.006 C 
ENDBRANCH  15  16
ENDBRANCH  12  15
ENDBRANCH   8  11
ENDBRANCH   1   5
BRANCH   2  18
HETATM   18  C   UNL     1     -45.150  59.479 -51.731  1.00  0.00     0.037 A 
HETATM   19  C   UNL     1     -45.479  59.853 -50.429  1.00  0.00     0.075 A 
HETATM   20  C   UNL     1     -46.023  61.108 -50.236  1.00  0.00     0.165 A 
HETATM   21  N   UNL     1     -46.239  61.997 -51.228  1.00  0.00    -0.237 NA
HETATM   22  C   UNL     1     -45.917  61.609 -52.477  1.00  0.00     0.120 A 
HETATM   23  C   UNL     1     -45.382  60.370 -52.783  1.00  0.00     0.036 A 
BRANCH  20  24
HETATM   24  O   UNL     1     -46.372  61.447 -48.944  1.00  0.00    -0.329 OA
BRANCH  24  25
HETATM   25  C   UNL     1     -45.410  61.108 -47.922  1.00  0.00     0.130 C 
HETATM   26  C   UNL     1     -45.038  62.272 -46.967  1.00  0.00     0.032 C 
HETATM   27  C   UNL     1     -44.970  61.234 -45.832  1.00  0.00     0.005 C 
HETATM   28  C   UNL     1     -45.938  60.370 -46.662  1.00  0.00     0.032 C 
ENDBRANCH  24  25
ENDBRANCH  20  24
ENDBRANCH   2  18
TORSDOF 7
ENDMDL
MODEL 2
REMARK VINA RESULT:      -7.1      4.631      9.511
REMARK  7 active torsions:
REMARK  status: ('A' for Active; 'I' for Inactive)
REMARK    1  A    between atoms: C_2  and  C_3 
REMARK    2  A    between atoms: C_3  and  N_4 
REMARK       I    between atoms: N_4  and  C_5 
REMARK    3  A    between atoms: C_5  and  C_6 
REMARK    4  A    between atoms: C_9  and  N_10 
REMARK       I    between atoms: N_10  and  C_11 
REMARK    5  A    between atoms: C_11  and  C_12 
REMARK    6  A    between atoms: C_14  and  O_15 
REMARK    7  A    between atoms: O_15  and  C_16 
ROOT
HETATM    1  N   UNL     1     -42.582  55.468 -53.386  1.00  0.00    -0.323 N 
HETATM    2  C   UNL     1     -41.743  55.958 -52.400  1.00  0.00     0.256 C 
HETATM    3  O   UNL     1     -41.412  57.126 -52.239  1.00  0.00    -0.267 OA
HETATM    4  H   UNL     1     -42.899  54.513 -53.293  1.00  0.00     0.169 HD
ENDROOT
BRANCH   1   5
HETATM    5  C   UNL     1     -43.057  56.155 -54.522  1.00  0.00     0.035 A 
HETATM    6  C   UNL     1     -42.522  56.013 -55.805  1.00  0.00     0.030 A 
HETATM    7  C   UNL     1     -43.098  56.675 -56.898  1.00  0.00     0.019 A 
HETATM    8  C   UNL     1     -44.228  57.479 -56.721  1.00  0.00     0.032 A 
HETATM    9  C   UNL     1     -44.742  57.653 -55.431  1.00  0.00     0.019 A 
HETATM   10  C   UNL     1     -44.160  56.996 -54.342  1.00  0.00     0.030 A 
BRANCH   8  11
HETATM   11  C   UNL     1     -44.926  58.162 -57.850  1.00  0.00     0.251 C 
HETATM   12  N   UNL     1     -46.061  57.549 -58.345  1.00  0.00    -0.357 N 
HETATM   13  H   UNL     1     -46.453  56.757 -57.854  1.00  0.00     0.162 HD
HETATM   14  O   UNL     1     -44.510  59.239 -58.262  1.00  0.00    -0.268 OA
BRANCH  12  15
HETATM   15  C   UNL     1     -46.897  58.196 -59.337  1.00  0.00     0.122 C 
BRANCH  15  16
HETATM   16  C   UNL     1     -47.125  57.348 -60.587  1.00  0.00     0.015 C 
HETATM   17  C   UNL     1     -46.439  55.993 -60.512  1.00  0.00     0.006 C 
ENDBRANCH  15  16
ENDBRANCH  12  15
ENDBRANCH   8  11
ENDBRANCH   1   5
BRANCH   2  18
HETATM   18  C   UNL     1     -41.203  54.938 -51.455  1.00  0.00     0.037 A 
HETATM   19  C   UNL     1     -40.470  53.871 -51.972  1.00  0.00     0.075 A 
HETATM   20  C   UNL     1     -40.047  52.893 -51.094  1.00  0.00     0.165 A 
HETATM   21  N   UNL     1     -40.285  52.917 -49.766  1.00  0.00    -0.237 NA
HETATM   22  C   UNL     1     -41.000  53.956 -49.293  1.00  0.00     0.120 A 
HETATM   23  C   UNL     1     -41.486  54.980 -50.087  1.00  0.00     0.036 A 
BRANCH  20  24
HETATM   24  O   UNL     1     -39.350  51.827 -51.630  1.00  0.00    -0.329 OA
BRANCH  24  25
HETATM   25  C   UNL     1     -40.043  51.070 -52.646  1.00  0.00     0.130 C 
HETATM   26  C   UNL     1     -39.580  51.354 -54.098  1.00  0.00     0.032 C 
HETATM   27  C   UNL     1     -39.793  49.858 -54.391  1.00  0.00     0.005 C 
HETATM   28  C   UNL     1     -39.581  49.607 -52.886  1.00  0.00     0.032 C 
ENDBRANCH  24  25
ENDBRANCH  20  24
ENDBRANCH   2  18
TORSDOF 7
ENDMDL
MODEL 3
REMARK VINA RESULT:      -6.8      4.646      9.540
REMARK  7 active torsions:
REMARK  status: ('A' for Active; 'I' for Inactive)
REMARK    1  A    between atoms: C_2  and  C_3 
REMARK    2  A    between atoms: C_3  and  N_4 
REMARK       I    between atoms: N_4  and  C_5 
REMARK    3  A    between atoms: C_5  and  C_6 
REMARK    4  A    between atoms: C_9  and  N_10 
REMARK       I    between atoms: N_10  and  C_11 
REMARK    5  A    between atoms: C_11  and  C_12 
REMARK    6  A    between atoms: C_14  and  O_15 
REMARK    7  A    between atoms: O_15  and  C_16 
ROOT
HETATM    1  N   UNL     1     -42.569  55.652 -53.516  1.00  0.00    -0.323 N 
HETATM    2  C   UNL     1     -41.734  56.120 -52.516  1.00  0.00     0.256 C 
HETATM    3  O   UNL     1     -41.382  57.281 -52.344  1.00  0.00    -0.267 OA
HETATM    4  H   UNL     1     -42.906  54.703 -53.432  1.00  0.00     0.169 HD
ENDROOT
BRANCH   1   5
HETATM    5  C   UNL     1     -43.015  56.355 -54.654  1.00  0.00     0.035 A 
HETATM    6  C   UNL     1     -44.210  57.075 -54.713  1.00  0.00     0.030 A 
HETATM    7  C   UNL     1     -44.548  57.809 -55.859  1.00  0.00     0.019 A 
HETATM    8  C   UNL     1     -43.684  57.841 -56.958  1.00  0.00     0.032 A 
HETATM    9  C   UNL     1     -42.504  57.089 -56.915  1.00  0.00     0.019 A 
HETATM   10  C   UNL     1     -42.174  56.353 -55.773  1.00  0.00     0.030 A 
BRANCH   8  11
HETATM   11  C   UNL     1     -43.954  58.651 -58.182  1.00  0.00     0.251 C 
HETATM   12  N   UNL     1     -43.110  58.457 -59.258  1.00  0.00    -0.357 N 
HETATM   13  H   UNL     1     -42.444  57.697 -59.237  1.00  0.00     0.162 HD
HETATM   14  O   UNL     1     -44.918  59.408 -58.212  1.00  0.00    -0.268 OA
BRANCH  12  15
HETATM   15  C   UNL     1     -43.370  59.079 -60.542  1.00  0.00     0.122 C 
BRANCH  15  16
HETATM   16  C   UNL     1     -42.185  59.879 -61.080  1.00  0.00     0.015 C 
HETATM   17  C   UNL     1     -41.788  61.028 -60.166  1.00  0.00     0.006 C 
ENDBRANCH  15  16
ENDBRANCH  12  15
ENDBRANCH   8  11
ENDBRANCH   1   5
BRANCH   2  18
HETATM   18  C   UNL     1     -41.227  55.085 -51.570  1.00  0.00     0.037 A 
HETATM   19  C   UNL     1     -40.482  54.023 -52.079  1.00  0.00     0.075 A 
HETATM   20  C   UNL     1     -40.089  53.031 -51.203  1.00  0.00     0.165 A 
HETATM   21  N   UNL     1     -40.369  53.036 -49.883  1.00  0.00    -0.237 NA
HETATM   22  C   UNL     1     -41.095  54.071 -49.417  1.00  0.00     0.120 A 
HETATM   23  C   UNL     1     -41.552  55.108 -50.211  1.00  0.00     0.036 A 
BRANCH  20  24
HETATM   24  O   UNL     1     -39.379  51.970 -51.733  1.00  0.00    -0.329 OA
BRANCH  24  25
HETATM   25  C   UNL     1     -40.079  51.171 -52.710  1.00  0.00     0.130 C 
HETATM   26  C   UNL     1     -39.648  51.415 -54.179  1.00  0.00     0.032 C 
HETATM   27  C   UNL     1     -39.843  49.907 -54.420  1.00  0.00     0.005 C 
HETATM   28  C   UNL     1     -39.599  49.708 -52.912  1.00  0.00     0.032 C 
ENDBRANCH  24  25
ENDBRANCH  20  24
ENDBRANCH   2  18
TORSDOF 7
ENDMDL
MODEL 4
REMARK VINA RESULT:      -6.8      5.750      9.776
REMARK  7 active torsions:
REMARK  status: ('A' for Active; 'I' for Inactive)
REMARK    1  A    between atoms: C_2  and  C_3 
REMARK    2  A    between atoms: C_3  and  N_4 
REMARK       I    between atoms: N_4  and  C_5 
REMARK    3  A    between atoms: C_5  and  C_6 
REMARK    4  A    between atoms: C_9  and  N_10 
REMARK       I    between atoms: N_10  and  C_11 
REMARK    5  A    between atoms: C_11  and  C_12 
REMARK    6  A    between atoms: C_14  and  O_15 
REMARK    7  A    between atoms: O_15  and  C_16 
ROOT
HETATM    1  N   UNL     1     -42.081  58.108 -54.857  1.00  0.00    -0.323 N 
HETATM    2  C   UNL     1     -41.242  58.407 -53.797  1.00  0.00     0.256 C 
HETATM    3  O   UNL     1     -40.502  59.379 -53.704  1.00  0.00    -0.267 OA
HETATM    4  H   UNL     1     -42.755  57.368 -54.721  1.00  0.00     0.169 HD
ENDROOT
BRANCH   1   5
HETATM    5  C   UNL     1     -42.109  58.727 -56.124  1.00  0.00     0.035 A 
HETATM    6  C   UNL     1     -42.042  60.107 -56.324  1.00  0.00     0.030 A 
HETATM    7  C   UNL     1     -42.000  60.642 -57.620  1.00  0.00     0.019 A 
HETATM    8  C   UNL     1     -42.012  59.796 -58.734  1.00  0.00     0.032 A 
HETATM    9  C   UNL     1     -42.118  58.415 -58.535  1.00  0.00     0.019 A 
HETATM   10  C   UNL     1     -42.166  57.886 -57.241  1.00  0.00     0.030 A 
BRANCH   8  11
HETATM   11  C   UNL     1     -41.908  60.296 -60.136  1.00  0.00     0.251 C 
HETATM   12  N   UNL     1     -41.720  61.655 -60.302  1.00  0.00    -0.357 N 
HETATM   13  H   UNL     1     -41.525  62.232 -59.496  1.00  0.00     0.162 HD
HETATM   14  O   UNL     1     -41.943  59.503 -61.070  1.00  0.00    -0.268 OA
BRANCH  12  15
HETATM   15  C   UNL     1     -41.459  62.227 -61.608  1.00  0.00     0.122 C 
BRANCH  15  16
HETATM   16  C   UNL     1     -40.122  62.960 -61.694  1.00  0.00     0.015 C 
HETATM   17  C   UNL     1     -39.487  63.188 -60.331  1.00  0.00     0.006 C 
ENDBRANCH  15  16
ENDBRANCH  12  15
ENDBRANCH   8  11
ENDBRANCH   1   5
BRANCH   2  18
HETATM   18  C   UNL     1     -41.262  57.429 -52.671  1.00  0.00     0.037 A 
HETATM   19  C   UNL     1     -41.359  56.070 -52.969  1.00  0.00     0.075 A 
HETATM   20  C   UNL     1     -41.458  55.184 -51.915  1.00  0.00     0.165 A 
HETATM   21  N   UNL     1     -41.451  55.552 -50.616  1.00  0.00    -0.237 NA
HETATM   22  C   UNL     1     -41.362  56.871 -50.356  1.00  0.00     0.120 A 
HETATM   23  C   UNL     1     -41.274  57.843 -51.336  1.00  0.00     0.036 A 
BRANCH  20  24
HETATM   24  O   UNL     1     -41.585  53.845 -52.231  1.00  0.00    -0.329 OA
BRANCH  24  25
HETATM   25  C   UNL     1     -40.474  53.257 -52.940  1.00  0.00     0.130 C 
HETATM   26  C   UNL     1     -39.843  52.019 -52.251  1.00  0.00     0.032 C 
HETATM   27  C   UNL     1     -39.636  51.423 -53.655  1.00  0.00     0.005 C 
HETATM   28  C   UNL     1     -40.803  52.310 -54.126  1.00  0.00     0.032 C 
ENDBRANCH  24  25
ENDBRANCH  20  24
ENDBRANCH   2  18
TORSDOF 7
ENDMDL
MODEL 5
REMARK VINA RESULT:      -6.7      6.538      8.379
REMARK  7 active torsions:
REMARK  status: ('A' for Active; 'I' for Inactive)
REMARK    1  A    between atoms: C_2  and  C_3 
REMARK    2  A    between atoms: C_3  and  N_4 
REMARK       I    between atoms: N_4  and  C_5 
REMARK    3  A    between atoms: C_5  and  C_6 
REMARK    4  A    between atoms: C_9  and  N_10 
REMARK       I    between atoms: N_10  and  C_11 
REMARK    5  A    between atoms: C_11  and  C_12 
REMARK    6  A    between atoms: C_14  and  O_15 
REMARK    7  A    between atoms: O_15  and  C_16 
ROOT
HETATM    1  N   UNL     1     -43.208  56.833 -57.323  1.00  0.00    -0.323 N 
HETATM    2  C   UNL     1     -42.990  56.688 -58.682  1.00  0.00     0.256 C 
HETATM    3  O   UNL     1     -42.522  55.705 -59.244  1.00  0.00    -0.267 OA
HETATM    4  H   UNL     1     -43.756  57.627 -57.023  1.00  0.00     0.169 HD
ENDROOT
BRANCH   1   5
HETATM    5  C   UNL     1     -42.751  55.988 -56.290  1.00  0.00     0.035 A 
HETATM    6  C   UNL     1     -43.228  54.695 -56.066  1.00  0.00     0.030 A 
HETATM    7  C   UNL     1     -42.670  53.889 -55.063  1.00  0.00     0.019 A 
HETATM    8  C   UNL     1     -41.615  54.366 -54.279  1.00  0.00     0.032 A 
HETATM    9  C   UNL     1     -41.162  55.676 -54.477  1.00  0.00     0.019 A 
HETATM   10  C   UNL     1     -41.726  56.479 -55.474  1.00  0.00     0.030 A 
BRANCH   8  11
HETATM   11  C   UNL     1     -40.937  53.539 -53.239  1.00  0.00     0.251 C 
HETATM   12  N   UNL     1     -40.327  52.375 -53.666  1.00  0.00    -0.357 N 
HETATM   13  H   UNL     1     -40.240  52.193 -54.656  1.00  0.00     0.162 HD
HETATM   14  O   UNL     1     -40.899  53.931 -52.077  1.00  0.00    -0.268 OA
BRANCH  12  15
HETATM   15  C   UNL     1     -39.516  51.576 -52.769  1.00  0.00     0.122 C 
BRANCH  15  16
HETATM   16  C   UNL     1     -39.521  50.087 -53.109  1.00  0.00     0.015 C 
HETATM   17  C   UNL     1     -39.891  49.815 -54.559  1.00  0.00     0.006 C 
ENDBRANCH  15  16
ENDBRANCH  12  15
ENDBRANCH   8  11
ENDBRANCH   1   5
BRANCH   2  18
HETATM   18  C   UNL     1     -43.374  57.861 -59.519  1.00  0.00     0.037 A 
HETATM   19  C   UNL     1     -42.369  58.565 -60.181  1.00  0.00     0.075 A 
HETATM   20  C   UNL     1     -42.730  59.696 -60.886  1.00  0.00     0.165 A 
HETATM   21  N   UNL     1     -43.997  60.150 -60.986  1.00  0.00    -0.237 NA
HETATM   22  C   UNL     1     -44.948  59.455 -60.333  1.00  0.00     0.120 A 
HETATM   23  C   UNL     1     -44.693  58.319 -59.586  1.00  0.00     0.036 A 
BRANCH  20  24
HETATM   24  O   UNL     1     -41.715  60.398 -61.508  1.00  0.00    -0.329 OA
BRANCH  24  25
HETATM   25  C   UNL     1     -41.536  61.763 -61.071  1.00  0.00     0.130 C 
HETATM   26  C   UNL     1     -40.972  61.918 -59.635  1.00  0.00     0.032 C 
HETATM   27  C   UNL     1     -40.177  63.133 -60.147  1.00  0.00     0.005 C 
HETATM   28  C   UNL     1     -40.258  62.504 -61.550  1.00  0.00     0.032 C 
ENDBRANCH  24  25
ENDBRANCH  20  24
ENDBRANCH   2  18
TORSDOF 7
ENDMDL
MODEL 6
REMARK VINA RESULT:      -6.6      5.610      7.961
REMARK  7 active torsions:
REMARK  status: ('A' for Active; 'I' for Inactive)
REMARK    1  A    between atoms: C_2  and  C_3 
REMARK    2  A    between atoms: C_3  and  N_4 
REMARK       I    between atoms: N_4  and  C_5 
REMARK    3  A    between atoms: C_5  and  C_6 
REMARK    4  A    between atoms: C_9  and  N_10 
REMARK       I    between atoms: N_10  and  C_11 
REMARK    5  A    between atoms: C_11  and  C_12 
REMARK    6  A    between atoms: C_14  and  O_15 
REMARK    7  A    between atoms: O_15  and  C_16 
ROOT
HETATM    1  N   UNL     1     -41.441  56.344 -55.855  1.00  0.00    -0.323 N 
HETATM    2  C   UNL     1     -42.567  57.079 -56.183  1.00  0.00     0.256 C 
HETATM    3  O   UNL     1     -43.481  57.388 -55.428  1.00  0.00    -0.267 OA
HETATM    4  H   UNL     1     -40.694  56.312 -56.534  1.00  0.00     0.169 HD
ENDROOT
BRANCH   1   5
HETATM    5  C   UNL     1     -41.208  55.624 -54.665  1.00  0.00     0.035 A 
HETATM    6  C   UNL     1     -41.241  56.189 -53.388  1.00  0.00     0.030 A 
HETATM    7  C   UNL     1     -41.072  55.391 -52.247  1.00  0.00     0.019 A 
HETATM    8  C   UNL     1     -40.881  54.012 -52.372  1.00  0.00     0.032 A 
HETATM    9  C   UNL     1     -40.809  53.450 -53.652  1.00  0.00     0.019 A 
HETATM   10  C   UNL     1     -40.972  54.250 -54.788  1.00  0.00     0.030 A 
BRANCH   8  11
HETATM   11  C   UNL     1     -40.757  53.098 -51.199  1.00  0.00     0.251 C 
HETATM   12  N   UNL     1     -40.316  51.814 -51.451  1.00  0.00    -0.357 N 
HETATM   13  H   UNL     1     -39.969  51.579 -52.371  1.00  0.00     0.162 HD
HETATM   14  O   UNL     1     -40.996  53.518 -50.071  1.00  0.00    -0.268 OA
BRANCH  12  15
HETATM   15  C   UNL     1     -40.018  50.892 -50.372  1.00  0.00     0.122 C 
BRANCH  15  16
HETATM   16  C   UNL     1     -39.794  49.457 -50.843  1.00  0.00     0.015 C 
HETATM   17  C   UNL     1     -39.572  49.357 -52.344  1.00  0.00     0.006 C 
ENDBRANCH  15  16
ENDBRANCH  12  15
ENDBRANCH   8  11
ENDBRANCH   1   5
BRANCH   2  18
HETATM   18  C   UNL     1     -42.648  57.525 -57.604  1.00  0.00     0.037 A 
HETATM   19  C   UNL     1     -43.179  56.648 -58.549  1.00  0.00     0.075 A 
HETATM   20  C   UNL     1     -43.172  57.043 -59.872  1.00  0.00     0.165 A 
HETATM   21  N   UNL     1     -42.698  58.232 -60.302  1.00  0.00    -0.237 NA
HETATM   22  C   UNL     1     -42.186  59.058 -59.370  1.00  0.00     0.120 A 
HETATM   23  C   UNL     1     -42.129  58.754 -58.021  1.00  0.00     0.036 A 
BRANCH  20  24
HETATM   24  O   UNL     1     -43.673  56.148 -60.797  1.00  0.00    -0.329 OA
BRANCH  24  25
HETATM   25  C   UNL     1     -45.094  56.223 -61.041  1.00  0.00     0.130 C 
HETATM   26  C   UNL     1     -45.938  55.150 -60.306  1.00  0.00     0.032 C 
HETATM   27  C   UNL     1     -47.023  56.225 -60.116  1.00  0.00     0.005 C 
HETATM   28  C   UNL     1     -45.902  57.274 -60.233  1.00  0.00     0.032 C 
ENDBRANCH  24  25
ENDBRANCH  20  24
ENDBRANCH   2  18
TORSDOF 7
ENDMDL
MODEL 7
REMARK VINA RESULT:      -6.5      5.490      9.524
REMARK  7 active torsions:
REMARK  status: ('A' for Active; 'I' for Inactive)
REMARK    1  A    between atoms: C_2  and  C_3 
REMARK    2  A    between atoms: C_3  and  N_4 
REMARK       I    between atoms: N_4  and  C_5 
REMARK    3  A    between atoms: C_5  and  C_6 
REMARK    4  A    between atoms: C_9  and  N_10 
REMARK       I    between atoms: N_10  and  C_11 
REMARK    5  A    between atoms: C_11  and  C_12 
REMARK    6  A    between atoms: C_14  and  O_15 
REMARK    7  A    between atoms: O_15  and  C_16 
ROOT
HETATM    1  N   UNL     1     -41.918  54.724 -55.784  1.00  0.00    -0.323 N 
HETATM    2  C   UNL     1     -42.253  54.254 -54.526  1.00  0.00     0.256 C 
HETATM    3  O   UNL     1     -43.222  54.589 -53.856  1.00  0.00    -0.267 OA
HETATM    4  H   UNL     1     -41.189  54.235 -56.283  1.00  0.00     0.169 HD
ENDROOT
BRANCH   1   5
HETATM    5  C   UNL     1     -42.486  55.822 -56.463  1.00  0.00     0.035 A 
HETATM    6  C   UNL     1     -42.371  57.149 -56.044  1.00  0.00     0.030 A 
HETATM    7  C   UNL     1     -42.901  58.193 -56.816  1.00  0.00     0.019 A 
HETATM    8  C   UNL     1     -43.543  57.919 -58.027  1.00  0.00     0.032 A 
HETATM    9  C   UNL     1     -43.693  56.587 -58.430  1.00  0.00     0.019 A 
HETATM   10  C   UNL     1     -43.169  55.549 -57.654  1.00  0.00     0.030 A 
BRANCH   8  11
HETATM   11  C   UNL     1     -44.074  58.987 -58.925  1.00  0.00     0.251 C 
HETATM   12  N   UNL     1     -43.470  59.122 -60.160  1.00  0.00    -0.357 N 
HETATM   13  H   UNL     1     -42.802  58.428 -60.465  1.00  0.00     0.162 HD
HETATM   14  O   UNL     1     -45.036  59.660 -58.569  1.00  0.00    -0.268 OA
BRANCH  12  15
HETATM   15  C   UNL     1     -44.000  60.023 -61.165  1.00  0.00     0.122 C 
BRANCH  15  16
HETATM   16  C   UNL     1     -42.938  60.920 -61.798  1.00  0.00     0.015 C 
HETATM   17  C   UNL     1     -41.661  60.991 -60.975  1.00  0.00     0.006 C 
ENDBRANCH  15  16
ENDBRANCH  12  15
ENDBRANCH   8  11
ENDBRANCH   1   5
BRANCH   2  18
HETATM   18  C   UNL     1     -41.321  53.239 -53.954  1.00  0.00     0.037 A 
HETATM   19  C   UNL     1     -41.080  53.253 -52.581  1.00  0.00     0.075 A 
HETATM   20  C   UNL     1     -40.154  52.361 -52.078  1.00  0.00     0.165 A 
HETATM   21  N   UNL     1     -39.481  51.467 -52.833  1.00  0.00    -0.237 NA
HETATM   22  C   UNL     1     -39.728  51.478 -54.158  1.00  0.00     0.120 A 
HETATM   23  C   UNL     1     -40.623  52.340 -54.765  1.00  0.00     0.036 A 
BRANCH  20  24
HETATM   24  O   UNL     1     -39.906  52.412 -50.721  1.00  0.00    -0.329 OA
BRANCH  24  25
HETATM   25  C   UNL     1     -40.693  53.364 -49.973  1.00  0.00     0.130 C 
HETATM   26  C   UNL     1     -40.697  53.141 -48.438  1.00  0.00     0.032 C 
HETATM   27  C   UNL     1     -40.700  54.673 -48.281  1.00  0.00     0.005 C 
HETATM   28  C   UNL     1     -40.049  54.745 -49.674  1.00  0.00     0.032 C 
ENDBRANCH  24  25
ENDBRANCH  20  24
ENDBRANCH   2  18
TORSDOF 7
ENDMDL
MODEL 8
REMARK VINA RESULT:      -6.4      2.538     10.017
REMARK  7 active torsions:
REMARK  status: ('A' for Active; 'I' for Inactive)
REMARK    1  A    between atoms: C_2  and  C_3 
REMARK    2  A    between atoms: C_3  and  N_4 
REMARK       I    between atoms: N_4  and  C_5 
REMARK    3  A    between atoms: C_5  and  C_6 
REMARK    4  A    between atoms: C_9  and  N_10 
REMARK       I    between atoms: N_10  and  C_11 
REMARK    5  A    between atoms: C_11  and  C_12 
REMARK    6  A    between atoms: C_14  and  O_15 
REMARK    7  A    between atoms: O_15  and  C_16 
ROOT
HETATM    1  N   UNL     1     -42.373  57.597 -51.025  1.00  0.00    -0.323 N 
HETATM    2  C   UNL     1     -42.316  56.389 -51.698  1.00  0.00     0.256 C 
HETATM    3  O   UNL     1     -42.822  56.135 -52.784  1.00  0.00    -0.267 OA
HETATM    4  H   UNL     1     -41.768  57.711 -50.224  1.00  0.00     0.169 HD
ENDROOT
BRANCH   1   5
HETATM    5  C   UNL     1     -43.185  58.708 -51.333  1.00  0.00     0.035 A 
HETATM    6  C   UNL     1     -42.694  59.953 -51.731  1.00  0.00     0.030 A 
HETATM    7  C   UNL     1     -43.570  60.987 -52.091  1.00  0.00     0.019 A 
HETATM    8  C   UNL     1     -44.953  60.781 -52.069  1.00  0.00     0.032 A 
HETATM    9  C   UNL     1     -45.448  59.546 -51.633  1.00  0.00     0.019 A 
HETATM   10  C   UNL     1     -44.571  58.519 -51.269  1.00  0.00     0.030 A 
BRANCH   8  11
HETATM   11  C   UNL     1     -45.936  61.817 -52.499  1.00  0.00     0.251 C 
HETATM   12  N   UNL     1     -46.934  61.411 -53.363  1.00  0.00    -0.357 N 
HETATM   13  H   UNL     1     -47.049  60.427 -53.563  1.00  0.00     0.162 HD
HETATM   14  O   UNL     1     -45.861  62.955 -52.047  1.00  0.00    -0.268 OA
BRANCH  12  15
HETATM   15  C   UNL     1     -48.025  62.296 -53.726  1.00  0.00     0.122 C 
BRANCH  15  16
HETATM   16  C   UNL     1     -49.277  62.097 -52.874  1.00  0.00     0.015 C 
HETATM   17  C   UNL     1     -49.943  63.410 -52.492  1.00  0.00     0.006 C 
ENDBRANCH  15  16
ENDBRANCH  12  15
ENDBRANCH   8  11
ENDBRANCH   1   5
BRANCH   2  18
HETATM   18  C   UNL     1     -41.556  55.307 -51.006  1.00  0.00     0.037 A 
HETATM   19  C   UNL     1     -40.798  54.427 -51.777  1.00  0.00     0.075 A 
HETATM   20  C   UNL     1     -40.166  53.383 -51.131  1.00  0.00     0.165 A 
HETATM   21  N   UNL     1     -40.226  53.174 -49.799  1.00  0.00    -0.237 NA
HETATM   22  C   UNL     1     -40.969  54.036 -49.078  1.00  0.00     0.120 A 
HETATM   23  C   UNL     1     -41.655  55.104 -49.627  1.00  0.00     0.036 A 
BRANCH  20  24
HETATM   24  O   UNL     1     -39.447  52.503 -51.916  1.00  0.00    -0.329 OA
BRANCH  24  25
HETATM   25  C   UNL     1     -40.229  51.572 -52.695  1.00  0.00     0.130 C 
HETATM   26  C   UNL     1     -40.102  51.742 -54.231  1.00  0.00     0.032 C 
HETATM   27  C   UNL     1     -40.182  50.209 -54.343  1.00  0.00     0.005 C 
HETATM   28  C   UNL     1     -39.646  50.147 -52.901  1.00  0.00     0.032 C 
ENDBRANCH  24  25
ENDBRANCH  20  24
ENDBRANCH   2  18
TORSDOF 7
ENDMDL
MODEL 9
REMARK VINA RESULT:      -6.3      1.733      1.991
REMARK  7 active torsions:
REMARK  status: ('A' for Active; 'I' for Inactive)
REMARK    1  A    between atoms: C_2  and  C_3 
REMARK    2  A    between atoms: C_3  and  N_4 
REMARK       I    between atoms: N_4  and  C_5 
REMARK    3  A    between atoms: C_5  and  C_6 
REMARK    4  A    between atoms: C_9  and  N_10 
REMARK       I    between atoms: N_10  and  C_11 
REMARK    5  A    between atoms: C_11  and  C_12 
REMARK    6  A    between atoms: C_14  and  O_15 
REMARK    7  A    between atoms: O_15  and  C_16 
ROOT
HETATM    1  N   UNL     1     -44.406  58.310 -52.304  1.00  0.00    -0.323 N 
HETATM    2  C   UNL     1     -43.861  59.497 -51.846  1.00  0.00     0.256 C 
HETATM    3  O   UNL     1     -42.669  59.764 -51.753  1.00  0.00    -0.267 OA
HETATM    4  H   UNL     1     -45.400  58.294 -52.485  1.00  0.00     0.169 HD
ENDROOT
BRANCH   1   5
HETATM    5  C   UNL     1     -43.727  57.099 -52.555  1.00  0.00     0.035 A 
HETATM    6  C   UNL     1     -43.471  56.594 -53.831  1.00  0.00     0.030 A 
HETATM    7  C   UNL     1     -42.723  55.419 -54.000  1.00  0.00     0.019 A 
HETATM    8  C   UNL     1     -42.211  54.743 -52.889  1.00  0.00     0.032 A 
HETATM    9  C   UNL     1     -42.499  55.227 -51.608  1.00  0.00     0.019 A 
HETATM   10  C   UNL     1     -43.250  56.395 -51.443  1.00  0.00     0.030 A 
BRANCH   8  11
HETATM   11  C   UNL     1     -41.357  53.524 -53.002  1.00  0.00     0.251 C 
HETATM   12  N   UNL     1     -40.511  53.255 -51.944  1.00  0.00    -0.357 N 
HETATM   13  H   UNL     1     -40.592  53.793 -51.092  1.00  0.00     0.162 HD
HETATM   14  O   UNL     1     -41.464  52.793 -53.980  1.00  0.00    -0.268 OA
BRANCH  12  15
HETATM   15  C   UNL     1     -39.748  52.022 -51.882  1.00  0.00     0.122 C 
BRANCH  15  16
HETATM   16  C   UNL     1     -40.052  51.182 -50.643  1.00  0.00     0.015 C 
HETATM   17  C   UNL     1     -39.730  49.708 -50.838  1.00  0.00     0.006 C 
ENDBRANCH  15  16
ENDBRANCH  12  15
ENDBRANCH   8  11
ENDBRANCH   1   5
BRANCH   2  18
HETATM   18  C   UNL     1     -44.849  60.535 -51.431  1.00  0.00     0.037 A 
HETATM   19  C   UNL     1     -45.172  60.646 -50.080  1.00  0.00     0.075 A 
HETATM   20  C   UNL     1     -46.146  61.557 -49.722  1.00  0.00     0.165 A 
HETATM   21  N   UNL     1     -46.792  62.354 -50.598  1.00  0.00    -0.237 NA
HETATM   22  C   UNL     1     -46.465  62.223 -51.899  1.00  0.00     0.120 A 
HETATM   23  C   UNL     1     -45.516  61.332 -52.366  1.00  0.00     0.036 A 
BRANCH  20  24
HETATM   24  O   UNL     1     -46.475  61.629 -48.382  1.00  0.00    -0.329 OA
BRANCH  24  25
HETATM   25  C   UNL     1     -45.499  61.089 -47.465  1.00  0.00     0.130 C 
HETATM   26  C   UNL     1     -44.957  62.101 -46.422  1.00  0.00     0.032 C 
HETATM   27  C   UNL     1     -44.936  60.945 -45.406  1.00  0.00     0.005 C 
HETATM   28  C   UNL     1     -46.031  60.274 -46.255  1.00  0.00     0.032 C 
ENDBRANCH  24  25
ENDBRANCH  20  24
ENDBRANCH   2  18
TORSDOF 7
ENDMDL
MODEL 10
REMARK VINA RESULT:      -6.3      6.218      8.869
REMARK  7 active torsions:
REMARK  status: ('A' for Active; 'I' for Inactive)
REMARK    1  A    between atoms: C_2  and  C_3 
REMARK    2  A    between atoms: C_3  and  N_4 
REMARK       I    between atoms: N_4  and  C_5 
REMARK    3  A    between atoms: C_5  and  C_6 
REMARK    4  A    between atoms: C_9  and  N_10 
REMARK       I    between atoms: N_10  and  C_11 
REMARK    5  A    between atoms: C_11  and  C_12 
REMARK    6  A    between atoms: C_14  and  O_15 
REMARK    7  A    between atoms: O_15  and  C_16 
ROOT
HETATM    1  N   UNL     1     -42.647  56.678 -56.238  1.00  0.00    -0.323 N 
HETATM    2  C   UNL     1     -42.886  56.081 -55.013  1.00  0.00     0.256 C 
HETATM    3  O   UNL     1     -43.625  55.127 -54.798  1.00  0.00    -0.267 OA
HETATM    4  H   UNL     1     -41.887  57.342 -56.290  1.00  0.00     0.169 HD
ENDROOT
BRANCH   1   5
HETATM    5  C   UNL     1     -43.347  56.464 -57.444  1.00  0.00     0.035 A 
HETATM    6  C   UNL     1     -43.158  55.358 -58.275  1.00  0.00     0.030 A 
HETATM    7  C   UNL     1     -43.947  55.179 -59.420  1.00  0.00     0.019 A 
HETATM    8  C   UNL     1     -44.947  56.102 -59.740  1.00  0.00     0.032 A 
HETATM    9  C   UNL     1     -45.113  57.231 -58.929  1.00  0.00     0.019 A 
HETATM   10  C   UNL     1     -44.319  57.409 -57.791  1.00  0.00     0.030 A 
BRANCH   8  11
HETATM   11  C   UNL     1     -45.861  55.939 -60.908  1.00  0.00     0.251 C 
HETATM   12  N   UNL     1     -46.978  56.752 -60.946  1.00  0.00    -0.357 N 
HETATM   13  H   UNL     1     -47.068  57.504 -60.278  1.00  0.00     0.162 HD
HETATM   14  O   UNL     1     -45.577  55.145 -61.799  1.00  0.00    -0.268 OA
BRANCH  12  15
HETATM   15  C   UNL     1     -47.851  56.782 -62.103  1.00  0.00     0.122 C 
BRANCH  15  16
HETATM   16  C   UNL     1     -48.726  58.032 -62.172  1.00  0.00     0.015 C 
HETATM   17  C   UNL     1     -47.941  59.313 -61.940  1.00  0.00     0.006 C 
ENDBRANCH  15  16
ENDBRANCH  12  15
ENDBRANCH   8  11
ENDBRANCH   1   5
BRANCH   2  18
HETATM   18  C   UNL     1     -42.158  56.679 -53.857  1.00  0.00     0.037 A 
HETATM   19  C   UNL     1     -42.439  56.208 -52.575  1.00  0.00     0.075 A 
HETATM   20  C   UNL     1     -41.817  56.827 -51.509  1.00  0.00     0.165 A 
HETATM   21  N   UNL     1     -40.944  57.849 -51.635  1.00  0.00    -0.237 NA
HETATM   22  C   UNL     1     -40.695  58.289 -52.883  1.00  0.00     0.120 A 
HETATM   23  C   UNL     1     -41.275  57.751 -54.018  1.00  0.00     0.036 A 
BRANCH  20  24
HETATM   24  O   UNL     1     -42.133  56.367 -50.245  1.00  0.00    -0.329 OA
BRANCH  24  25
HETATM   25  C   UNL     1     -41.718  55.017 -49.946  1.00  0.00     0.130 C 
HETATM   26  C   UNL     1     -40.421  54.560 -50.662  1.00  0.00     0.032 C 
HETATM   27  C   UNL     1     -40.062  53.788 -49.380  1.00  0.00     0.005 C 
HETATM   28  C   UNL     1     -40.952  54.784 -48.616  1.00  0.00     0.032 C 
ENDBRANCH  24  25
ENDBRANCH  20  24
ENDBRANCH   2  18
TORSDOF 7
ENDMDL
