MODEL 1
REMARK VINA RESULT:      -8.5      0.000      0.000
REMARK  6 active torsions:
REMARK  status: ('A' for Active; 'I' for Inactive)
REMARK    1  A    between atoms: N_3  and  C_4 
REMARK    2  A    between atoms: C_12  and  C_13 
REMARK       I    between atoms: C_13  and  N_14 
REMARK    3  A    between atoms: N_14  and  N_15 
REMARK       I    between atoms: N_15  and  C_16 
REMARK    4  A    between atoms: C_16  and  C_17 
REMARK    5  A    between atoms: C_17  and  C_18 
REMARK    6  A    between atoms: C_23  and  O_24 
ROOT
HETATM    1  C   UNL     1     -34.828  41.159 -56.142  1.00  0.00     0.272 C 
HETATM    2  N   UNL     1     -35.416  41.664 -54.998  1.00  0.00    -0.263 N 
HETATM    3  O   UNL     1     -33.668  40.750 -56.144  1.00  0.00    -0.266 OA
HETATM    4  H   UNL     1     -36.401  41.900 -54.933  1.00  0.00     0.190 HD
ENDROOT
BRANCH   2   5
HETATM    5  N   UNL     1     -34.712  41.597 -53.791  1.00  0.00    -0.267 N 
HETATM    6  C   UNL     1     -35.345  42.017 -52.638  1.00  0.00     0.240 C 
HETATM    7  O   UNL     1     -36.522  42.384 -52.633  1.00  0.00    -0.272 OA
HETATM    8  H   UNL     1     -33.710  41.423 -53.851  1.00  0.00     0.190 HD
BRANCH   6   9
HETATM    9  C   UNL     1     -34.515  41.902 -51.374  1.00  0.00     0.145 C 
BRANCH   9  10
HETATM   10  C   UNL     1     -34.722  40.604 -50.660  1.00  0.00    -0.021 A 
HETATM   11  C   UNL     1     -33.775  39.913 -49.837  1.00  0.00     0.001 A 
HETATM   12  C   UNL     1     -34.394  38.755 -49.369  1.00  0.00     0.043 A 
HETATM   13  C   UNL     1     -32.447  40.170 -49.437  1.00  0.00     0.051 A 
HETATM   14  C   UNL     1     -33.753  37.846 -48.521  1.00  0.00     0.033 A 
HETATM   15  N   UNL     1     -35.662  38.730 -49.900  1.00  0.00    -0.365 N 
HETATM   16  C   UNL     1     -32.441  38.136 -48.124  1.00  0.00     0.039 A 
HETATM   17  C   UNL     1     -31.795  39.290 -48.564  1.00  0.00     0.069 A 
HETATM   18  H   UNL     1     -36.339  37.998 -49.733  1.00  0.00     0.165 HD
HETATM   19  C   UNL     1     -35.871  39.837 -50.675  1.00  0.00     0.097 A 
BRANCH  17  20
HETATM   20  O   UNL     1     -30.518  39.661 -48.233  1.00  0.00    -0.356 OA
HETATM   21  C   UNL     1     -30.270  39.891 -46.851  1.00  0.00     0.210 C 
ENDBRANCH  17  20
ENDBRANCH   9  10
ENDBRANCH   6   9
ENDBRANCH   2   5
BRANCH   1  22
HETATM   22  C   UNL     1     -35.689  41.154 -57.330  1.00  0.00     0.058 A 
HETATM   23  C   UNL     1     -36.241  40.020 -57.927  1.00  0.00     0.029 A 
HETATM   24  N   UNL     1     -36.940  40.402 -59.071  1.00  0.00    -0.319 N 
HETATM   25  C   UNL     1     -36.195  38.610 -57.422  1.00  0.00     0.070 C 
HETATM   26  C   UNL     1     -36.907  41.791 -59.149  1.00  0.00     0.014 A 
HETATM   27  C   UNL     1     -37.492  42.600 -60.259  1.00  0.00     0.068 C 
HETATM   28  C   UNL     1     -36.143  42.258 -58.099  1.00  0.00     0.044 A 
BRANCH  24  29
HETATM   29  C   UNL     1     -37.554  39.526 -60.015  1.00  0.00     0.039 A 
HETATM   30  C   UNL     1     -38.825  38.998 -59.751  1.00  0.00     0.030 A 
HETATM   31  C   UNL     1     -39.423  38.129 -60.666  1.00  0.00     0.002 A 
HETATM   32  C   UNL     1     -38.760  37.786 -61.842  1.00  0.00     0.000 A 
HETATM   33  C   UNL     1     -37.496  38.311 -62.108  1.00  0.00     0.002 A 
HETATM   34  C   UNL     1     -36.891  39.179 -61.197  1.00  0.00     0.030 A 
ENDBRANCH  24  29
ENDBRANCH   1  22
TORSDOF 6
ENDMDL
MODEL 2
REMARK VINA RESULT:      -8.5     15.846     18.234
REMARK  6 active torsions:
REMARK  status: ('A' for Active; 'I' for Inactive)
REMARK    1  A    between atoms: N_3  and  C_4 
REMARK    2  A    between atoms: C_12  and  C_13 
REMARK       I    between atoms: C_13  and  N_14 
REMARK    3  A    between atoms: N_14  and  N_15 
REMARK       I    between atoms: N_15  and  C_16 
REMARK    4  A    between atoms: C_16  and  C_17 
REMARK    5  A    between atoms: C_17  and  C_18 
REMARK    6  A    between atoms: C_23  and  O_24 
ROOT
HETATM    1  C   UNL     1     -43.039  57.185 -57.568  1.00  0.00     0.272 C 
HETATM    2  N   UNL     1     -42.967  56.094 -56.723  1.00  0.00    -0.263 N 
HETATM    3  O   UNL     1     -42.033  57.810 -57.902  1.00  0.00    -0.266 OA
HETATM    4  H   UNL     1     -43.757  55.489 -56.521  1.00  0.00     0.190 HD
ENDROOT
BRANCH   2   5
HETATM    5  N   UNL     1     -41.708  55.621 -56.336  1.00  0.00    -0.267 N 
HETATM    6  C   UNL     1     -41.647  54.507 -55.524  1.00  0.00     0.240 C 
HETATM    7  O   UNL     1     -42.656  53.885 -55.187  1.00  0.00    -0.272 OA
HETATM    8  H   UNL     1     -40.912  56.233 -56.513  1.00  0.00     0.190 HD
BRANCH   6   9
HETATM    9  C   UNL     1     -40.245  54.057 -55.159  1.00  0.00     0.145 C 
BRANCH   9  10
HETATM   10  C   UNL     1     -40.200  53.270 -53.888  1.00  0.00    -0.021 A 
HETATM   11  C   UNL     1     -40.509  53.743 -52.572  1.00  0.00     0.001 A 
HETATM   12  C   UNL     1     -40.343  52.673 -51.694  1.00  0.00     0.043 A 
HETATM   13  C   UNL     1     -40.924  54.983 -52.044  1.00  0.00     0.051 A 
HETATM   14  C   UNL     1     -40.575  52.781 -50.318  1.00  0.00     0.033 A 
HETATM   15  N   UNL     1     -39.932  51.595 -52.441  1.00  0.00    -0.365 N 
HETATM   16  C   UNL     1     -41.006  54.020 -49.824  1.00  0.00     0.039 A 
HETATM   17  C   UNL     1     -41.192  55.108 -50.674  1.00  0.00     0.069 A 
HETATM   18  H   UNL     1     -39.730  50.679 -52.063  1.00  0.00     0.165 HD
HETATM   19  C   UNL     1     -39.845  51.941 -53.761  1.00  0.00     0.097 A 
BRANCH  17  20
HETATM   20  O   UNL     1     -41.610  56.355 -50.289  1.00  0.00    -0.356 OA
HETATM   21  C   UNL     1     -41.209  57.437 -51.120  1.00  0.00     0.210 C 
ENDBRANCH  17  20
ENDBRANCH   9  10
ENDBRANCH   6   9
ENDBRANCH   2   5
BRANCH   1  22
HETATM   22  C   UNL     1     -44.392  57.527 -58.022  1.00  0.00     0.058 A 
HETATM   23  C   UNL     1     -44.914  57.258 -59.288  1.00  0.00     0.029 A 
HETATM   24  N   UNL     1     -46.200  57.792 -59.372  1.00  0.00    -0.319 N 
HETATM   25  C   UNL     1     -44.281  56.457 -60.385  1.00  0.00     0.070 C 
HETATM   26  C   UNL     1     -46.526  58.323 -58.128  1.00  0.00     0.014 A 
HETATM   27  C   UNL     1     -47.795  59.040 -57.810  1.00  0.00     0.068 C 
HETATM   28  C   UNL     1     -45.431  58.172 -57.301  1.00  0.00     0.044 A 
BRANCH  24  29
HETATM   29  C   UNL     1     -47.024  57.821 -60.537  1.00  0.00     0.039 A 
HETATM   30  C   UNL     1     -47.259  59.037 -61.193  1.00  0.00     0.030 A 
HETATM   31  C   UNL     1     -48.076  59.072 -62.325  1.00  0.00     0.002 A 
HETATM   32  C   UNL     1     -48.656  57.901 -62.806  1.00  0.00     0.000 A 
HETATM   33  C   UNL     1     -48.421  56.689 -62.157  1.00  0.00     0.002 A 
HETATM   34  C   UNL     1     -47.608  56.647 -61.023  1.00  0.00     0.030 A 
ENDBRANCH  24  29
ENDBRANCH   1  22
TORSDOF 6
ENDMDL
MODEL 3
REMARK VINA RESULT:      -8.5     16.542     19.221
REMARK  6 active torsions:
REMARK  status: ('A' for Active; 'I' for Inactive)
REMARK    1  A    between atoms: N_3  and  C_4 
REMARK    2  A    between atoms: C_12  and  C_13 
REMARK       I    between atoms: C_13  and  N_14 
REMARK    3  A    between atoms: N_14  and  N_15 
REMARK       I    between atoms: N_15  and  C_16 
REMARK    4  A    between atoms: C_16  and  C_17 
REMARK    5  A    between atoms: C_17  and  C_18 
REMARK    6  A    between atoms: C_23  and  O_24 
ROOT
HETATM    1  C   UNL     1     -43.468  57.716 -58.123  1.00  0.00     0.272 C 
HETATM    2  N   UNL     1     -42.689  56.580 -58.030  1.00  0.00    -0.263 N 
HETATM    3  O   UNL     1     -44.581  57.780 -57.601  1.00  0.00    -0.266 OA
HETATM    4  H   UNL     1     -41.725  56.534 -58.347  1.00  0.00     0.190 HD
ENDROOT
BRANCH   2   5
HETATM    5  N   UNL     1     -43.127  55.523 -57.224  1.00  0.00    -0.267 N 
HETATM    6  C   UNL     1     -42.550  55.364 -55.980  1.00  0.00     0.240 C 
HETATM    7  O   UNL     1     -41.716  56.157 -55.538  1.00  0.00    -0.272 OA
HETATM    8  H   UNL     1     -43.708  54.814 -57.669  1.00  0.00     0.190 HD
BRANCH   6   9
HETATM    9  C   UNL     1     -43.089  54.202 -55.169  1.00  0.00     0.145 C 
BRANCH   9  10
HETATM   10  C   UNL     1     -42.551  54.169 -53.774  1.00  0.00    -0.021 A 
HETATM   11  C   UNL     1     -41.520  53.313 -53.268  1.00  0.00     0.001 A 
HETATM   12  C   UNL     1     -41.333  53.632 -51.924  1.00  0.00     0.043 A 
HETATM   13  C   UNL     1     -40.718  52.299 -53.832  1.00  0.00     0.051 A 
HETATM   14  C   UNL     1     -40.385  52.991 -51.120  1.00  0.00     0.033 A 
HETATM   15  N   UNL     1     -42.227  54.630 -51.615  1.00  0.00    -0.365 N 
HETATM   16  C   UNL     1     -39.589  52.001 -51.712  1.00  0.00     0.039 A 
HETATM   17  C   UNL     1     -39.741  51.663 -53.055  1.00  0.00     0.069 A 
HETATM   18  H   UNL     1     -42.319  55.056 -50.703  1.00  0.00     0.165 HD
HETATM   19  C   UNL     1     -42.962  54.963 -52.720  1.00  0.00     0.097 A 
BRANCH  17  20
HETATM   20  O   UNL     1     -39.013  50.714 -53.723  1.00  0.00    -0.356 OA
HETATM   21  C   UNL     1     -39.718  49.947 -54.691  1.00  0.00     0.210 C 
ENDBRANCH  17  20
ENDBRANCH   9  10
ENDBRANCH   6   9
ENDBRANCH   2   5
BRANCH   1  22
HETATM   22  C   UNL     1     -42.868  58.818 -58.884  1.00  0.00     0.058 A 
HETATM   23  C   UNL     1     -42.292  59.963 -58.333  1.00  0.00     0.029 A 
HETATM   24  N   UNL     1     -41.894  60.813 -59.366  1.00  0.00    -0.319 N 
HETATM   25  C   UNL     1     -42.037  60.251 -56.885  1.00  0.00     0.070 C 
HETATM   26  C   UNL     1     -42.139  60.165 -60.573  1.00  0.00     0.014 A 
HETATM   27  C   UNL     1     -41.906  60.756 -61.923  1.00  0.00     0.068 C 
HETATM   28  C   UNL     1     -42.737  58.953 -60.291  1.00  0.00     0.044 A 
BRANCH  24  29
HETATM   29  C   UNL     1     -41.363  62.129 -59.215  1.00  0.00     0.039 A 
HETATM   30  C   UNL     1     -39.975  62.318 -59.168  1.00  0.00     0.030 A 
HETATM   31  C   UNL     1     -39.451  63.602 -59.007  1.00  0.00     0.002 A 
HETATM   32  C   UNL     1     -40.304  64.697 -58.894  1.00  0.00     0.000 A 
HETATM   33  C   UNL     1     -41.686  64.512 -58.942  1.00  0.00     0.002 A 
HETATM   34  C   UNL     1     -42.217  63.231 -59.101  1.00  0.00     0.030 A 
ENDBRANCH  24  29
ENDBRANCH   1  22
TORSDOF 6
ENDMDL
MODEL 4
REMARK VINA RESULT:      -8.2     16.078     18.655
REMARK  6 active torsions:
REMARK  status: ('A' for Active; 'I' for Inactive)
REMARK    1  A    between atoms: N_3  and  C_4 
REMARK    2  A    between atoms: C_12  and  C_13 
REMARK       I    between atoms: C_13  and  N_14 
REMARK    3  A    between atoms: N_14  and  N_15 
REMARK       I    between atoms: N_15  and  C_16 
REMARK    4  A    between atoms: C_16  and  C_17 
REMARK    5  A    between atoms: C_17  and  C_18 
REMARK    6  A    between atoms: C_23  and  O_24 
ROOT
HETATM    1  C   UNL     1     -42.728  56.608 -57.059  1.00  0.00     0.272 C 
HETATM    2  N   UNL     1     -41.925  56.192 -56.015  1.00  0.00    -0.263 N 
HETATM    3  O   UNL     1     -43.409  55.812 -57.706  1.00  0.00    -0.266 OA
HETATM    4  H   UNL     1     -41.443  56.831 -55.390  1.00  0.00     0.190 HD
ENDROOT
BRANCH   2   5
HETATM    5  N   UNL     1     -41.981  54.853 -55.611  1.00  0.00    -0.267 N 
HETATM    6  C   UNL     1     -40.830  54.266 -55.125  1.00  0.00     0.240 C 
HETATM    7  O   UNL     1     -39.782  54.899 -54.978  1.00  0.00    -0.272 OA
HETATM    8  H   UNL     1     -42.813  54.327 -55.873  1.00  0.00     0.190 HD
BRANCH   6   9
HETATM    9  C   UNL     1     -40.981  52.817 -54.702  1.00  0.00     0.145 C 
BRANCH   9  10
HETATM   10  C   UNL     1     -40.495  52.566 -53.310  1.00  0.00    -0.021 A 
HETATM   11  C   UNL     1     -40.882  53.269 -52.123  1.00  0.00     0.001 A 
HETATM   12  C   UNL     1     -40.193  52.698 -51.055  1.00  0.00     0.043 A 
HETATM   13  C   UNL     1     -41.766  54.335 -51.854  1.00  0.00     0.051 A 
HETATM   14  C   UNL     1     -40.344  53.137 -49.735  1.00  0.00     0.033 A 
HETATM   15  N   UNL     1     -39.402  51.698 -51.570  1.00  0.00    -0.365 N 
HETATM   16  C   UNL     1     -41.243  54.185 -49.495  1.00  0.00     0.039 A 
HETATM   17  C   UNL     1     -41.958  54.773 -50.538  1.00  0.00     0.069 A 
HETATM   18  H   UNL     1     -38.785  51.114 -51.022  1.00  0.00     0.165 HD
HETATM   19  C   UNL     1     -39.578  51.608 -52.924  1.00  0.00     0.097 A 
BRANCH  17  20
HETATM   20  O   UNL     1     -42.857  55.798 -50.405  1.00  0.00    -0.356 OA
HETATM   21  C   UNL     1     -42.637  56.937 -51.228  1.00  0.00     0.210 C 
ENDBRANCH  17  20
ENDBRANCH   9  10
ENDBRANCH   6   9
ENDBRANCH   2   5
BRANCH   1  22
HETATM   22  C   UNL     1     -42.699  58.050 -57.326  1.00  0.00     0.058 A 
HETATM   23  C   UNL     1     -42.097  58.658 -58.429  1.00  0.00     0.029 A 
HETATM   24  N   UNL     1     -42.212  60.043 -58.303  1.00  0.00    -0.319 N 
HETATM   25  C   UNL     1     -41.490  57.986 -59.622  1.00  0.00     0.070 C 
HETATM   26  C   UNL     1     -42.966  60.309 -57.164  1.00  0.00     0.014 A 
HETATM   27  C   UNL     1     -43.273  61.672 -56.641  1.00  0.00     0.068 C 
HETATM   28  C   UNL     1     -43.262  59.104 -56.559  1.00  0.00     0.044 A 
BRANCH  24  29
HETATM   29  C   UNL     1     -41.632  61.017 -59.170  1.00  0.00     0.039 A 
HETATM   30  C   UNL     1     -40.502  61.733 -58.754  1.00  0.00     0.030 A 
HETATM   31  C   UNL     1     -39.939  62.697 -59.593  1.00  0.00     0.002 A 
HETATM   32  C   UNL     1     -40.497  62.946 -60.845  1.00  0.00     0.000 A 
HETATM   33  C   UNL     1     -41.620  62.234 -61.263  1.00  0.00     0.002 A 
HETATM   34  C   UNL     1     -42.190  61.270 -60.427  1.00  0.00     0.030 A 
ENDBRANCH  24  29
ENDBRANCH   1  22
TORSDOF 6
ENDMDL
MODEL 5
REMARK VINA RESULT:      -8.2     16.469     19.121
REMARK  6 active torsions:
REMARK  status: ('A' for Active; 'I' for Inactive)
REMARK    1  A    between atoms: N_3  and  C_4 
REMARK    2  A    between atoms: C_12  and  C_13 
REMARK       I    between atoms: C_13  and  N_14 
REMARK    3  A    between atoms: N_14  and  N_15 
REMARK       I    between atoms: N_15  and  C_16 
REMARK    4  A    between atoms: C_16  and  C_17 
REMARK    5  A    between atoms: C_17  and  C_18 
REMARK    6  A    between atoms: C_23  and  O_24 
ROOT
HETATM    1  C   UNL     1     -42.823  56.647 -56.472  1.00  0.00     0.272 C 
HETATM    2  N   UNL     1     -42.044  55.514 -56.604  1.00  0.00    -0.263 N 
HETATM    3  O   UNL     1     -43.720  56.719 -55.632  1.00  0.00    -0.266 OA
HETATM    4  H   UNL     1     -41.225  55.464 -57.203  1.00  0.00     0.190 HD
ENDROOT
BRANCH   2   5
HETATM    5  N   UNL     1     -42.202  54.474 -55.681  1.00  0.00    -0.267 N 
HETATM    6  C   UNL     1     -41.072  53.939 -55.096  1.00  0.00     0.240 C 
HETATM    7  O   UNL     1     -39.945  54.391 -55.310  1.00  0.00    -0.272 OA
HETATM    8  H   UNL     1     -43.121  54.036 -55.634  1.00  0.00     0.190 HD
BRANCH   6   9
HETATM    9  C   UNL     1     -41.333  52.823 -54.102  1.00  0.00     0.145 C 
BRANCH   9  10
HETATM   10  C   UNL     1     -40.785  53.117 -52.742  1.00  0.00    -0.021 A 
HETATM   11  C   UNL     1     -41.142  54.210 -51.887  1.00  0.00     0.001 A 
HETATM   12  C   UNL     1     -40.395  54.087 -50.717  1.00  0.00     0.043 A 
HETATM   13  C   UNL     1     -42.042  55.291 -51.996  1.00  0.00     0.051 A 
HETATM   14  C   UNL     1     -40.504  54.988 -49.653  1.00  0.00     0.033 A 
HETATM   15  N   UNL     1     -39.599  52.975 -50.858  1.00  0.00    -0.365 N 
HETATM   16  C   UNL     1     -41.420  56.041 -49.780  1.00  0.00     0.039 A 
HETATM   17  C   UNL     1     -42.191  56.189 -50.931  1.00  0.00     0.069 A 
HETATM   18  H   UNL     1     -38.946  52.645 -50.161  1.00  0.00     0.165 HD
HETATM   19  C   UNL     1     -39.828  52.382 -52.070  1.00  0.00     0.097 A 
BRANCH  17  20
HETATM   20  O   UNL     1     -43.111  57.181 -51.150  1.00  0.00    -0.356 OA
HETATM   21  C   UNL     1     -42.732  58.197 -52.069  1.00  0.00     0.210 C 
ENDBRANCH  17  20
ENDBRANCH   9  10
ENDBRANCH   6   9
ENDBRANCH   2   5
BRANCH   1  22
HETATM   22  C   UNL     1     -42.498  57.734 -57.402  1.00  0.00     0.058 A 
HETATM   23  C   UNL     1     -42.240  59.058 -57.043  1.00  0.00     0.029 A 
HETATM   24  N   UNL     1     -42.041  59.812 -58.200  1.00  0.00    -0.319 N 
HETATM   25  C   UNL     1     -42.103  59.618 -55.661  1.00  0.00     0.070 C 
HETATM   26  C   UNL     1     -42.084  58.946 -59.289  1.00  0.00     0.014 A 
HETATM   27  C   UNL     1     -41.970  59.362 -60.717  1.00  0.00     0.068 C 
HETATM   28  C   UNL     1     -42.367  57.680 -58.815  1.00  0.00     0.044 A 
BRANCH  24  29
HETATM   29  C   UNL     1     -41.859  61.225 -58.261  1.00  0.00     0.039 A 
HETATM   30  C   UNL     1     -40.569  61.756 -58.405  1.00  0.00     0.030 A 
HETATM   31  C   UNL     1     -40.385  63.139 -58.452  1.00  0.00     0.002 A 
HETATM   32  C   UNL     1     -41.481  63.994 -58.359  1.00  0.00     0.000 A 
HETATM   33  C   UNL     1     -42.766  63.470 -58.218  1.00  0.00     0.002 A 
HETATM   34  C   UNL     1     -42.957  62.087 -58.168  1.00  0.00     0.030 A 
ENDBRANCH  24  29
ENDBRANCH   1  22
TORSDOF 6
ENDMDL
MODEL 6
REMARK VINA RESULT:      -8.1     15.685     17.996
REMARK  6 active torsions:
REMARK  status: ('A' for Active; 'I' for Inactive)
REMARK    1  A    between atoms: N_3  and  C_4 
REMARK    2  A    between atoms: C_12  and  C_13 
REMARK       I    between atoms: C_13  and  N_14 
REMARK    3  A    between atoms: N_14  and  N_15 
REMARK       I    between atoms: N_15  and  C_16 
REMARK    4  A    between atoms: C_16  and  C_17 
REMARK    5  A    between atoms: C_17  and  C_18 
REMARK    6  A    between atoms: C_23  and  O_24 
ROOT
HETATM    1  C   UNL     1     -41.941  58.612 -55.000  1.00  0.00     0.272 C 
HETATM    2  N   UNL     1     -41.911  57.391 -54.355  1.00  0.00    -0.263 N 
HETATM    3  O   UNL     1     -41.559  59.643 -54.447  1.00  0.00    -0.266 OA
HETATM    4  H   UNL     1     -42.108  56.509 -54.817  1.00  0.00     0.190 HD
ENDROOT
BRANCH   2   5
HETATM    5  N   UNL     1     -41.321  57.310 -53.088  1.00  0.00    -0.267 N 
HETATM    6  C   UNL     1     -42.062  56.777 -52.053  1.00  0.00     0.240 C 
HETATM    7  O   UNL     1     -43.192  56.315 -52.224  1.00  0.00    -0.272 OA
HETATM    8  H   UNL     1     -40.450  57.822 -52.952  1.00  0.00     0.190 HD
BRANCH   6   9
HETATM    9  C   UNL     1     -41.345  56.718 -50.717  1.00  0.00     0.145 C 
BRANCH   9  10
HETATM   10  C   UNL     1     -41.041  55.320 -50.283  1.00  0.00    -0.021 A 
HETATM   11  C   UNL     1     -40.700  54.212 -51.125  1.00  0.00     0.001 A 
HETATM   12  C   UNL     1     -40.491  53.108 -50.299  1.00  0.00     0.043 A 
HETATM   13  C   UNL     1     -40.539  54.046 -52.516  1.00  0.00     0.051 A 
HETATM   14  C   UNL     1     -40.127  51.852 -50.795  1.00  0.00     0.033 A 
HETATM   15  N   UNL     1     -40.714  53.520 -49.007  1.00  0.00    -0.365 N 
HETATM   16  C   UNL     1     -39.955  51.720 -52.179  1.00  0.00     0.039 A 
HETATM   17  C   UNL     1     -40.146  52.805 -53.034  1.00  0.00     0.069 A 
HETATM   18  H   UNL     1     -40.639  52.924 -48.194  1.00  0.00     0.165 HD
HETATM   19  C   UNL     1     -41.042  54.848 -48.985  1.00  0.00     0.097 A 
BRANCH  17  20
HETATM   20  O   UNL     1     -40.002  52.778 -54.396  1.00  0.00    -0.356 OA
HETATM   21  C   UNL     1     -40.129  54.025 -55.066  1.00  0.00     0.210 C 
ENDBRANCH  17  20
ENDBRANCH   9  10
ENDBRANCH   6   9
ENDBRANCH   2   5
BRANCH   1  22
HETATM   22  C   UNL     1     -42.459  58.575 -56.372  1.00  0.00     0.058 A 
HETATM   23  C   UNL     1     -43.740  58.164 -56.744  1.00  0.00     0.029 A 
HETATM   24  N   UNL     1     -43.842  58.198 -58.135  1.00  0.00    -0.319 N 
HETATM   25  C   UNL     1     -44.884  57.814 -55.841  1.00  0.00     0.070 C 
HETATM   26  C   UNL     1     -42.654  58.717 -58.639  1.00  0.00     0.014 A 
HETATM   27  C   UNL     1     -42.334  58.868 -60.089  1.00  0.00     0.068 C 
HETATM   28  C   UNL     1     -41.803  58.944 -57.576  1.00  0.00     0.044 A 
BRANCH  24  29
HETATM   29  C   UNL     1     -44.955  57.749 -58.907  1.00  0.00     0.039 A 
HETATM   30  C   UNL     1     -44.995  56.425 -59.365  1.00  0.00     0.030 A 
HETATM   31  C   UNL     1     -46.075  55.985 -60.133  1.00  0.00     0.002 A 
HETATM   32  C   UNL     1     -47.115  56.859 -60.443  1.00  0.00     0.000 A 
HETATM   33  C   UNL     1     -47.079  58.176 -59.987  1.00  0.00     0.002 A 
HETATM   34  C   UNL     1     -46.000  58.624 -59.221  1.00  0.00     0.030 A 
ENDBRANCH  24  29
ENDBRANCH   1  22
TORSDOF 6
ENDMDL
MODEL 7
REMARK VINA RESULT:      -8.1     20.308     22.461
REMARK  6 active torsions:
REMARK  status: ('A' for Active; 'I' for Inactive)
REMARK    1  A    between atoms: N_3  and  C_4 
REMARK    2  A    between atoms: C_12  and  C_13 
REMARK       I    between atoms: C_13  and  N_14 
REMARK    3  A    between atoms: N_14  and  N_15 
REMARK       I    between atoms: N_15  and  C_16 
REMARK    4  A    between atoms: C_16  and  C_17 
REMARK    5  A    between atoms: C_17  and  C_18 
REMARK    6  A    between atoms: C_23  and  O_24 
ROOT
HETATM    1  C   UNL     1     -43.616  58.766 -51.403  1.00  0.00     0.272 C 
HETATM    2  N   UNL     1     -44.361  59.250 -50.345  1.00  0.00    -0.263 N 
HETATM    3  O   UNL     1     -43.155  59.515 -52.264  1.00  0.00    -0.266 OA
HETATM    4  H   UNL     1     -44.656  58.678 -49.560  1.00  0.00     0.190 HD
ENDROOT
BRANCH   2   5
HETATM    5  N   UNL     1     -44.494  60.634 -50.189  1.00  0.00    -0.267 N 
HETATM    6  C   UNL     1     -45.290  61.106 -49.165  1.00  0.00     0.240 C 
HETATM    7  O   UNL     1     -45.829  60.351 -48.353  1.00  0.00    -0.272 OA
HETATM    8  H   UNL     1     -44.153  61.218 -50.952  1.00  0.00     0.190 HD
BRANCH   6   9
HETATM    9  C   UNL     1     -45.370  62.617 -49.061  1.00  0.00     0.145 C 
BRANCH   9  10
HETATM   10  C   UNL     1     -46.405  63.077 -48.085  1.00  0.00    -0.021 A 
HETATM   11  C   UNL     1     -46.204  63.396 -46.703  1.00  0.00     0.001 A 
HETATM   12  C   UNL     1     -47.435  63.788 -46.180  1.00  0.00     0.043 A 
HETATM   13  C   UNL     1     -45.084  63.397 -45.846  1.00  0.00     0.051 A 
HETATM   14  C   UNL     1     -47.600  64.182 -44.848  1.00  0.00     0.033 A 
HETATM   15  N   UNL     1     -48.356  63.695 -47.197  1.00  0.00    -0.365 N 
HETATM   16  C   UNL     1     -46.466  64.193 -44.025  1.00  0.00     0.039 A 
HETATM   17  C   UNL     1     -45.217  63.817 -44.517  1.00  0.00     0.069 A 
HETATM   18  H   UNL     1     -49.338  63.914 -47.103  1.00  0.00     0.165 HD
HETATM   19  C   UNL     1     -47.748  63.271 -48.347  1.00  0.00     0.097 A 
BRANCH  17  20
HETATM   20  O   UNL     1     -44.053  63.795 -43.794  1.00  0.00    -0.356 OA
HETATM   21  C   UNL     1     -43.764  62.585 -43.106  1.00  0.00     0.210 C 
ENDBRANCH  17  20
ENDBRANCH   9  10
ENDBRANCH   6   9
ENDBRANCH   2   5
BRANCH   1  22
HETATM   22  C   UNL     1     -43.425  57.311 -51.411  1.00  0.00     0.058 A 
HETATM   23  C   UNL     1     -42.374  56.635 -52.032  1.00  0.00     0.029 A 
HETATM   24  N   UNL     1     -42.567  55.261 -51.886  1.00  0.00    -0.319 N 
HETATM   25  C   UNL     1     -41.166  57.232 -52.688  1.00  0.00     0.070 C 
HETATM   26  C   UNL     1     -43.696  55.070 -51.094  1.00  0.00     0.014 A 
HETATM   27  C   UNL     1     -44.279  53.742 -50.744  1.00  0.00     0.068 C 
HETATM   28  C   UNL     1     -44.228  56.310 -50.805  1.00  0.00     0.044 A 
BRANCH  24  29
HETATM   29  C   UNL     1     -41.771  54.233 -52.471  1.00  0.00     0.039 A 
HETATM   30  C   UNL     1     -40.758  53.623 -51.719  1.00  0.00     0.030 A 
HETATM   31  C   UNL     1     -39.967  52.625 -52.293  1.00  0.00     0.002 A 
HETATM   32  C   UNL     1     -40.185  52.232 -53.612  1.00  0.00     0.000 A 
HETATM   33  C   UNL     1     -41.193  52.835 -54.362  1.00  0.00     0.002 A 
HETATM   34  C   UNL     1     -41.986  53.836 -53.796  1.00  0.00     0.030 A 
ENDBRANCH  24  29
ENDBRANCH   1  22
TORSDOF 6
ENDMDL
MODEL 8
REMARK VINA RESULT:      -8.0      2.014      2.702
REMARK  6 active torsions:
REMARK  status: ('A' for Active; 'I' for Inactive)
REMARK    1  A    between atoms: N_3  and  C_4 
REMARK    2  A    between atoms: C_12  and  C_13 
REMARK       I    between atoms: C_13  and  N_14 
REMARK    3  A    between atoms: N_14  and  N_15 
REMARK       I    between atoms: N_15  and  C_16 
REMARK    4  A    between atoms: C_16  and  C_17 
REMARK    5  A    between atoms: C_17  and  C_18 
REMARK    6  A    between atoms: C_23  and  O_24 
ROOT
HETATM    1  C   UNL     1     -36.233  41.759 -55.581  1.00  0.00     0.272 C 
HETATM    2  N   UNL     1     -37.256  41.833 -54.654  1.00  0.00    -0.263 N 
HETATM    3  O   UNL     1     -35.052  41.852 -55.247  1.00  0.00    -0.266 OA
HETATM    4  H   UNL     1     -38.228  41.646 -54.878  1.00  0.00     0.190 HD
ENDROOT
BRANCH   2   5
HETATM    5  N   UNL     1     -36.932  41.896 -53.294  1.00  0.00    -0.267 N 
HETATM    6  C   UNL     1     -37.064  40.750 -52.535  1.00  0.00     0.240 C 
HETATM    7  O   UNL     1     -37.393  39.670 -53.030  1.00  0.00    -0.272 OA
HETATM    8  H   UNL     1     -36.801  42.824 -52.894  1.00  0.00     0.190 HD
BRANCH   6   9
HETATM    9  C   UNL     1     -36.684  40.904 -51.075  1.00  0.00     0.145 C 
BRANCH   9  10
HETATM   10  C   UNL     1     -35.624  39.940 -50.648  1.00  0.00    -0.021 A 
HETATM   11  C   UNL     1     -34.350  39.730 -51.268  1.00  0.00     0.001 A 
HETATM   12  C   UNL     1     -33.683  38.750 -50.535  1.00  0.00     0.043 A 
HETATM   13  C   UNL     1     -33.695  40.290 -52.384  1.00  0.00     0.051 A 
HETATM   14  C   UNL     1     -32.397  38.307 -50.860  1.00  0.00     0.033 A 
HETATM   15  N   UNL     1     -34.523  38.363 -49.517  1.00  0.00    -0.365 N 
HETATM   16  C   UNL     1     -31.762  38.895 -51.962  1.00  0.00     0.039 A 
HETATM   17  C   UNL     1     -32.395  39.885 -52.712  1.00  0.00     0.069 A 
HETATM   18  H   UNL     1     -34.301  37.658 -48.827  1.00  0.00     0.165 HD
HETATM   19  C   UNL     1     -35.691  39.073 -49.573  1.00  0.00     0.097 A 
BRANCH  17  20
HETATM   20  O   UNL     1     -31.859  40.519 -53.802  1.00  0.00    -0.356 OA
HETATM   21  C   UNL     1     -31.984  39.843 -55.047  1.00  0.00     0.210 C 
ENDBRANCH  17  20
ENDBRANCH   9  10
ENDBRANCH   6   9
ENDBRANCH   2   5
BRANCH   1  22
HETATM   22  C   UNL     1     -36.669  41.566 -56.969  1.00  0.00     0.058 A 
HETATM   23  C   UNL     1     -36.990  40.341 -57.554  1.00  0.00     0.029 A 
HETATM   24  N   UNL     1     -37.290  40.546 -58.901  1.00  0.00    -0.319 N 
HETATM   25  C   UNL     1     -37.097  39.007 -56.880  1.00  0.00     0.070 C 
HETATM   26  C   UNL     1     -37.245  41.915 -59.147  1.00  0.00     0.014 A 
HETATM   27  C   UNL     1     -37.451  42.551 -60.481  1.00  0.00     0.068 C 
HETATM   28  C   UNL     1     -36.862  42.544 -57.980  1.00  0.00     0.044 A 
BRANCH  24  29
HETATM   29  C   UNL     1     -37.562  39.531 -59.866  1.00  0.00     0.039 A 
HETATM   30  C   UNL     1     -36.534  39.071 -60.701  1.00  0.00     0.030 A 
HETATM   31  C   UNL     1     -36.799  38.087 -61.657  1.00  0.00     0.002 A 
HETATM   32  C   UNL     1     -38.082  37.559 -61.779  1.00  0.00     0.000 A 
HETATM   33  C   UNL     1     -39.106  38.012 -60.948  1.00  0.00     0.002 A 
HETATM   34  C   UNL     1     -38.849  38.997 -59.993  1.00  0.00     0.030 A 
ENDBRANCH  24  29
ENDBRANCH   1  22
TORSDOF 6
ENDMDL
MODEL 9
REMARK VINA RESULT:      -7.7     18.941     21.334
REMARK  6 active torsions:
REMARK  status: ('A' for Active; 'I' for Inactive)
REMARK    1  A    between atoms: N_3  and  C_4 
REMARK    2  A    between atoms: C_12  and  C_13 
REMARK       I    between atoms: C_13  and  N_14 
REMARK    3  A    between atoms: N_14  and  N_15 
REMARK       I    between atoms: N_15  and  C_16 
REMARK    4  A    between atoms: C_16  and  C_17 
REMARK    5  A    between atoms: C_17  and  C_18 
REMARK    6  A    between atoms: C_23  and  O_24 
ROOT
HETATM    1  C   UNL     1     -41.748  58.441 -51.765  1.00  0.00     0.272 C 
HETATM    2  N   UNL     1     -42.610  58.791 -50.744  1.00  0.00    -0.263 N 
HETATM    3  O   UNL     1     -40.985  59.261 -52.274  1.00  0.00    -0.266 OA
HETATM    4  H   UNL     1     -43.167  58.118 -50.226  1.00  0.00     0.190 HD
ENDROOT
BRANCH   2   5
HETATM    5  N   UNL     1     -42.527  60.078 -50.200  1.00  0.00    -0.267 N 
HETATM    6  C   UNL     1     -43.437  61.027 -50.619  1.00  0.00     0.240 C 
HETATM    7  O   UNL     1     -44.352  60.760 -51.401  1.00  0.00    -0.272 OA
HETATM    8  H   UNL     1     -41.685  60.300 -49.670  1.00  0.00     0.190 HD
BRANCH   6   9
HETATM    9  C   UNL     1     -43.281  62.391 -49.973  1.00  0.00     0.145 C 
BRANCH   9  10
HETATM   10  C   UNL     1     -44.564  62.916 -49.410  1.00  0.00    -0.021 A 
HETATM   11  C   UNL     1     -45.323  62.357 -48.332  1.00  0.00     0.001 A 
HETATM   12  C   UNL     1     -46.436  63.173 -48.137  1.00  0.00     0.043 A 
HETATM   13  C   UNL     1     -45.163  61.234 -47.493  1.00  0.00     0.051 A 
HETATM   14  C   UNL     1     -47.392  62.925 -47.146  1.00  0.00     0.033 A 
HETATM   15  N   UNL     1     -46.369  64.180 -49.070  1.00  0.00    -0.365 N 
HETATM   16  C   UNL     1     -47.197  61.813 -46.315  1.00  0.00     0.039 A 
HETATM   17  C   UNL     1     -46.091  60.981 -46.475  1.00  0.00     0.069 A 
HETATM   18  H   UNL     1     -47.052  64.920 -49.166  1.00  0.00     0.165 HD
HETATM   19  C   UNL     1     -45.247  64.037 -49.839  1.00  0.00     0.097 A 
BRANCH  17  20
HETATM   20  O   UNL     1     -45.812  59.875 -45.715  1.00  0.00    -0.356 OA
HETATM   21  C   UNL     1     -46.832  58.887 -45.647  1.00  0.00     0.210 C 
ENDBRANCH  17  20
ENDBRANCH   9  10
ENDBRANCH   6   9
ENDBRANCH   2   5
BRANCH   1  22
HETATM   22  C   UNL     1     -41.820  57.036 -52.182  1.00  0.00     0.058 A 
HETATM   23  C   UNL     1     -41.157  55.973 -51.567  1.00  0.00     0.029 A 
HETATM   24  N   UNL     1     -41.411  54.804 -52.284  1.00  0.00    -0.319 N 
HETATM   25  C   UNL     1     -40.362  56.006 -50.298  1.00  0.00     0.070 C 
HETATM   26  C   UNL     1     -42.308  55.111 -53.302  1.00  0.00     0.014 A 
HETATM   27  C   UNL     1     -42.794  54.148 -54.333  1.00  0.00     0.068 C 
HETATM   28  C   UNL     1     -42.558  56.468 -53.253  1.00  0.00     0.044 A 
BRANCH  24  29
HETATM   29  C   UNL     1     -40.828  53.524 -52.039  1.00  0.00     0.039 A 
HETATM   30  C   UNL     1     -40.919  52.950 -50.764  1.00  0.00     0.030 A 
HETATM   31  C   UNL     1     -40.339  51.705 -50.517  1.00  0.00     0.002 A 
HETATM   32  C   UNL     1     -39.671  51.029 -51.536  1.00  0.00     0.000 A 
HETATM   33  C   UNL     1     -39.581  51.596 -52.807  1.00  0.00     0.002 A 
HETATM   34  C   UNL     1     -40.157  52.843 -53.060  1.00  0.00     0.030 A 
ENDBRANCH  24  29
ENDBRANCH   1  22
TORSDOF 6
ENDMDL
MODEL 10
REMARK VINA RESULT:      -7.7     17.203     19.897
REMARK  6 active torsions:
REMARK  status: ('A' for Active; 'I' for Inactive)
REMARK    1  A    between atoms: N_3  and  C_4 
REMARK    2  A    between atoms: C_12  and  C_13 
REMARK       I    between atoms: C_13  and  N_14 
REMARK    3  A    between atoms: N_14  and  N_15 
REMARK       I    between atoms: N_15  and  C_16 
REMARK    4  A    between atoms: C_16  and  C_17 
REMARK    5  A    between atoms: C_17  and  C_18 
REMARK    6  A    between atoms: C_23  and  O_24 
ROOT
HETATM    1  C   UNL     1     -41.524  57.651 -51.170  1.00  0.00     0.272 C 
HETATM    2  N   UNL     1     -41.476  57.006 -49.950  1.00  0.00    -0.263 N 
HETATM    3  O   UNL     1     -40.953  57.199 -52.162  1.00  0.00    -0.266 OA
HETATM    4  H   UNL     1     -42.027  57.288 -49.145  1.00  0.00     0.190 HD
ENDROOT
BRANCH   2   5
HETATM    5  N   UNL     1     -40.864  55.750 -49.873  1.00  0.00    -0.267 N 
HETATM    6  C   UNL     1     -41.662  54.643 -49.662  1.00  0.00     0.240 C 
HETATM    7  O   UNL     1     -42.891  54.722 -49.605  1.00  0.00    -0.272 OA
HETATM    8  H   UNL     1     -39.849  55.737 -49.785  1.00  0.00     0.190 HD
BRANCH   6   9
HETATM    9  C   UNL     1     -40.920  53.322 -49.601  1.00  0.00     0.145 C 
BRANCH   9  10
HETATM   10  C   UNL     1     -40.474  52.845 -50.947  1.00  0.00    -0.021 A 
HETATM   11  C   UNL     1     -41.045  53.187 -52.215  1.00  0.00     0.001 A 
HETATM   12  C   UNL     1     -40.310  52.526 -53.197  1.00  0.00     0.043 A 
HETATM   13  C   UNL     1     -42.117  54.009 -52.622  1.00  0.00     0.051 A 
HETATM   14  C   UNL     1     -40.592  52.647 -54.562  1.00  0.00     0.033 A 
HETATM   15  N   UNL     1     -39.340  51.793 -52.555  1.00  0.00    -0.365 N 
HETATM   16  C   UNL     1     -41.650  53.485 -54.938  1.00  0.00     0.039 A 
HETATM   17  C   UNL     1     -42.400  54.170 -53.984  1.00  0.00     0.069 A 
HETATM   18  H   UNL     1     -38.661  51.208 -53.020  1.00  0.00     0.165 HD
HETATM   19  C   UNL     1     -39.427  51.980 -51.202  1.00  0.00     0.097 A 
BRANCH  17  20
HETATM   20  O   UNL     1     -43.448  55.011 -54.251  1.00  0.00    -0.356 OA
HETATM   21  C   UNL     1     -43.214  56.016 -55.228  1.00  0.00     0.210 C 
ENDBRANCH  17  20
ENDBRANCH   9  10
ENDBRANCH   6   9
ENDBRANCH   2   5
BRANCH   1  22
HETATM   22  C   UNL     1     -42.296  58.899 -51.181  1.00  0.00     0.058 A 
HETATM   23  C   UNL     1     -43.519  59.089 -51.825  1.00  0.00     0.029 A 
HETATM   24  N   UNL     1     -43.912  60.419 -51.672  1.00  0.00    -0.319 N 
HETATM   25  C   UNL     1     -44.360  58.055 -52.510  1.00  0.00     0.070 C 
HETATM   26  C   UNL     1     -42.979  61.049 -50.854  1.00  0.00     0.014 A 
HETATM   27  C   UNL     1     -43.002  62.496 -50.489  1.00  0.00     0.068 C 
HETATM   28  C   UNL     1     -41.989  60.135 -50.554  1.00  0.00     0.044 A 
BRANCH  24  29
HETATM   29  C   UNL     1     -45.049  61.035 -52.275  1.00  0.00     0.039 A 
HETATM   30  C   UNL     1     -46.269  61.067 -51.587  1.00  0.00     0.030 A 
HETATM   31  C   UNL     1     -47.388  61.657 -52.179  1.00  0.00     0.002 A 
HETATM   32  C   UNL     1     -47.293  62.217 -53.451  1.00  0.00     0.000 A 
HETATM   33  C   UNL     1     -46.079  62.189 -54.137  1.00  0.00     0.002 A 
HETATM   34  C   UNL     1     -44.957  61.598 -53.552  1.00  0.00     0.030 A 
ENDBRANCH  24  29
ENDBRANCH   1  22
TORSDOF 6
ENDMDL
