MODEL 1
REMARK VINA RESULT:      -8.9      0.000      0.000
REMARK  14 active torsions:
REMARK  status: ('A' for Active; 'I' for Inactive)
REMARK    1  A    between atoms: C_2  and  N_3 
REMARK    2  A    between atoms: N_3  and  C_5 
REMARK    3  A    between atoms: N_3  and  C_39 
REMARK    4  A    between atoms: C_5  and  C_6 
REMARK    5  A    between atoms: C_6  and  C_7 
REMARK    6  A    between atoms: C_7  and  N_8 
REMARK    7  A    between atoms: C_11  and  O_12 
REMARK    8  A    between atoms: C_13  and  C_14 
REMARK    9  A    between atoms: C_14  and  C_15 
REMARK   10  A    between atoms: C_18  and  O_19 
REMARK   11  A    between atoms: O_19  and  C_20 
REMARK   12  A    between atoms: C_20  and  C_21 
REMARK   13  A    between atoms: C_31  and  C_32 
REMARK   14  A    between atoms: C_35  and  O_36 
ROOT
HETATM    1  N   UNL     1     -45.178  58.313 -54.932  1.00  0.00    -0.333 N 
HETATM    2  C   UNL     1     -44.904  59.584 -54.464  1.00  0.00     0.278 C 
HETATM    3  O   UNL     1     -44.983  60.644 -55.055  1.00  0.00    -0.265 OA
HETATM    4  C   UNL     1     -44.580  59.465 -53.025  1.00  0.00     0.146 C 
HETATM    5  C   UNL     1     -44.625  58.163 -52.719  1.00  0.00     0.059 C 
HETATM    6  C   UNL     1     -44.778  57.312 -53.949  1.00  0.00     0.161 C 
ENDROOT
BRANCH   5   7
HETATM    7  C   UNL     1     -44.623  57.472 -51.409  1.00  0.00     0.193 C 
HETATM    8  O   UNL     1     -45.500  57.747 -50.591  1.00  0.00    -0.287 OA
BRANCH   7   9
HETATM    9  C   UNL     1     -43.523  56.573 -50.982  1.00  0.00     0.015 A 
HETATM   10  C   UNL     1     -43.710  55.205 -50.758  1.00  0.00     0.018 A 
HETATM   11  C   UNL     1     -42.621  54.378 -50.451  1.00  0.00     0.038 A 
HETATM   12  C   UNL     1     -41.329  54.901 -50.413  1.00  0.00     0.069 A 
HETATM   13  C   UNL     1     -41.139  56.262 -50.659  1.00  0.00     0.038 A 
HETATM   14  C   UNL     1     -42.226  57.096 -50.943  1.00  0.00     0.018 A 
BRANCH  12  15
HETATM   15  O   UNL     1     -40.182  54.195 -50.181  1.00  0.00    -0.347 OA
BRANCH  15  16
HETATM   16  C   UNL     1     -40.317  52.809 -49.868  1.00  0.00     0.214 C 
BRANCH  16  17
HETATM   17  C   UNL     1     -40.055  51.986 -51.106  1.00  0.00    -0.034 A 
HETATM   18  C   UNL     1     -39.732  50.627 -51.014  1.00  0.00     0.010 A 
HETATM   19  C   UNL     1     -39.556  49.859 -52.168  1.00  0.00     0.007 A 
HETATM   20  C   UNL     1     -39.696  50.436 -53.434  1.00  0.00    -0.062 A 
HETATM   21  C   UNL     1     -39.543  49.613 -54.679  1.00  0.00     0.048 C 
HETATM   22  C   UNL     1     -40.020  51.794 -53.530  1.00  0.00     0.007 A 
HETATM   23  C   UNL     1     -40.195  52.562 -52.377  1.00  0.00     0.010 A 
ENDBRANCH  16  17
ENDBRANCH  15  16
ENDBRANCH  12  15
ENDBRANCH   7   9
ENDBRANCH   5   7
BRANCH   4  24
HETATM   24  O   UNL     1     -44.399  60.546 -52.220  1.00  0.00    -0.355 OA
HETATM   25  H   UNL     1     -43.881  61.194 -52.743  1.00  0.00     0.218 HD
ENDBRANCH   4  24
BRANCH   6  26
HETATM   26  C   UNL     1     -43.534  56.538 -54.357  1.00  0.00    -0.030 A 
HETATM   27  C   UNL     1     -43.634  55.161 -54.626  1.00  0.00     0.012 A 
HETATM   28  C   UNL     1     -42.515  54.419 -55.012  1.00  0.00     0.037 A 
HETATM   29  C   UNL     1     -41.284  55.051 -55.128  1.00  0.00     0.065 A 
HETATM   30  C   UNL     1     -41.154  56.406 -54.855  1.00  0.00     0.037 A 
HETATM   31  C   UNL     1     -42.271  57.147 -54.463  1.00  0.00     0.012 A 
BRANCH  29  32
HETATM   32  O   UNL     1     -40.165  54.371 -55.501  1.00  0.00    -0.361 OA
HETATM   33  H   UNL     1     -40.424  53.595 -56.025  1.00  0.00     0.217 HD
ENDBRANCH  29  32
ENDBRANCH   6  26
BRANCH   1  34
HETATM   34  C   UNL     1     -45.439  58.038 -56.337  1.00  0.00     0.129 C 
BRANCH  34  35
HETATM   35  C   UNL     1     -44.289  58.399 -57.279  1.00  0.00     0.048 C 
BRANCH  35  36
HETATM   36  C   UNL     1     -43.700  57.168 -57.963  1.00  0.00     0.236 C 
BRANCH  36  37
HETATM   37  N   UNL     1     -44.734  56.408 -58.788  1.00  0.00    -0.072 N 
HETATM   38  H   UNL     1     -45.494  56.170 -58.138  1.00  0.00     0.279 HD
BRANCH  37  39
HETATM   39  C   UNL     1     -44.196  55.079 -59.307  1.00  0.00     0.230 C 
HETATM   40  C   UNL     1     -44.753  54.760 -60.683  1.00  0.00     0.034 C 
ENDBRANCH  37  39
BRANCH  37  41
HETATM   41  C   UNL     1     -45.413  57.197 -59.899  1.00  0.00     0.230 C 
HETATM   42  C   UNL     1     -46.902  57.375 -59.668  1.00  0.00     0.034 C 
ENDBRANCH  37  41
ENDBRANCH  36  37
ENDBRANCH  35  36
ENDBRANCH  34  35
ENDBRANCH   1  34
TORSDOF 14
ENDMDL
MODEL 2
REMARK VINA RESULT:      -8.8      0.648      1.387
REMARK  14 active torsions:
REMARK  status: ('A' for Active; 'I' for Inactive)
REMARK    1  A    between atoms: C_2  and  N_3 
REMARK    2  A    between atoms: N_3  and  C_5 
REMARK    3  A    between atoms: N_3  and  C_39 
REMARK    4  A    between atoms: C_5  and  C_6 
REMARK    5  A    between atoms: C_6  and  C_7 
REMARK    6  A    between atoms: C_7  and  N_8 
REMARK    7  A    between atoms: C_11  and  O_12 
REMARK    8  A    between atoms: C_13  and  C_14 
REMARK    9  A    between atoms: C_14  and  C_15 
REMARK   10  A    between atoms: C_18  and  O_19 
REMARK   11  A    between atoms: O_19  and  C_20 
REMARK   12  A    between atoms: C_20  and  C_21 
REMARK   13  A    between atoms: C_31  and  C_32 
REMARK   14  A    between atoms: C_35  and  O_36 
ROOT
HETATM    1  N   UNL     1     -45.217  58.310 -54.947  1.00  0.00    -0.333 N 
HETATM    2  C   UNL     1     -44.940  59.589 -54.502  1.00  0.00     0.278 C 
HETATM    3  O   UNL     1     -45.018  60.638 -55.113  1.00  0.00    -0.265 OA
HETATM    4  C   UNL     1     -44.615  59.495 -53.061  1.00  0.00     0.146 C 
HETATM    5  C   UNL     1     -44.663  58.199 -52.732  1.00  0.00     0.059 C 
HETATM    6  C   UNL     1     -44.818  57.326 -53.946  1.00  0.00     0.161 C 
ENDROOT
BRANCH   5   7
HETATM    7  C   UNL     1     -44.661  57.533 -51.410  1.00  0.00     0.193 C 
HETATM    8  O   UNL     1     -45.546  57.812 -50.602  1.00  0.00    -0.287 OA
BRANCH   7   9
HETATM    9  C   UNL     1     -43.554  56.654 -50.959  1.00  0.00     0.015 A 
HETATM   10  C   UNL     1     -43.735  55.297 -50.673  1.00  0.00     0.018 A 
HETATM   11  C   UNL     1     -42.641  54.486 -50.345  1.00  0.00     0.038 A 
HETATM   12  C   UNL     1     -41.349  55.011 -50.350  1.00  0.00     0.069 A 
HETATM   13  C   UNL     1     -41.165  56.360 -50.658  1.00  0.00     0.038 A 
HETATM   14  C   UNL     1     -42.257  57.179 -50.963  1.00  0.00     0.018 A 
BRANCH  12  15
HETATM   15  O   UNL     1     -40.197  54.316 -50.104  1.00  0.00    -0.347 OA
BRANCH  15  16
HETATM   16  C   UNL     1     -40.324  52.937 -49.761  1.00  0.00     0.214 C 
BRANCH  16  17
HETATM   17  C   UNL     1     -40.136  52.092 -50.997  1.00  0.00    -0.034 A 
HETATM   18  C   UNL     1     -40.151  52.669 -52.274  1.00  0.00     0.010 A 
HETATM   19  C   UNL     1     -39.910  51.888 -53.408  1.00  0.00     0.007 A 
HETATM   20  C   UNL     1     -39.654  50.518 -53.286  1.00  0.00    -0.062 A 
HETATM   21  C   UNL     1     -39.362  49.678 -54.494  1.00  0.00     0.048 C 
HETATM   22  C   UNL     1     -39.638  49.940 -52.013  1.00  0.00     0.007 A 
HETATM   23  C   UNL     1     -39.879  50.719 -50.879  1.00  0.00     0.010 A 
ENDBRANCH  16  17
ENDBRANCH  15  16
ENDBRANCH  12  15
ENDBRANCH   7   9
ENDBRANCH   5   7
BRANCH   4  24
HETATM   24  O   UNL     1     -44.432  60.591 -52.276  1.00  0.00    -0.355 OA
HETATM   25  H   UNL     1     -43.790  60.328 -51.583  1.00  0.00     0.218 HD
ENDBRANCH   4  24
BRANCH   6  26
HETATM   26  C   UNL     1     -43.576  56.543 -54.341  1.00  0.00    -0.030 A 
HETATM   27  C   UNL     1     -42.344  57.214 -54.452  1.00  0.00     0.012 A 
HETATM   28  C   UNL     1     -41.179  56.528 -54.804  1.00  0.00     0.037 A 
HETATM   29  C   UNL     1     -41.240  55.162 -55.051  1.00  0.00     0.065 A 
HETATM   30  C   UNL     1     -42.445  54.478 -54.961  1.00  0.00     0.037 A 
HETATM   31  C   UNL     1     -43.611  55.166 -54.616  1.00  0.00     0.012 A 
BRANCH  29  32
HETATM   32  O   UNL     1     -40.132  54.450 -55.397  1.00  0.00    -0.361 OA
HETATM   33  H   UNL     1     -40.072  53.661 -54.832  1.00  0.00     0.217 HD
ENDBRANCH  29  32
ENDBRANCH   6  26
BRANCH   1  34
HETATM   34  C   UNL     1     -45.479  58.010 -56.347  1.00  0.00     0.129 C 
BRANCH  34  35
HETATM   35  C   UNL     1     -44.287  58.235 -57.279  1.00  0.00     0.048 C 
BRANCH  35  36
HETATM   36  C   UNL     1     -43.760  56.926 -57.860  1.00  0.00     0.236 C 
BRANCH  36  37
HETATM   37  N   UNL     1     -44.258  56.674 -59.279  1.00  0.00    -0.072 N 
HETATM   38  H   UNL     1     -45.244  56.966 -59.288  1.00  0.00     0.279 HD
BRANCH  37  39
HETATM   39  C   UNL     1     -44.259  55.192 -59.638  1.00  0.00     0.230 C 
HETATM   40  C   UNL     1     -44.965  54.946 -60.959  1.00  0.00     0.034 C 
ENDBRANCH  37  39
BRANCH  37  41
HETATM   41  C   UNL     1     -43.603  57.504 -60.374  1.00  0.00     0.230 C 
HETATM   42  C   UNL     1     -42.091  57.547 -60.255  1.00  0.00     0.034 C 
ENDBRANCH  37  41
ENDBRANCH  36  37
ENDBRANCH  35  36
ENDBRANCH  34  35
ENDBRANCH   1  34
TORSDOF 14
ENDMDL
MODEL 3
REMARK VINA RESULT:      -8.1      4.175      8.636
REMARK  14 active torsions:
REMARK  status: ('A' for Active; 'I' for Inactive)
REMARK    1  A    between atoms: C_2  and  N_3 
REMARK    2  A    between atoms: N_3  and  C_5 
REMARK    3  A    between atoms: N_3  and  C_39 
REMARK    4  A    between atoms: C_5  and  C_6 
REMARK    5  A    between atoms: C_6  and  C_7 
REMARK    6  A    between atoms: C_7  and  N_8 
REMARK    7  A    between atoms: C_11  and  O_12 
REMARK    8  A    between atoms: C_13  and  C_14 
REMARK    9  A    between atoms: C_14  and  C_15 
REMARK   10  A    between atoms: C_18  and  O_19 
REMARK   11  A    between atoms: O_19  and  C_20 
REMARK   12  A    between atoms: C_20  and  C_21 
REMARK   13  A    between atoms: C_31  and  C_32 
REMARK   14  A    between atoms: C_35  and  O_36 
ROOT
HETATM    1  N   UNL     1     -42.792  55.173 -52.997  1.00  0.00    -0.333 N 
HETATM    2  C   UNL     1     -42.909  54.967 -54.359  1.00  0.00     0.278 C 
HETATM    3  O   UNL     1     -42.584  53.992 -55.009  1.00  0.00    -0.265 OA
HETATM    4  C   UNL     1     -43.622  56.135 -54.922  1.00  0.00     0.146 C 
HETATM    5  C   UNL     1     -43.848  56.982 -53.912  1.00  0.00     0.059 C 
HETATM    6  C   UNL     1     -43.138  56.549 -52.659  1.00  0.00     0.161 C 
ENDROOT
BRANCH   5   7
HETATM    7  C   UNL     1     -44.710  58.182 -53.826  1.00  0.00     0.193 C 
HETATM    8  O   UNL     1     -45.457  58.447 -54.767  1.00  0.00    -0.287 OA
BRANCH   7   9
HETATM    9  C   UNL     1     -44.606  59.164 -52.718  1.00  0.00     0.015 A 
HETATM   10  C   UNL     1     -43.894  60.362 -52.835  1.00  0.00     0.018 A 
HETATM   11  C   UNL     1     -43.904  61.302 -51.797  1.00  0.00     0.038 A 
HETATM   12  C   UNL     1     -44.667  61.076 -50.651  1.00  0.00     0.069 A 
HETATM   13  C   UNL     1     -45.397  59.891 -50.543  1.00  0.00     0.038 A 
HETATM   14  C   UNL     1     -45.371  58.939 -51.568  1.00  0.00     0.018 A 
BRANCH  12  15
HETATM   15  O   UNL     1     -44.807  61.934 -49.595  1.00  0.00    -0.347 OA
BRANCH  15  16
HETATM   16  C   UNL     1     -45.930  61.739 -48.737  1.00  0.00     0.214 C 
BRANCH  16  17
HETATM   17  C   UNL     1     -45.506  61.932 -47.301  1.00  0.00    -0.034 A 
HETATM   18  C   UNL     1     -45.044  60.855 -46.535  1.00  0.00     0.010 A 
HETATM   19  C   UNL     1     -44.591  61.056 -45.228  1.00  0.00     0.007 A 
HETATM   20  C   UNL     1     -44.595  62.336 -44.664  1.00  0.00    -0.062 A 
HETATM   21  C   UNL     1     -44.080  62.568 -43.275  1.00  0.00     0.048 C 
HETATM   22  C   UNL     1     -45.055  63.414 -45.428  1.00  0.00     0.007 A 
HETATM   23  C   UNL     1     -45.508  63.213 -46.733  1.00  0.00     0.010 A 
ENDBRANCH  16  17
ENDBRANCH  15  16
ENDBRANCH  12  15
ENDBRANCH   7   9
ENDBRANCH   5   7
BRANCH   4  24
HETATM   24  O   UNL     1     -44.030  56.191 -56.219  1.00  0.00    -0.355 OA
HETATM   25  H   UNL     1     -44.977  56.446 -56.198  1.00  0.00     0.218 HD
ENDBRANCH   4  24
BRANCH   6  26
HETATM   26  C   UNL     1     -41.930  57.391 -52.278  1.00  0.00    -0.030 A 
HETATM   27  C   UNL     1     -41.696  57.690 -50.923  1.00  0.00     0.012 A 
HETATM   28  C   UNL     1     -40.593  58.453 -50.534  1.00  0.00     0.037 A 
HETATM   29  C   UNL     1     -39.716  58.928 -51.501  1.00  0.00     0.065 A 
HETATM   30  C   UNL     1     -39.931  58.660 -52.846  1.00  0.00     0.037 A 
HETATM   31  C   UNL     1     -41.038  57.902 -53.237  1.00  0.00     0.012 A 
BRANCH  29  32
HETATM   32  O   UNL     1     -38.626  59.675 -51.171  1.00  0.00    -0.361 OA
HETATM   33  H   UNL     1     -38.770  60.079 -50.299  1.00  0.00     0.217 HD
ENDBRANCH  29  32
ENDBRANCH   6  26
BRANCH   1  34
HETATM   34  C   UNL     1     -42.051  54.267 -52.131  1.00  0.00     0.129 C 
BRANCH  34  35
HETATM   35  C   UNL     1     -40.605  54.018 -52.562  1.00  0.00     0.048 C 
BRANCH  35  36
HETATM   36  C   UNL     1     -39.907  52.999 -51.665  1.00  0.00     0.236 C 
BRANCH  36  37
HETATM   37  N   UNL     1     -39.429  51.773 -52.436  1.00  0.00    -0.072 N 
HETATM   38  H   UNL     1     -38.426  51.922 -52.609  1.00  0.00     0.279 HD
BRANCH  37  39
HETATM   39  C   UNL     1     -40.078  51.664 -53.811  1.00  0.00     0.230 C 
HETATM   40  C   UNL     1     -40.065  50.231 -54.313  1.00  0.00     0.034 C 
ENDBRANCH  37  39
BRANCH  37  41
HETATM   41  C   UNL     1     -39.495  50.447 -51.690  1.00  0.00     0.230 C 
HETATM   42  C   UNL     1     -40.195  50.561 -50.348  1.00  0.00     0.034 C 
ENDBRANCH  37  41
ENDBRANCH  36  37
ENDBRANCH  35  36
ENDBRANCH  34  35
ENDBRANCH   1  34
TORSDOF 14
ENDMDL
MODEL 4
REMARK VINA RESULT:      -7.9      1.427      2.024
REMARK  14 active torsions:
REMARK  status: ('A' for Active; 'I' for Inactive)
REMARK    1  A    between atoms: C_2  and  N_3 
REMARK    2  A    between atoms: N_3  and  C_5 
REMARK    3  A    between atoms: N_3  and  C_39 
REMARK    4  A    between atoms: C_5  and  C_6 
REMARK    5  A    between atoms: C_6  and  C_7 
REMARK    6  A    between atoms: C_7  and  N_8 
REMARK    7  A    between atoms: C_11  and  O_12 
REMARK    8  A    between atoms: C_13  and  C_14 
REMARK    9  A    between atoms: C_14  and  C_15 
REMARK   10  A    between atoms: C_18  and  O_19 
REMARK   11  A    between atoms: O_19  and  C_20 
REMARK   12  A    between atoms: C_20  and  C_21 
REMARK   13  A    between atoms: C_31  and  C_32 
REMARK   14  A    between atoms: C_35  and  O_36 
ROOT
HETATM    1  N   UNL     1     -45.064  60.024 -55.455  1.00  0.00    -0.333 N 
HETATM    2  C   UNL     1     -44.375  61.219 -55.538  1.00  0.00     0.278 C 
HETATM    3  O   UNL     1     -44.446  62.078 -56.397  1.00  0.00    -0.265 OA
HETATM    4  C   UNL     1     -43.569  61.351 -54.305  1.00  0.00     0.146 C 
HETATM    5  C   UNL     1     -43.768  60.241 -53.584  1.00  0.00     0.059 C 
HETATM    6  C   UNL     1     -44.545  59.212 -54.359  1.00  0.00     0.161 C 
ENDROOT
BRANCH   5   7
HETATM    7  C   UNL     1     -43.420  59.917 -52.183  1.00  0.00     0.193 C 
HETATM    8  O   UNL     1     -43.224  60.838 -51.391  1.00  0.00    -0.287 OA
BRANCH   7   9
HETATM    9  C   UNL     1     -43.150  58.532 -51.725  1.00  0.00     0.015 A 
HETATM   10  C   UNL     1     -44.159  57.677 -51.270  1.00  0.00     0.018 A 
HETATM   11  C   UNL     1     -43.871  56.346 -50.941  1.00  0.00     0.038 A 
HETATM   12  C   UNL     1     -42.582  55.842 -51.112  1.00  0.00     0.069 A 
HETATM   13  C   UNL     1     -41.579  56.688 -51.589  1.00  0.00     0.038 A 
HETATM   14  C   UNL     1     -41.857  58.024 -51.896  1.00  0.00     0.018 A 
BRANCH  12  15
HETATM   15  O   UNL     1     -42.184  54.554 -50.882  1.00  0.00    -0.347 OA
BRANCH  15  16
HETATM   16  C   UNL     1     -40.781  54.306 -50.803  1.00  0.00     0.214 C 
BRANCH  16  17
HETATM   17  C   UNL     1     -40.412  53.194 -51.755  1.00  0.00    -0.034 A 
HETATM   18  C   UNL     1     -39.831  52.008 -51.290  1.00  0.00     0.010 A 
HETATM   19  C   UNL     1     -39.555  50.960 -52.170  1.00  0.00     0.007 A 
HETATM   20  C   UNL     1     -39.851  51.079 -53.532  1.00  0.00    -0.062 A 
HETATM   21  C   UNL     1     -39.589  49.946 -54.481  1.00  0.00     0.048 C 
HETATM   22  C   UNL     1     -40.432  52.262 -54.001  1.00  0.00     0.007 A 
HETATM   23  C   UNL     1     -40.708  53.311 -53.121  1.00  0.00     0.010 A 
ENDBRANCH  16  17
ENDBRANCH  15  16
ENDBRANCH  12  15
ENDBRANCH   7   9
ENDBRANCH   5   7
BRANCH   4  24
HETATM   24  O   UNL     1     -42.877  62.481 -53.996  1.00  0.00    -0.355 OA
HETATM   25  H   UNL     1     -43.088  62.685 -53.060  1.00  0.00     0.218 HD
ENDBRANCH   4  24
BRANCH   6  26
HETATM   26  C   UNL     1     -43.736  58.016 -54.835  1.00  0.00    -0.030 A 
HETATM   27  C   UNL     1     -44.235  56.717 -54.624  1.00  0.00     0.012 A 
HETATM   28  C   UNL     1     -43.524  55.594 -55.054  1.00  0.00     0.037 A 
HETATM   29  C   UNL     1     -42.305  55.763 -55.697  1.00  0.00     0.065 A 
HETATM   30  C   UNL     1     -41.783  57.032 -55.906  1.00  0.00     0.037 A 
HETATM   31  C   UNL     1     -42.490  58.155 -55.470  1.00  0.00     0.012 A 
BRANCH  29  32
HETATM   32  O   UNL     1     -41.576  54.699 -56.135  1.00  0.00    -0.361 OA
HETATM   33  H   UNL     1     -42.129  53.901 -56.105  1.00  0.00     0.217 HD
ENDBRANCH  29  32
ENDBRANCH   6  26
BRANCH   1  34
HETATM   34  C   UNL     1     -45.884  59.518 -56.546  1.00  0.00     0.129 C 
BRANCH  34  35
HETATM   35  C   UNL     1     -45.121  59.257 -57.846  1.00  0.00     0.048 C 
BRANCH  35  36
HETATM   36  C   UNL     1     -45.008  57.766 -58.154  1.00  0.00     0.236 C 
BRANCH  36  37
HETATM   37  N   UNL     1     -44.748  57.494 -59.632  1.00  0.00    -0.072 N 
HETATM   38  H   UNL     1     -45.128  58.304 -60.140  1.00  0.00     0.279 HD
BRANCH  37  39
HETATM   39  C   UNL     1     -45.520  56.282 -60.143  1.00  0.00     0.230 C 
HETATM   40  C   UNL     1     -47.017  56.538 -60.130  1.00  0.00     0.034 C 
ENDBRANCH  37  39
BRANCH  37  41
HETATM   41  C   UNL     1     -43.286  57.431 -60.052  1.00  0.00     0.230 C 
HETATM   42  C   UNL     1     -42.622  56.119 -59.675  1.00  0.00     0.034 C 
ENDBRANCH  37  41
ENDBRANCH  36  37
ENDBRANCH  35  36
ENDBRANCH  34  35
ENDBRANCH   1  34
TORSDOF 14
ENDMDL
MODEL 5
REMARK VINA RESULT:      -7.7      2.044      3.543
REMARK  14 active torsions:
REMARK  status: ('A' for Active; 'I' for Inactive)
REMARK    1  A    between atoms: C_2  and  N_3 
REMARK    2  A    between atoms: N_3  and  C_5 
REMARK    3  A    between atoms: N_3  and  C_39 
REMARK    4  A    between atoms: C_5  and  C_6 
REMARK    5  A    between atoms: C_6  and  C_7 
REMARK    6  A    between atoms: C_7  and  N_8 
REMARK    7  A    between atoms: C_11  and  O_12 
REMARK    8  A    between atoms: C_13  and  C_14 
REMARK    9  A    between atoms: C_14  and  C_15 
REMARK   10  A    between atoms: C_18  and  O_19 
REMARK   11  A    between atoms: O_19  and  C_20 
REMARK   12  A    between atoms: C_20  and  C_21 
REMARK   13  A    between atoms: C_31  and  C_32 
REMARK   14  A    between atoms: C_35  and  O_36 
ROOT
HETATM    1  N   UNL     1     -46.116  59.174 -57.143  1.00  0.00    -0.333 N 
HETATM    2  C   UNL     1     -46.220  60.552 -57.147  1.00  0.00     0.278 C 
HETATM    3  O   UNL     1     -47.081  61.247 -57.655  1.00  0.00    -0.265 OA
HETATM    4  C   UNL     1     -45.123  61.081 -56.307  1.00  0.00     0.146 C 
HETATM    5  C   UNL     1     -44.406  60.030 -55.892  1.00  0.00     0.059 C 
HETATM    6  C   UNL     1     -44.837  58.762 -56.576  1.00  0.00     0.161 C 
ENDROOT
BRANCH   5   7
HETATM    7  C   UNL     1     -43.352  59.921 -54.858  1.00  0.00     0.193 C 
HETATM    8  O   UNL     1     -42.530  60.830 -54.748  1.00  0.00    -0.287 OA
BRANCH   7   9
HETATM    9  C   UNL     1     -43.154  58.696 -54.045  1.00  0.00     0.015 A 
HETATM   10  C   UNL     1     -44.112  58.225 -53.142  1.00  0.00     0.018 A 
HETATM   11  C   UNL     1     -43.922  57.011 -52.469  1.00  0.00     0.038 A 
HETATM   12  C   UNL     1     -42.796  56.231 -52.730  1.00  0.00     0.069 A 
HETATM   13  C   UNL     1     -41.849  56.689 -53.649  1.00  0.00     0.038 A 
HETATM   14  C   UNL     1     -42.024  57.912 -54.305  1.00  0.00     0.018 A 
BRANCH  12  15
HETATM   15  O   UNL     1     -42.520  55.008 -52.186  1.00  0.00    -0.347 OA
BRANCH  15  16
HETATM   16  C   UNL     1     -41.175  54.758 -51.781  1.00  0.00     0.214 C 
BRANCH  16  17
HETATM   17  C   UNL     1     -40.674  53.501 -52.448  1.00  0.00    -0.034 A 
HETATM   18  C   UNL     1     -39.856  52.596 -51.760  1.00  0.00     0.010 A 
HETATM   19  C   UNL     1     -39.451  51.403 -52.365  1.00  0.00     0.007 A 
HETATM   20  C   UNL     1     -39.855  51.094 -53.668  1.00  0.00    -0.062 A 
HETATM   21  C   UNL     1     -39.454  49.801 -54.314  1.00  0.00     0.048 C 
HETATM   22  C   UNL     1     -40.673  51.996 -54.357  1.00  0.00     0.007 A 
HETATM   23  C   UNL     1     -41.077  53.189 -53.754  1.00  0.00     0.010 A 
ENDBRANCH  16  17
ENDBRANCH  15  16
ENDBRANCH  12  15
ENDBRANCH   7   9
ENDBRANCH   5   7
BRANCH   4  24
HETATM   24  O   UNL     1     -45.015  62.397 -55.980  1.00  0.00    -0.355 OA
HETATM   25  H   UNL     1     -45.433  62.897 -56.713  1.00  0.00     0.218 HD
ENDBRANCH   4  24
BRANCH   6  26
HETATM   26  C   UNL     1     -43.867  58.228 -57.618  1.00  0.00    -0.030 A 
HETATM   27  C   UNL     1     -43.655  56.841 -57.717  1.00  0.00     0.012 A 
HETATM   28  C   UNL     1     -42.778  56.312 -58.667  1.00  0.00     0.037 A 
HETATM   29  C   UNL     1     -42.102  57.171 -59.524  1.00  0.00     0.065 A 
HETATM   30  C   UNL     1     -42.282  58.545 -59.439  1.00  0.00     0.037 A 
HETATM   31  C   UNL     1     -43.154  59.074 -58.484  1.00  0.00     0.012 A 
BRANCH  29  32
HETATM   32  O   UNL     1     -41.237  56.703 -60.466  1.00  0.00    -0.361 OA
HETATM   33  H   UNL     1     -41.021  57.421 -61.084  1.00  0.00     0.217 HD
ENDBRANCH  29  32
ENDBRANCH   6  26
BRANCH   1  34
HETATM   34  C   UNL     1     -46.978  58.324 -57.952  1.00  0.00     0.129 C 
BRANCH  34  35
HETATM   35  C   UNL     1     -47.156  58.793 -59.398  1.00  0.00     0.048 C 
BRANCH  35  36
HETATM   36  C   UNL     1     -46.087  58.215 -60.323  1.00  0.00     0.236 C 
BRANCH  36  37
HETATM   37  N   UNL     1     -46.569  56.977 -61.070  1.00  0.00    -0.072 N 
HETATM   38  H   UNL     1     -46.122  57.013 -61.996  1.00  0.00     0.279 HD
BRANCH  37  39
HETATM   39  C   UNL     1     -48.071  57.006 -61.332  1.00  0.00     0.230 C 
HETATM   40  C   UNL     1     -48.378  56.790 -62.803  1.00  0.00     0.034 C 
ENDBRANCH  37  39
BRANCH  37  41
HETATM   41  C   UNL     1     -46.138  55.637 -60.490  1.00  0.00     0.230 C 
HETATM   42  C   UNL     1     -44.954  55.032 -61.222  1.00  0.00     0.034 C 
ENDBRANCH  37  41
ENDBRANCH  36  37
ENDBRANCH  35  36
ENDBRANCH  34  35
ENDBRANCH   1  34
TORSDOF 14
ENDMDL
MODEL 6
REMARK VINA RESULT:      -7.6      3.336      4.555
REMARK  14 active torsions:
REMARK  status: ('A' for Active; 'I' for Inactive)
REMARK    1  A    between atoms: C_2  and  N_3 
REMARK    2  A    between atoms: N_3  and  C_5 
REMARK    3  A    between atoms: N_3  and  C_39 
REMARK    4  A    between atoms: C_5  and  C_6 
REMARK    5  A    between atoms: C_6  and  C_7 
REMARK    6  A    between atoms: C_7  and  N_8 
REMARK    7  A    between atoms: C_11  and  O_12 
REMARK    8  A    between atoms: C_13  and  C_14 
REMARK    9  A    between atoms: C_14  and  C_15 
REMARK   10  A    between atoms: C_18  and  O_19 
REMARK   11  A    between atoms: O_19  and  C_20 
REMARK   12  A    between atoms: C_20  and  C_21 
REMARK   13  A    between atoms: C_31  and  C_32 
REMARK   14  A    between atoms: C_35  and  O_36 
ROOT
HETATM    1  N   UNL     1     -43.220  60.256 -58.159  1.00  0.00    -0.333 N 
HETATM    2  C   UNL     1     -42.061  60.434 -57.428  1.00  0.00     0.278 C 
HETATM    3  O   UNL     1     -41.049  61.030 -57.744  1.00  0.00    -0.265 OA
HETATM    4  C   UNL     1     -42.288  59.845 -56.090  1.00  0.00     0.146 C 
HETATM    5  C   UNL     1     -43.516  59.315 -56.097  1.00  0.00     0.059 C 
HETATM    6  C   UNL     1     -44.115  59.327 -57.477  1.00  0.00     0.161 C 
ENDROOT
BRANCH   5   7
HETATM    7  C   UNL     1     -44.363  58.810 -54.992  1.00  0.00     0.193 C 
HETATM    8  O   UNL     1     -45.370  59.444 -54.678  1.00  0.00    -0.287 OA
BRANCH   7   9
HETATM    9  C   UNL     1     -43.971  57.655 -54.148  1.00  0.00     0.015 A 
HETATM   10  C   UNL     1     -44.010  56.335 -54.609  1.00  0.00     0.018 A 
HETATM   11  C   UNL     1     -43.537  55.287 -53.809  1.00  0.00     0.038 A 
HETATM   12  C   UNL     1     -42.976  55.552 -52.561  1.00  0.00     0.069 A 
HETATM   13  C   UNL     1     -42.916  56.872 -52.109  1.00  0.00     0.038 A 
HETATM   14  C   UNL     1     -43.407  57.920 -52.895  1.00  0.00     0.018 A 
BRANCH  12  15
HETATM   15  O   UNL     1     -42.431  54.630 -51.710  1.00  0.00    -0.347 OA
BRANCH  15  16
HETATM   16  C   UNL     1     -41.008  54.582 -51.620  1.00  0.00     0.214 C 
BRANCH  16  17
HETATM   17  C   UNL     1     -40.500  53.350 -52.327  1.00  0.00    -0.034 A 
HETATM   18  C   UNL     1     -39.846  52.331 -51.622  1.00  0.00     0.010 A 
HETATM   19  C   UNL     1     -39.439  51.165 -52.275  1.00  0.00     0.007 A 
HETATM   20  C   UNL     1     -39.675  50.996 -53.643  1.00  0.00    -0.062 A 
HETATM   21  C   UNL     1     -39.272  49.734 -54.346  1.00  0.00     0.048 C 
HETATM   22  C   UNL     1     -40.329  52.011 -54.350  1.00  0.00     0.007 A 
HETATM   23  C   UNL     1     -40.736  53.178 -53.699  1.00  0.00     0.010 A 
ENDBRANCH  16  17
ENDBRANCH  15  16
ENDBRANCH  12  15
ENDBRANCH   7   9
ENDBRANCH   5   7
BRANCH   4  24
HETATM   24  O   UNL     1     -41.397  59.972 -55.070  1.00  0.00    -0.355 OA
HETATM   25  H   UNL     1     -41.695  60.740 -54.538  1.00  0.00     0.218 HD
ENDBRANCH   4  24
BRANCH   6  26
HETATM   26  C   UNL     1     -44.196  57.969 -58.157  1.00  0.00    -0.030 A 
HETATM   27  C   UNL     1     -43.119  57.072 -58.039  1.00  0.00     0.012 A 
HETATM   28  C   UNL     1     -43.160  55.813 -58.642  1.00  0.00     0.037 A 
HETATM   29  C   UNL     1     -44.282  55.443 -59.372  1.00  0.00     0.065 A 
HETATM   30  C   UNL     1     -45.353  56.314 -59.516  1.00  0.00     0.037 A 
HETATM   31  C   UNL     1     -45.310  57.576 -58.919  1.00  0.00     0.012 A 
BRANCH  29  32
HETATM   32  O   UNL     1     -44.369  54.226 -59.978  1.00  0.00    -0.361 OA
HETATM   33  H   UNL     1     -43.626  54.124 -60.594  1.00  0.00     0.217 HD
ENDBRANCH  29  32
ENDBRANCH   6  26
BRANCH   1  34
HETATM   34  C   UNL     1     -43.323  60.626 -59.563  1.00  0.00     0.129 C 
BRANCH  34  35
HETATM   35  C   UNL     1     -42.323  59.919 -60.480  1.00  0.00     0.048 C 
BRANCH  35  36
HETATM   36  C   UNL     1     -41.610  60.896 -61.412  1.00  0.00     0.236 C 
BRANCH  36  37
HETATM   37  N   UNL     1     -42.235  62.287 -61.388  1.00  0.00    -0.072 N 
HETATM   38  H   UNL     1     -43.068  62.212 -60.789  1.00  0.00     0.279 HD
BRANCH  37  39
HETATM   39  C   UNL     1     -42.745  62.717 -62.759  1.00  0.00     0.230 C 
HETATM   40  C   UNL     1     -42.566  61.611 -63.784  1.00  0.00     0.034 C 
ENDBRANCH  37  39
BRANCH  37  41
HETATM   41  C   UNL     1     -41.399  63.384 -60.744  1.00  0.00     0.230 C 
HETATM   42  C   UNL     1     -39.946  62.986 -60.560  1.00  0.00     0.034 C 
ENDBRANCH  37  41
ENDBRANCH  36  37
ENDBRANCH  35  36
ENDBRANCH  34  35
ENDBRANCH   1  34
TORSDOF 14
ENDMDL
MODEL 7
REMARK VINA RESULT:      -7.6      2.094      2.896
REMARK  14 active torsions:
REMARK  status: ('A' for Active; 'I' for Inactive)
REMARK    1  A    between atoms: C_2  and  N_3 
REMARK    2  A    between atoms: N_3  and  C_5 
REMARK    3  A    between atoms: N_3  and  C_39 
REMARK    4  A    between atoms: C_5  and  C_6 
REMARK    5  A    between atoms: C_6  and  C_7 
REMARK    6  A    between atoms: C_7  and  N_8 
REMARK    7  A    between atoms: C_11  and  O_12 
REMARK    8  A    between atoms: C_13  and  C_14 
REMARK    9  A    between atoms: C_14  and  C_15 
REMARK   10  A    between atoms: C_18  and  O_19 
REMARK   11  A    between atoms: O_19  and  C_20 
REMARK   12  A    between atoms: C_20  and  C_21 
REMARK   13  A    between atoms: C_31  and  C_32 
REMARK   14  A    between atoms: C_35  and  O_36 
ROOT
HETATM    1  N   UNL     1     -43.875  59.793 -54.460  1.00  0.00    -0.333 N 
HETATM    2  C   UNL     1     -43.232  60.618 -53.557  1.00  0.00     0.278 C 
HETATM    3  O   UNL     1     -42.762  61.725 -53.741  1.00  0.00    -0.265 OA
HETATM    4  C   UNL     1     -43.295  59.958 -52.234  1.00  0.00     0.146 C 
HETATM    5  C   UNL     1     -43.910  58.784 -52.410  1.00  0.00     0.059 C 
HETATM    6  C   UNL     1     -44.118  58.482 -53.868  1.00  0.00     0.161 C 
ENDROOT
BRANCH   5   7
HETATM    7  C   UNL     1     -44.457  57.817 -51.430  1.00  0.00     0.193 C 
HETATM    8  O   UNL     1     -45.574  58.019 -50.956  1.00  0.00    -0.287 OA
BRANCH   7   9
HETATM    9  C   UNL     1     -43.656  56.695 -50.882  1.00  0.00     0.015 A 
HETATM   10  C   UNL     1     -44.168  55.402 -50.737  1.00  0.00     0.018 A 
HETATM   11  C   UNL     1     -43.346  54.353 -50.306  1.00  0.00     0.038 A 
HETATM   12  C   UNL     1     -41.990  54.576 -50.064  1.00  0.00     0.069 A 
HETATM   13  C   UNL     1     -41.473  55.863 -50.231  1.00  0.00     0.038 A 
HETATM   14  C   UNL     1     -42.296  56.917 -50.638  1.00  0.00     0.018 A 
BRANCH  12  15
HETATM   15  O   UNL     1     -41.073  53.632 -49.695  1.00  0.00    -0.347 OA
BRANCH  15  16
HETATM   16  C   UNL     1     -39.830  53.618 -50.396  1.00  0.00     0.214 C 
BRANCH  16  17
HETATM   17  C   UNL     1     -39.894  52.604 -51.513  1.00  0.00    -0.034 A 
HETATM   18  C   UNL     1     -40.220  52.991 -52.820  1.00  0.00     0.010 A 
HETATM   19  C   UNL     1     -40.212  52.056 -53.858  1.00  0.00     0.007 A 
HETATM   20  C   UNL     1     -39.883  50.720 -53.610  1.00  0.00    -0.062 A 
HETATM   21  C   UNL     1     -39.839  49.716 -54.724  1.00  0.00     0.048 C 
HETATM   22  C   UNL     1     -39.556  50.331 -52.306  1.00  0.00     0.007 A 
HETATM   23  C   UNL     1     -39.564  51.264 -51.267  1.00  0.00     0.010 A 
ENDBRANCH  16  17
ENDBRANCH  15  16
ENDBRANCH  12  15
ENDBRANCH   7   9
ENDBRANCH   5   7
BRANCH   4  24
HETATM   24  O   UNL     1     -42.881  60.566 -51.089  1.00  0.00    -0.355 OA
HETATM   25  H   UNL     1     -43.462  61.346 -50.967  1.00  0.00     0.218 HD
ENDBRANCH   4  24
BRANCH   6  26
HETATM   26  C   UNL     1     -43.220  57.395 -54.437  1.00  0.00    -0.030 A 
HETATM   27  C   UNL     1     -41.860  57.365 -54.077  1.00  0.00     0.012 A 
HETATM   28  C   UNL     1     -41.005  56.376 -54.572  1.00  0.00     0.037 A 
HETATM   29  C   UNL     1     -41.506  55.411 -55.435  1.00  0.00     0.065 A 
HETATM   30  C   UNL     1     -42.841  55.425 -55.817  1.00  0.00     0.037 A 
HETATM   31  C   UNL     1     -43.694  56.417 -55.328  1.00  0.00     0.012 A 
BRANCH  29  32
HETATM   32  O   UNL     1     -40.713  54.427 -55.943  1.00  0.00    -0.361 OA
HETATM   33  H   UNL     1     -40.861  54.362 -56.901  1.00  0.00     0.217 HD
ENDBRANCH  29  32
ENDBRANCH   6  26
BRANCH   1  34
HETATM   34  C   UNL     1     -43.917  60.080 -55.887  1.00  0.00     0.129 C 
BRANCH  34  35
HETATM   35  C   UNL     1     -42.667  59.651 -56.658  1.00  0.00     0.048 C 
BRANCH  35  36
HETATM   36  C   UNL     1     -41.909  60.846 -57.230  1.00  0.00     0.236 C 
BRANCH  36  37
HETATM   37  N   UNL     1     -41.490  60.631 -58.681  1.00  0.00    -0.072 N 
HETATM   38  H   UNL     1     -40.524  60.280 -58.646  1.00  0.00     0.279 HD
BRANCH  37  39
HETATM   39  C   UNL     1     -41.430  61.938 -59.465  1.00  0.00     0.230 C 
HETATM   40  C   UNL     1     -40.820  63.051 -58.634  1.00  0.00     0.034 C 
ENDBRANCH  37  39
BRANCH  37  41
HETATM   41  C   UNL     1     -42.258  59.564 -59.447  1.00  0.00     0.230 C 
HETATM   42  C   UNL     1     -41.896  59.522 -60.920  1.00  0.00     0.034 C 
ENDBRANCH  37  41
ENDBRANCH  36  37
ENDBRANCH  35  36
ENDBRANCH  34  35
ENDBRANCH   1  34
TORSDOF 14
ENDMDL
MODEL 8
REMARK VINA RESULT:      -7.6      3.906      8.772
REMARK  14 active torsions:
REMARK  status: ('A' for Active; 'I' for Inactive)
REMARK    1  A    between atoms: C_2  and  N_3 
REMARK    2  A    between atoms: N_3  and  C_5 
REMARK    3  A    between atoms: N_3  and  C_39 
REMARK    4  A    between atoms: C_5  and  C_6 
REMARK    5  A    between atoms: C_6  and  C_7 
REMARK    6  A    between atoms: C_7  and  N_8 
REMARK    7  A    between atoms: C_11  and  O_12 
REMARK    8  A    between atoms: C_13  and  C_14 
REMARK    9  A    between atoms: C_14  and  C_15 
REMARK   10  A    between atoms: C_18  and  O_19 
REMARK   11  A    between atoms: O_19  and  C_20 
REMARK   12  A    between atoms: C_20  and  C_21 
REMARK   13  A    between atoms: C_31  and  C_32 
REMARK   14  A    between atoms: C_35  and  O_36 
ROOT
HETATM    1  N   UNL     1     -42.189  57.051 -53.236  1.00  0.00    -0.333 N 
HETATM    2  C   UNL     1     -43.564  57.122 -53.111  1.00  0.00     0.278 C 
HETATM    3  O   UNL     1     -44.220  57.645 -52.230  1.00  0.00    -0.265 OA
HETATM    4  C   UNL     1     -44.150  56.523 -54.331  1.00  0.00     0.146 C 
HETATM    5  C   UNL     1     -43.132  56.091 -55.084  1.00  0.00     0.059 C 
HETATM    6  C   UNL     1     -41.824  56.180 -54.348  1.00  0.00     0.161 C 
ENDROOT
BRANCH   5   7
HETATM    7  C   UNL     1     -43.092  55.629 -56.490  1.00  0.00     0.193 C 
HETATM    8  O   UNL     1     -43.263  54.435 -56.729  1.00  0.00    -0.287 OA
BRANCH   7   9
HETATM    9  C   UNL     1     -42.706  56.519 -57.613  1.00  0.00     0.015 A 
HETATM   10  C   UNL     1     -42.764  56.116 -58.951  1.00  0.00     0.018 A 
HETATM   11  C   UNL     1     -42.483  57.022 -59.981  1.00  0.00     0.038 A 
HETATM   12  C   UNL     1     -42.190  58.353 -59.687  1.00  0.00     0.069 A 
HETATM   13  C   UNL     1     -42.155  58.763 -58.353  1.00  0.00     0.038 A 
HETATM   14  C   UNL     1     -42.412  57.855 -57.320  1.00  0.00     0.018 A 
BRANCH  12  15
HETATM   15  O   UNL     1     -41.954  59.345 -60.598  1.00  0.00    -0.347 OA
BRANCH  15  16
HETATM   16  C   UNL     1     -42.415  60.656 -60.273  1.00  0.00     0.214 C 
BRANCH  16  17
HETATM   17  C   UNL     1     -41.263  61.628 -60.350  1.00  0.00    -0.034 A 
HETATM   18  C   UNL     1     -40.829  62.137 -61.580  1.00  0.00     0.010 A 
HETATM   19  C   UNL     1     -39.805  63.086 -61.634  1.00  0.00     0.007 A 
HETATM   20  C   UNL     1     -39.195  63.541 -60.460  1.00  0.00    -0.062 A 
HETATM   21  C   UNL     1     -38.118  64.585 -60.505  1.00  0.00     0.048 C 
HETATM   22  C   UNL     1     -39.627  63.035 -59.230  1.00  0.00     0.007 A 
HETATM   23  C   UNL     1     -40.650  62.086 -59.175  1.00  0.00     0.010 A 
ENDBRANCH  16  17
ENDBRANCH  15  16
ENDBRANCH  12  15
ENDBRANCH   7   9
ENDBRANCH   5   7
BRANCH   4  24
HETATM   24  O   UNL     1     -45.483  56.558 -54.599  1.00  0.00    -0.355 OA
HETATM   25  H   UNL     1     -45.936  56.636 -53.733  1.00  0.00     0.218 HD
ENDBRANCH   4  24
BRANCH   6  26
HETATM   26  C   UNL     1     -41.245  54.848 -53.896  1.00  0.00    -0.030 A 
HETATM   27  C   UNL     1     -40.440  54.109 -54.782  1.00  0.00     0.012 A 
HETATM   28  C   UNL     1     -39.884  52.885 -54.401  1.00  0.00     0.037 A 
HETATM   29  C   UNL     1     -40.134  52.390 -53.127  1.00  0.00     0.065 A 
HETATM   30  C   UNL     1     -40.935  53.092 -52.238  1.00  0.00     0.037 A 
HETATM   31  C   UNL     1     -41.497  54.312 -52.621  1.00  0.00     0.012 A 
BRANCH  29  32
HETATM   32  O   UNL     1     -39.614  51.203 -52.709  1.00  0.00    -0.361 OA
HETATM   33  H   UNL     1     -40.060  50.931 -51.890  1.00  0.00     0.217 HD
ENDBRANCH  29  32
ENDBRANCH   6  26
BRANCH   1  34
HETATM   34  C   UNL     1     -41.286  57.459 -52.170  1.00  0.00     0.129 C 
BRANCH  34  35
HETATM   35  C   UNL     1     -40.752  58.887 -52.301  1.00  0.00     0.048 C 
BRANCH  35  36
HETATM   36  C   UNL     1     -41.605  59.890 -51.530  1.00  0.00     0.236 C 
BRANCH  36  37
HETATM   37  N   UNL     1     -42.745  60.457 -52.371  1.00  0.00    -0.072 N 
HETATM   38  H   UNL     1     -43.483  59.741 -52.364  1.00  0.00     0.279 HD
BRANCH  37  39
HETATM   39  C   UNL     1     -42.351  60.637 -53.833  1.00  0.00     0.230 C 
HETATM   40  C   UNL     1     -43.518  60.340 -54.757  1.00  0.00     0.034 C 
ENDBRANCH  37  39
BRANCH  37  41
HETATM   41  C   UNL     1     -43.419  61.708 -51.825  1.00  0.00     0.230 C 
HETATM   42  C   UNL     1     -42.885  62.119 -50.466  1.00  0.00     0.034 C 
ENDBRANCH  37  41
ENDBRANCH  36  37
ENDBRANCH  35  36
ENDBRANCH  34  35
ENDBRANCH   1  34
TORSDOF 14
ENDMDL
MODEL 9
REMARK VINA RESULT:      -7.5      2.336      7.667
REMARK  14 active torsions:
REMARK  status: ('A' for Active; 'I' for Inactive)
REMARK    1  A    between atoms: C_2  and  N_3 
REMARK    2  A    between atoms: N_3  and  C_5 
REMARK    3  A    between atoms: N_3  and  C_39 
REMARK    4  A    between atoms: C_5  and  C_6 
REMARK    5  A    between atoms: C_6  and  C_7 
REMARK    6  A    between atoms: C_7  and  N_8 
REMARK    7  A    between atoms: C_11  and  O_12 
REMARK    8  A    between atoms: C_13  and  C_14 
REMARK    9  A    between atoms: C_14  and  C_15 
REMARK   10  A    between atoms: C_18  and  O_19 
REMARK   11  A    between atoms: O_19  and  C_20 
REMARK   12  A    between atoms: C_20  and  C_21 
REMARK   13  A    between atoms: C_31  and  C_32 
REMARK   14  A    between atoms: C_35  and  O_36 
ROOT
HETATM    1  N   UNL     1     -42.725  55.293 -51.187  1.00  0.00    -0.333 N 
HETATM    2  C   UNL     1     -43.957  55.595 -50.638  1.00  0.00     0.278 C 
HETATM    3  O   UNL     1     -44.703  54.873 -50.004  1.00  0.00    -0.265 OA
HETATM    4  C   UNL     1     -44.199  57.037 -50.863  1.00  0.00     0.146 C 
HETATM    5  C   UNL     1     -43.156  57.507 -51.557  1.00  0.00     0.059 C 
HETATM    6  C   UNL     1     -42.254  56.395 -52.018  1.00  0.00     0.161 C 
ENDROOT
BRANCH   5   7
HETATM    7  C   UNL     1     -42.736  58.893 -51.862  1.00  0.00     0.193 C 
HETATM    8  O   UNL     1     -42.329  59.606 -50.945  1.00  0.00    -0.287 OA
BRANCH   7   9
HETATM    9  C   UNL     1     -42.926  59.511 -53.197  1.00  0.00     0.015 A 
HETATM   10  C   UNL     1     -41.884  59.651 -54.119  1.00  0.00     0.018 A 
HETATM   11  C   UNL     1     -42.132  60.151 -55.404  1.00  0.00     0.038 A 
HETATM   12  C   UNL     1     -43.431  60.469 -55.797  1.00  0.00     0.069 A 
HETATM   13  C   UNL     1     -44.476  60.307 -54.885  1.00  0.00     0.038 A 
HETATM   14  C   UNL     1     -44.230  59.830 -53.593  1.00  0.00     0.018 A 
BRANCH  12  15
HETATM   15  O   UNL     1     -43.813  60.910 -57.033  1.00  0.00    -0.347 OA
BRANCH  15  16
HETATM   16  C   UNL     1     -45.109  60.529 -57.494  1.00  0.00     0.214 C 
BRANCH  16  17
HETATM   17  C   UNL     1     -44.993  59.293 -58.352  1.00  0.00    -0.034 A 
HETATM   18  C   UNL     1     -43.840  59.043 -59.106  1.00  0.00     0.010 A 
HETATM   19  C   UNL     1     -43.716  57.864 -59.845  1.00  0.00     0.007 A 
HETATM   20  C   UNL     1     -44.744  56.914 -59.847  1.00  0.00    -0.062 A 
HETATM   21  C   UNL     1     -44.607  55.630 -60.609  1.00  0.00     0.048 C 
HETATM   22  C   UNL     1     -45.897  57.161 -59.094  1.00  0.00     0.007 A 
HETATM   23  C   UNL     1     -46.022  58.340 -58.355  1.00  0.00     0.010 A 
ENDBRANCH  16  17
ENDBRANCH  15  16
ENDBRANCH  12  15
ENDBRANCH   7   9
ENDBRANCH   5   7
BRANCH   4  24
HETATM   24  O   UNL     1     -45.259  57.698 -50.324  1.00  0.00    -0.355 OA
HETATM   25  H   UNL     1     -46.054  57.170 -50.548  1.00  0.00     0.218 HD
ENDBRANCH   4  24
BRANCH   6  26
HETATM   26  C   UNL     1     -42.315  56.089 -53.506  1.00  0.00    -0.030 A 
HETATM   27  C   UNL     1     -43.542  56.207 -54.185  1.00  0.00     0.012 A 
HETATM   28  C   UNL     1     -43.637  55.942 -55.554  1.00  0.00     0.037 A 
HETATM   29  C   UNL     1     -42.502  55.554 -56.253  1.00  0.00     0.065 A 
HETATM   30  C   UNL     1     -41.282  55.417 -55.606  1.00  0.00     0.037 A 
HETATM   31  C   UNL     1     -41.188  55.674 -54.236  1.00  0.00     0.012 A 
BRANCH  29  32
HETATM   32  O   UNL     1     -42.544  55.286 -57.588  1.00  0.00    -0.361 OA
HETATM   33  H   UNL     1     -42.610  56.122 -58.078  1.00  0.00     0.217 HD
ENDBRANCH  29  32
ENDBRANCH   6  26
BRANCH   1  34
HETATM   34  C   UNL     1     -42.206  53.934 -51.239  1.00  0.00     0.129 C 
BRANCH  34  35
HETATM   35  C   UNL     1     -40.680  53.834 -51.176  1.00  0.00     0.048 C 
BRANCH  35  36
HETATM   36  C   UNL     1     -40.212  52.423 -50.827  1.00  0.00     0.236 C 
BRANCH  36  37
HETATM   37  N   UNL     1     -39.501  51.740 -51.990  1.00  0.00    -0.072 N 
HETATM   38  H   UNL     1     -38.526  52.068 -51.958  1.00  0.00     0.279 HD
BRANCH  37  39
HETATM   39  C   UNL     1     -40.045  52.184 -53.344  1.00  0.00     0.230 C 
HETATM   40  C   UNL     1     -40.145  51.015 -54.307  1.00  0.00     0.034 C 
ENDBRANCH  37  39
BRANCH  37  41
HETATM   41  C   UNL     1     -39.396  50.224 -51.911  1.00  0.00     0.230 C 
HETATM   42  C   UNL     1     -39.899  49.667 -50.592  1.00  0.00     0.034 C 
ENDBRANCH  37  41
ENDBRANCH  36  37
ENDBRANCH  35  36
ENDBRANCH  34  35
ENDBRANCH   1  34
TORSDOF 14
ENDMDL
MODEL 10
REMARK VINA RESULT:      -7.5      3.428      4.455
REMARK  14 active torsions:
REMARK  status: ('A' for Active; 'I' for Inactive)
REMARK    1  A    between atoms: C_2  and  N_3 
REMARK    2  A    between atoms: N_3  and  C_5 
REMARK    3  A    between atoms: N_3  and  C_39 
REMARK    4  A    between atoms: C_5  and  C_6 
REMARK    5  A    between atoms: C_6  and  C_7 
REMARK    6  A    between atoms: C_7  and  N_8 
REMARK    7  A    between atoms: C_11  and  O_12 
REMARK    8  A    between atoms: C_13  and  C_14 
REMARK    9  A    between atoms: C_14  and  C_15 
REMARK   10  A    between atoms: C_18  and  O_19 
REMARK   11  A    between atoms: O_19  and  C_20 
REMARK   12  A    between atoms: C_20  and  C_21 
REMARK   13  A    between atoms: C_31  and  C_32 
REMARK   14  A    between atoms: C_35  and  O_36 
ROOT
HETATM    1  N   UNL     1     -43.847  61.128 -51.680  1.00  0.00    -0.333 N 
HETATM    2  C   UNL     1     -44.725  60.870 -50.644  1.00  0.00     0.278 C 
HETATM    3  O   UNL     1     -45.291  61.662 -49.914  1.00  0.00    -0.265 OA
HETATM    4  C   UNL     1     -44.965  59.410 -50.622  1.00  0.00     0.146 C 
HETATM    5  C   UNL     1     -44.206  58.872 -51.584  1.00  0.00     0.059 C 
HETATM    6  C   UNL     1     -43.264  59.885 -52.174  1.00  0.00     0.161 C 
ENDROOT
BRANCH   5   7
HETATM    7  C   UNL     1     -44.205  57.516 -52.176  1.00  0.00     0.193 C 
HETATM    8  O   UNL     1     -44.889  57.303 -53.177  1.00  0.00    -0.287 OA
BRANCH   7   9
HETATM    9  C   UNL     1     -43.534  56.362 -51.530  1.00  0.00     0.015 A 
HETATM   10  C   UNL     1     -43.784  55.036 -51.901  1.00  0.00     0.018 A 
HETATM   11  C   UNL     1     -43.055  53.986 -51.330  1.00  0.00     0.038 A 
HETATM   12  C   UNL     1     -42.033  54.253 -50.420  1.00  0.00     0.069 A 
HETATM   13  C   UNL     1     -41.766  55.577 -50.066  1.00  0.00     0.038 A 
HETATM   14  C   UNL     1     -42.508  56.627 -50.616  1.00  0.00     0.018 A 
BRANCH  12  15
HETATM   15  O   UNL     1     -41.213  53.327 -49.836  1.00  0.00    -0.347 OA
BRANCH  15  16
HETATM   16  C   UNL     1     -39.866  53.258 -50.300  1.00  0.00     0.214 C 
BRANCH  16  17
HETATM   17  C   UNL     1     -39.789  52.330 -51.488  1.00  0.00    -0.034 A 
HETATM   18  C   UNL     1     -39.599  50.954 -51.316  1.00  0.00     0.010 A 
HETATM   19  C   UNL     1     -39.595  50.095 -52.418  1.00  0.00     0.007 A 
HETATM   20  C   UNL     1     -39.780  50.597 -53.711  1.00  0.00    -0.062 A 
HETATM   21  C   UNL     1     -39.812  49.680 -54.898  1.00  0.00     0.048 C 
HETATM   22  C   UNL     1     -39.972  51.972 -53.885  1.00  0.00     0.007 A 
HETATM   23  C   UNL     1     -39.974  52.831 -52.784  1.00  0.00     0.010 A 
ENDBRANCH  16  17
ENDBRANCH  15  16
ENDBRANCH  12  15
ENDBRANCH   7   9
ENDBRANCH   5   7
BRANCH   4  24
HETATM   24  O   UNL     1     -45.894  58.830 -49.814  1.00  0.00    -0.355 OA
HETATM   25  H   UNL     1     -46.742  59.286 -49.999  1.00  0.00     0.218 HD
ENDBRANCH   4  24
BRANCH   6  26
HETATM   26  C   UNL     1     -41.805  59.713 -51.783  1.00  0.00    -0.030 A 
HETATM   27  C   UNL     1     -41.398  60.035 -50.475  1.00  0.00     0.012 A 
HETATM   28  C   UNL     1     -40.067  59.883 -50.076  1.00  0.00     0.037 A 
HETATM   29  C   UNL     1     -39.132  59.409 -50.987  1.00  0.00     0.065 A 
HETATM   30  C   UNL     1     -39.504  59.097 -52.288  1.00  0.00     0.037 A 
HETATM   31  C   UNL     1     -40.832  59.256 -52.689  1.00  0.00     0.012 A 
BRANCH  29  32
HETATM   32  O   UNL     1     -37.824  59.243 -50.646  1.00  0.00    -0.361 OA
HETATM   33  H   UNL     1     -37.775  58.781 -49.792  1.00  0.00     0.217 HD
ENDBRANCH  29  32
ENDBRANCH   6  26
BRANCH   1  34
HETATM   34  C   UNL     1     -43.307  62.456 -51.933  1.00  0.00     0.129 C 
BRANCH  34  35
HETATM   35  C   UNL     1     -42.982  62.740 -53.401  1.00  0.00     0.048 C 
BRANCH  35  36
HETATM   36  C   UNL     1     -44.234  63.068 -54.211  1.00  0.00     0.236 C 
BRANCH  36  37
HETATM   37  N   UNL     1     -44.671  61.912 -55.104  1.00  0.00    -0.072 N 
HETATM   38  H   UNL     1     -43.914  61.217 -55.058  1.00  0.00     0.279 HD
BRANCH  37  39
HETATM   39  C   UNL     1     -44.775  62.319 -56.570  1.00  0.00     0.230 C 
HETATM   40  C   UNL     1     -43.518  63.032 -57.033  1.00  0.00     0.034 C 
ENDBRANCH  37  39
BRANCH  37  41
HETATM   41  C   UNL     1     -45.913  61.154 -54.655  1.00  0.00     0.230 C 
HETATM   42  C   UNL     1     -46.721  61.911 -53.618  1.00  0.00     0.034 C 
ENDBRANCH  37  41
ENDBRANCH  36  37
ENDBRANCH  35  36
ENDBRANCH  34  35
ENDBRANCH   1  34
TORSDOF 14
ENDMDL
