MODEL 1
REMARK VINA RESULT:      -7.5      0.000      0.000
REMARK  3 active torsions:
REMARK  status: ('A' for Active; 'I' for Inactive)
REMARK    1  A    between atoms: C_2  and  N_3 
REMARK    2  A    between atoms: N_10  and  C_11 
REMARK    3  A    between atoms: C_11  and  C_12 
ROOT
HETATM    1  N   UNL     1     -43.072  59.736 -51.951  1.00  0.00    -0.063 N 
HETATM    2  H   UNL     1     -43.116  60.453 -51.214  1.00  0.00     0.280 HD
HETATM    3  C   UNL     1     -42.348  58.555 -51.288  1.00  0.00     0.277 C 
HETATM    4  C   UNL     1     -41.895  57.387 -52.218  1.00  0.00     0.132 C 
HETATM    5  O   UNL     1     -42.994  56.925 -53.030  1.00  0.00    -0.373 OA
HETATM    6  C   UNL     1     -43.803  55.932 -52.388  1.00  0.00     0.199 C 
HETATM    7  C   UNL     1     -43.022  54.651 -52.057  1.00  0.00     0.299 C 
HETATM    8  N   UNL     1     -41.585  54.852 -51.792  1.00  0.00     0.097 N 
HETATM    9  C   UNL     1     -41.352  56.223 -51.304  1.00  0.00     0.314 C 
HETATM   10  C   UNL     1     -40.728  57.873 -53.121  1.00  0.00     0.209 C 
HETATM   11  O   UNL     1     -41.017  58.628 -54.288  1.00  0.00    -0.386 OA
HETATM   12  C   UNL     1     -42.107  59.531 -54.289  1.00  0.00     0.195 C 
HETATM   13  C   UNL     1     -42.219  60.390 -53.034  1.00  0.00     0.261 C 
ENDROOT
BRANCH   1  14
HETATM   14  C   UNL     1     -44.554  59.494 -52.314  1.00  0.00     0.180 C 
HETATM   15  C   UNL     1     -45.212  60.783 -52.817  1.00  0.00     0.039 C 
HETATM   16  C   UNL     1     -45.318  59.017 -51.076  1.00  0.00     0.039 C 
ENDBRANCH   1  14
BRANCH   8  17
HETATM   17  C   UNL     1     -40.766  54.509 -52.970  1.00  0.00     0.311 C 
BRANCH  17  18
HETATM   18  C   UNL     1     -40.370  53.047 -53.028  1.00  0.00    -0.030 A 
HETATM   19  C   UNL     1     -39.846  52.414 -51.887  1.00  0.00     0.012 A 
HETATM   20  C   UNL     1     -39.470  51.071 -51.934  1.00  0.00     0.043 A 
HETATM   21  C   UNL     1     -39.625  50.357 -53.115  1.00  0.00     0.116 A 
HETATM   22  F   UNL     1     -39.257  49.070 -53.161  1.00  0.00    -0.206 F 
HETATM   23  C   UNL     1     -40.148  50.960 -54.252  1.00  0.00     0.043 A 
HETATM   24  C   UNL     1     -40.525  52.303 -54.209  1.00  0.00     0.012 A 
ENDBRANCH  17  18
ENDBRANCH   8  17
TORSDOF 3
ENDMDL
MODEL 2
REMARK VINA RESULT:      -7.5      1.570      2.046
REMARK  3 active torsions:
REMARK  status: ('A' for Active; 'I' for Inactive)
REMARK    1  A    between atoms: C_2  and  N_3 
REMARK    2  A    between atoms: N_10  and  C_11 
REMARK    3  A    between atoms: C_11  and  C_12 
ROOT
HETATM    1  N   UNL     1     -44.016  58.560 -52.471  1.00  0.00    -0.063 N 
HETATM    2  H   UNL     1     -44.938  58.779 -52.071  1.00  0.00     0.280 HD
HETATM    3  C   UNL     1     -44.004  57.029 -52.580  1.00  0.00     0.277 C 
HETATM    4  C   UNL     1     -42.640  56.351 -52.922  1.00  0.00     0.132 C 
HETATM    5  O   UNL     1     -42.050  56.954 -54.092  1.00  0.00    -0.373 OA
HETATM    6  C   UNL     1     -42.502  56.377 -55.324  1.00  0.00     0.199 C 
HETATM    7  C   UNL     1     -42.140  54.889 -55.451  1.00  0.00     0.299 C 
HETATM    8  N   UNL     1     -42.057  54.159 -54.171  1.00  0.00     0.097 N 
HETATM    9  C   UNL     1     -42.908  54.816 -53.163  1.00  0.00     0.314 C 
HETATM   10  C   UNL     1     -41.681  56.487 -51.707  1.00  0.00     0.209 C 
HETATM   11  O   UNL     1     -40.975  57.702 -51.509  1.00  0.00    -0.386 OA
HETATM   12  C   UNL     1     -41.583  58.933 -51.850  1.00  0.00     0.195 C 
HETATM   13  C   UNL     1     -43.039  59.062 -51.413  1.00  0.00     0.261 C 
ENDROOT
BRANCH   1  14
HETATM   14  C   UNL     1     -44.009  59.327 -53.813  1.00  0.00     0.180 C 
HETATM   15  C   UNL     1     -44.215  60.828 -53.587  1.00  0.00     0.039 C 
HETATM   16  C   UNL     1     -45.144  58.815 -54.706  1.00  0.00     0.039 C 
ENDBRANCH   1  14
BRANCH   8  17
HETATM   17  C   UNL     1     -40.658  53.998 -53.732  1.00  0.00     0.311 C 
BRANCH  17  18
HETATM   18  C   UNL     1     -40.280  52.561 -53.428  1.00  0.00    -0.030 A 
HETATM   19  C   UNL     1     -39.877  52.199 -52.130  1.00  0.00     0.012 A 
HETATM   20  C   UNL     1     -39.519  50.882 -51.843  1.00  0.00     0.043 A 
HETATM   21  C   UNL     1     -39.570  49.924 -52.847  1.00  0.00     0.116 A 
HETATM   22  F   UNL     1     -39.219  48.661 -52.572  1.00  0.00    -0.206 F 
HETATM   23  C   UNL     1     -39.974  50.258 -54.134  1.00  0.00     0.043 A 
HETATM   24  C   UNL     1     -40.333  51.574 -54.425  1.00  0.00     0.012 A 
ENDBRANCH  17  18
ENDBRANCH   8  17
TORSDOF 3
ENDMDL
MODEL 3
REMARK VINA RESULT:      -7.2     15.446     17.272
REMARK  3 active torsions:
REMARK  status: ('A' for Active; 'I' for Inactive)
REMARK    1  A    between atoms: C_2  and  N_3 
REMARK    2  A    between atoms: N_10  and  C_11 
REMARK    3  A    between atoms: C_11  and  C_12 
ROOT
HETATM    1  N   UNL     1     -34.751  40.879 -50.864  1.00  0.00    -0.063 N 
HETATM    2  H   UNL     1     -34.296  41.405 -50.106  1.00  0.00     0.280 HD
HETATM    3  C   UNL     1     -34.989  41.924 -51.962  1.00  0.00     0.277 C 
HETATM    4  C   UNL     1     -35.895  41.502 -53.161  1.00  0.00     0.132 C 
HETATM    5  O   UNL     1     -35.443  40.255 -53.728  1.00  0.00    -0.373 OA
HETATM    6  C   UNL     1     -34.421  40.414 -54.720  1.00  0.00     0.199 C 
HETATM    7  C   UNL     1     -34.893  41.225 -55.937  1.00  0.00     0.299 C 
HETATM    8  N   UNL     1     -35.934  42.229 -55.646  1.00  0.00     0.097 N 
HETATM    9  C   UNL     1     -35.842  42.653 -54.237  1.00  0.00     0.314 C 
HETATM   10  C   UNL     1     -37.363  41.368 -52.672  1.00  0.00     0.209 C 
HETATM   11  O   UNL     1     -37.771  40.182 -52.006  1.00  0.00    -0.386 OA
HETATM   12  C   UNL     1     -36.862  39.501 -51.163  1.00  0.00     0.195 C 
HETATM   13  C   UNL     1     -36.058  40.407 -50.235  1.00  0.00     0.261 C 
ENDROOT
BRANCH   1  14
HETATM   14  C   UNL     1     -33.728  39.771 -51.204  1.00  0.00     0.180 C 
HETATM   15  C   UNL     1     -33.458  38.881 -49.986  1.00  0.00     0.039 C 
HETATM   16  C   UNL     1     -32.403  40.406 -51.637  1.00  0.00     0.039 C 
ENDBRANCH   1  14
BRANCH   8  17
HETATM   17  C   UNL     1     -37.275  41.740 -56.018  1.00  0.00     0.311 C 
BRANCH  17  18
HETATM   18  C   UNL     1     -37.386  41.323 -57.471  1.00  0.00    -0.030 A 
HETATM   19  C   UNL     1     -37.752  40.005 -57.799  1.00  0.00     0.012 A 
HETATM   20  C   UNL     1     -37.849  39.609 -59.133  1.00  0.00     0.043 A 
HETATM   21  C   UNL     1     -37.588  40.529 -60.140  1.00  0.00     0.116 A 
HETATM   22  F   UNL     1     -37.675  40.146 -61.421  1.00  0.00    -0.206 F 
HETATM   23  C   UNL     1     -37.234  41.838 -59.840  1.00  0.00     0.043 A 
HETATM   24  C   UNL     1     -37.136  42.237 -58.506  1.00  0.00     0.012 A 
ENDBRANCH  17  18
ENDBRANCH   8  17
TORSDOF 3
ENDMDL
MODEL 4
REMARK VINA RESULT:      -7.2      2.595      3.063
REMARK  3 active torsions:
REMARK  status: ('A' for Active; 'I' for Inactive)
REMARK    1  A    between atoms: C_2  and  N_3 
REMARK    2  A    between atoms: N_10  and  C_11 
REMARK    3  A    between atoms: C_11  and  C_12 
ROOT
HETATM    1  N   UNL     1     -45.464  58.894 -54.765  1.00  0.00    -0.063 N 
HETATM    2  H   UNL     1     -46.464  59.005 -54.549  1.00  0.00     0.280 HD
HETATM    3  C   UNL     1     -45.168  57.422 -54.446  1.00  0.00     0.277 C 
HETATM    4  C   UNL     1     -43.669  56.986 -54.428  1.00  0.00     0.132 C 
HETATM    5  O   UNL     1     -43.004  57.393 -55.642  1.00  0.00    -0.373 OA
HETATM    6  C   UNL     1     -43.136  56.448 -56.711  1.00  0.00     0.199 C 
HETATM    7  C   UNL     1     -42.505  55.086 -56.381  1.00  0.00     0.299 C 
HETATM    8  N   UNL     1     -42.513  54.729 -54.950  1.00  0.00     0.097 N 
HETATM    9  C   UNL     1     -43.622  55.419 -54.267  1.00  0.00     0.314 C 
HETATM   10  C   UNL     1     -42.966  57.618 -53.195  1.00  0.00     0.209 C 
HETATM   11  O   UNL     1     -42.525  58.965 -53.257  1.00  0.00    -0.386 OA
HETATM   12  C   UNL     1     -43.272  59.917 -53.992  1.00  0.00     0.195 C 
HETATM   13  C   UNL     1     -44.781  59.838 -53.779  1.00  0.00     0.261 C 
ENDROOT
BRANCH   1  14
HETATM   14  C   UNL     1     -45.365  59.290 -56.255  1.00  0.00     0.180 C 
HETATM   15  C   UNL     1     -45.866  60.720 -56.477  1.00  0.00     0.039 C 
HETATM   16  C   UNL     1     -46.225  58.344 -57.099  1.00  0.00     0.039 C 
ENDBRANCH   1  14
BRANCH   8  17
HETATM   17  C   UNL     1     -41.201  54.981 -54.324  1.00  0.00     0.311 C 
BRANCH  17  18
HETATM   18  C   UNL     1     -40.649  53.787 -53.571  1.00  0.00    -0.030 A 
HETATM   19  C   UNL     1     -40.627  53.790 -52.165  1.00  0.00     0.012 A 
HETATM   20  C   UNL     1     -40.112  52.699 -51.464  1.00  0.00     0.043 A 
HETATM   21  C   UNL     1     -39.628  51.602 -52.164  1.00  0.00     0.116 A 
HETATM   22  F   UNL     1     -39.128  50.558 -51.489  1.00  0.00    -0.206 F 
HETATM   23  C   UNL     1     -39.648  51.574 -53.552  1.00  0.00     0.043 A 
HETATM   24  C   UNL     1     -40.161  52.663 -54.257  1.00  0.00     0.012 A 
ENDBRANCH  17  18
ENDBRANCH   8  17
TORSDOF 3
ENDMDL
MODEL 5
REMARK VINA RESULT:      -7.0      1.637      2.130
REMARK  3 active torsions:
REMARK  status: ('A' for Active; 'I' for Inactive)
REMARK    1  A    between atoms: C_2  and  N_3 
REMARK    2  A    between atoms: N_10  and  C_11 
REMARK    3  A    between atoms: C_11  and  C_12 
ROOT
HETATM    1  N   UNL     1     -42.048  60.463 -54.151  1.00  0.00    -0.063 N 
HETATM    2  H   UNL     1     -41.328  61.196 -54.095  1.00  0.00     0.280 HD
HETATM    3  C   UNL     1     -41.492  59.318 -53.294  1.00  0.00     0.277 C 
HETATM    4  C   UNL     1     -42.233  57.947 -53.373  1.00  0.00     0.132 C 
HETATM    5  O   UNL     1     -43.647  58.116 -53.146  1.00  0.00    -0.373 OA
HETATM    6  C   UNL     1     -44.013  58.092 -51.761  1.00  0.00     0.199 C 
HETATM    7  C   UNL     1     -43.687  56.751 -51.084  1.00  0.00     0.299 C 
HETATM    8  N   UNL     1     -42.530  56.035 -51.652  1.00  0.00     0.097 N 
HETATM    9  C   UNL     1     -41.606  56.994 -52.284  1.00  0.00     0.314 C 
HETATM   10  C   UNL     1     -41.986  57.310 -54.768  1.00  0.00     0.209 C 
HETATM   11  O   UNL     1     -42.760  57.739 -55.878  1.00  0.00    -0.386 OA
HETATM   12  C   UNL     1     -43.165  59.091 -55.972  1.00  0.00     0.195 C 
HETATM   13  C   UNL     1     -42.075  60.104 -55.633  1.00  0.00     0.261 C 
ENDROOT
BRANCH   1  14
HETATM   14  C   UNL     1     -43.317  61.155 -53.603  1.00  0.00     0.180 C 
HETATM   15  C   UNL     1     -43.656  62.406 -54.419  1.00  0.00     0.039 C 
HETATM   16  C   UNL     1     -43.086  61.579 -52.149  1.00  0.00     0.039 C 
ENDBRANCH   1  14
BRANCH   8  17
HETATM   17  C   UNL     1     -42.957  54.956 -52.563  1.00  0.00     0.311 C 
BRANCH  17  18
HETATM   18  C   UNL     1     -41.878  53.925 -52.831  1.00  0.00    -0.030 A 
HETATM   19  C   UNL     1     -41.098  53.431 -51.771  1.00  0.00     0.012 A 
HETATM   20  C   UNL     1     -40.097  52.489 -52.009  1.00  0.00     0.043 A 
HETATM   21  C   UNL     1     -39.880  52.033 -53.303  1.00  0.00     0.116 A 
HETATM   22  F   UNL     1     -38.914  51.133 -53.531  1.00  0.00    -0.206 F 
HETATM   23  C   UNL     1     -40.645  52.500 -54.364  1.00  0.00     0.043 A 
HETATM   24  C   UNL     1     -41.646  53.443 -54.129  1.00  0.00     0.012 A 
ENDBRANCH  17  18
ENDBRANCH   8  17
TORSDOF 3
ENDMDL
MODEL 6
REMARK VINA RESULT:      -6.9      3.324      4.058
REMARK  3 active torsions:
REMARK  status: ('A' for Active; 'I' for Inactive)
REMARK    1  A    between atoms: C_2  and  N_3 
REMARK    2  A    between atoms: N_10  and  C_11 
REMARK    3  A    between atoms: C_11  and  C_12 
ROOT
HETATM    1  N   UNL     1     -42.959  58.627 -57.790  1.00  0.00    -0.063 N 
HETATM    2  H   UNL     1     -42.331  59.353 -58.162  1.00  0.00     0.280 HD
HETATM    3  C   UNL     1     -42.301  58.195 -56.473  1.00  0.00     0.277 C 
HETATM    4  C   UNL     1     -42.874  56.922 -55.776  1.00  0.00     0.132 C 
HETATM    5  O   UNL     1     -44.305  57.022 -55.626  1.00  0.00    -0.373 OA
HETATM    6  C   UNL     1     -44.710  57.704 -54.433  1.00  0.00     0.199 C 
HETATM    7  C   UNL     1     -44.253  56.985 -53.153  1.00  0.00     0.299 C 
HETATM    8  N   UNL     1     -43.002  56.215 -53.289  1.00  0.00     0.097 N 
HETATM    9  C   UNL     1     -42.177  56.783 -54.369  1.00  0.00     0.314 C 
HETATM   10  C   UNL     1     -42.510  55.668 -56.618  1.00  0.00     0.209 C 
HETATM   11  O   UNL     1     -43.293  55.341 -57.756  1.00  0.00    -0.386 OA
HETATM   12  C   UNL     1     -43.849  56.374 -58.548  1.00  0.00     0.195 C 
HETATM   13  C   UNL     1     -42.895  57.527 -58.845  1.00  0.00     0.261 C 
ENDROOT
BRANCH   1  14
HETATM   14  C   UNL     1     -44.316  59.353 -57.654  1.00  0.00     0.180 C 
HETATM   15  C   UNL     1     -44.802  59.867 -59.014  1.00  0.00     0.039 C 
HETATM   16  C   UNL     1     -44.168  60.553 -56.713  1.00  0.00     0.039 C 
ENDBRANCH   1  14
BRANCH   8  17
HETATM   17  C   UNL     1     -43.272  54.775 -53.462  1.00  0.00     0.311 C 
BRANCH  17  18
HETATM   18  C   UNL     1     -42.096  53.889 -53.098  1.00  0.00    -0.030 A 
HETATM   19  C   UNL     1     -41.650  53.824 -51.766  1.00  0.00     0.012 A 
HETATM   20  C   UNL     1     -40.563  53.019 -51.423  1.00  0.00     0.043 A 
HETATM   21  C   UNL     1     -39.927  52.273 -52.406  1.00  0.00     0.116 A 
HETATM   22  F   UNL     1     -38.880  51.505 -52.077  1.00  0.00    -0.206 F 
HETATM   23  C   UNL     1     -40.357  52.315 -53.726  1.00  0.00     0.043 A 
HETATM   24  C   UNL     1     -41.443  53.119 -54.073  1.00  0.00     0.012 A 
ENDBRANCH  17  18
ENDBRANCH   8  17
TORSDOF 3
ENDMDL
MODEL 7
REMARK VINA RESULT:      -6.9      1.824      2.130
REMARK  3 active torsions:
REMARK  status: ('A' for Active; 'I' for Inactive)
REMARK    1  A    between atoms: C_2  and  N_3 
REMARK    2  A    between atoms: N_10  and  C_11 
REMARK    3  A    between atoms: C_11  and  C_12 
ROOT
HETATM    1  N   UNL     1     -43.033  59.446 -54.884  1.00  0.00    -0.063 N 
HETATM    2  H   UNL     1     -42.604  60.379 -54.938  1.00  0.00     0.280 HD
HETATM    3  C   UNL     1     -41.890  58.528 -54.431  1.00  0.00     0.277 C 
HETATM    4  C   UNL     1     -42.147  56.990 -54.491  1.00  0.00     0.132 C 
HETATM    5  O   UNL     1     -43.375  56.650 -53.816  1.00  0.00    -0.373 OA
HETATM    6  C   UNL     1     -43.216  56.441 -52.407  1.00  0.00     0.199 C 
HETATM    7  C   UNL     1     -42.279  55.268 -52.083  1.00  0.00     0.299 C 
HETATM    8  N   UNL     1     -41.225  55.021 -53.086  1.00  0.00     0.097 N 
HETATM    9  C   UNL     1     -40.921  56.266 -53.812  1.00  0.00     0.314 C 
HETATM   10  C   UNL     1     -42.209  56.538 -55.976  1.00  0.00     0.209 C 
HETATM   11  O   UNL     1     -43.409  56.720 -56.711  1.00  0.00    -0.386 OA
HETATM   12  C   UNL     1     -44.221  57.853 -56.463  1.00  0.00     0.195 C 
HETATM   13  C   UNL     1     -43.454  59.164 -56.322  1.00  0.00     0.261 C 
ENDROOT
BRANCH   1  14
HETATM   14  C   UNL     1     -44.184  59.632 -53.869  1.00  0.00     0.180 C 
HETATM   15  C   UNL     1     -45.192  60.673 -54.368  1.00  0.00     0.039 C 
HETATM   16  C   UNL     1     -43.619  60.114 -52.530  1.00  0.00     0.039 C 
ENDBRANCH   1  14
BRANCH   8  17
HETATM   17  C   UNL     1     -41.581  53.901 -53.978  1.00  0.00     0.311 C 
BRANCH  17  18
HETATM   18  C   UNL     1     -40.878  52.603 -53.632  1.00  0.00    -0.030 A 
HETATM   19  C   UNL     1     -40.159  52.490 -52.429  1.00  0.00     0.012 A 
HETATM   20  C   UNL     1     -39.501  51.303 -52.107  1.00  0.00     0.043 A 
HETATM   21  C   UNL     1     -39.568  50.225 -52.981  1.00  0.00     0.116 A 
HETATM   22  F   UNL     1     -38.931  49.087 -52.673  1.00  0.00    -0.206 F 
HETATM   23  C   UNL     1     -40.280  50.311 -54.170  1.00  0.00     0.043 A 
HETATM   24  C   UNL     1     -40.939  51.497 -54.495  1.00  0.00     0.012 A 
ENDBRANCH  17  18
ENDBRANCH   8  17
TORSDOF 3
ENDMDL
MODEL 8
REMARK VINA RESULT:      -6.8      4.557      6.789
REMARK  3 active torsions:
REMARK  status: ('A' for Active; 'I' for Inactive)
REMARK    1  A    between atoms: C_2  and  N_3 
REMARK    2  A    between atoms: N_10  and  C_11 
REMARK    3  A    between atoms: C_11  and  C_12 
ROOT
HETATM    1  N   UNL     1     -41.968  54.199 -52.278  1.00  0.00    -0.063 N 
HETATM    2  H   UNL     1     -42.521  53.652 -51.604  1.00  0.00     0.280 HD
HETATM    3  C   UNL     1     -43.019  54.906 -53.145  1.00  0.00     0.277 C 
HETATM    4  C   UNL     1     -42.510  55.627 -54.433  1.00  0.00     0.132 C 
HETATM    5  O   UNL     1     -41.418  56.516 -54.122  1.00  0.00    -0.373 OA
HETATM    6  C   UNL     1     -41.841  57.822 -53.711  1.00  0.00     0.199 C 
HETATM    7  C   UNL     1     -42.624  58.565 -54.804  1.00  0.00     0.299 C 
HETATM    8  N   UNL     1     -43.383  57.694 -55.723  1.00  0.00     0.097 N 
HETATM    9  C   UNL     1     -43.720  56.427 -55.051  1.00  0.00     0.314 C 
HETATM   10  C   UNL     1     -42.057  54.563 -55.470  1.00  0.00     0.209 C 
HETATM   11  O   UNL     1     -40.772  53.973 -55.348  1.00  0.00    -0.386 OA
HETATM   12  C   UNL     1     -40.226  53.733 -54.064  1.00  0.00     0.195 C 
HETATM   13  C   UNL     1     -41.208  53.134 -53.061  1.00  0.00     0.261 C 
ENDROOT
BRANCH   1  14
HETATM   14  C   UNL     1     -41.109  55.120 -51.383  1.00  0.00     0.180 C 
HETATM   15  C   UNL     1     -40.256  54.299 -50.411  1.00  0.00     0.039 C 
HETATM   16  C   UNL     1     -42.019  56.040 -50.563  1.00  0.00     0.039 C 
ENDBRANCH   1  14
BRANCH   8  17
HETATM   17  C   UNL     1     -42.667  57.501 -56.998  1.00  0.00     0.311 C 
BRANCH  17  18
HETATM   18  C   UNL     1     -43.538  56.939 -58.104  1.00  0.00    -0.030 A 
HETATM   19  C   UNL     1     -43.144  55.775 -58.787  1.00  0.00     0.012 A 
HETATM   20  C   UNL     1     -43.935  55.255 -59.812  1.00  0.00     0.043 A 
HETATM   21  C   UNL     1     -45.122  55.891 -60.151  1.00  0.00     0.116 A 
HETATM   22  F   UNL     1     -45.877  55.395 -61.140  1.00  0.00    -0.206 F 
HETATM   23  C   UNL     1     -45.535  57.037 -59.484  1.00  0.00     0.043 A 
HETATM   24  C   UNL     1     -44.746  57.560 -58.458  1.00  0.00     0.012 A 
ENDBRANCH  17  18
ENDBRANCH   8  17
TORSDOF 3
ENDMDL
MODEL 9
REMARK VINA RESULT:      -6.7      1.686      2.381
REMARK  3 active torsions:
REMARK  status: ('A' for Active; 'I' for Inactive)
REMARK    1  A    between atoms: C_2  and  N_3 
REMARK    2  A    between atoms: N_10  and  C_11 
REMARK    3  A    between atoms: C_11  and  C_12 
ROOT
HETATM    1  N   UNL     1     -43.542  61.447 -50.909  1.00  0.00    -0.063 N 
HETATM    2  H   UNL     1     -43.343  62.104 -50.143  1.00  0.00     0.280 HD
HETATM    3  C   UNL     1     -42.634  60.243 -50.621  1.00  0.00     0.277 C 
HETATM    4  C   UNL     1     -42.509  59.163 -51.742  1.00  0.00     0.132 C 
HETATM    5  O   UNL     1     -43.812  58.730 -52.181  1.00  0.00    -0.373 OA
HETATM    6  C   UNL     1     -44.359  57.666 -51.391  1.00  0.00     0.199 C 
HETATM    7  C   UNL     1     -43.506  56.388 -51.444  1.00  0.00     0.299 C 
HETATM    8  N   UNL     1     -42.063  56.614 -51.652  1.00  0.00     0.097 N 
HETATM    9  C   UNL     1     -41.688  57.951 -51.157  1.00  0.00     0.314 C 
HETATM   10  C   UNL     1     -41.709  59.754 -52.935  1.00  0.00     0.209 C 
HETATM   11  O   UNL     1     -42.372  60.585 -53.876  1.00  0.00    -0.386 OA
HETATM   12  C   UNL     1     -43.405  61.451 -53.443  1.00  0.00     0.195 C 
HETATM   13  C   UNL     1     -43.099  62.208 -52.154  1.00  0.00     0.261 C 
ENDROOT
BRANCH   1  14
HETATM   14  C   UNL     1     -45.060  61.186 -50.781  1.00  0.00     0.180 C 
HETATM   15  C   UNL     1     -45.855  62.484 -50.957  1.00  0.00     0.039 C 
HETATM   16  C   UNL     1     -45.371  60.616 -49.395  1.00  0.00     0.039 C 
ENDBRANCH   1  14
BRANCH   8  17
HETATM   17  C   UNL     1     -41.679  56.388 -53.058  1.00  0.00     0.311 C 
BRANCH  17  18
HETATM   18  C   UNL     1     -41.091  55.014 -53.313  1.00  0.00    -0.030 A 
HETATM   19  C   UNL     1     -40.725  54.636 -54.617  1.00  0.00     0.012 A 
HETATM   20  C   UNL     1     -40.192  53.370 -54.862  1.00  0.00     0.043 A 
HETATM   21  C   UNL     1     -40.016  52.485 -53.806  1.00  0.00     0.116 A 
HETATM   22  F   UNL     1     -39.510  51.267 -54.045  1.00  0.00    -0.206 F 
HETATM   23  C   UNL     1     -40.361  52.841 -52.509  1.00  0.00     0.043 A 
HETATM   24  C   UNL     1     -40.896  54.106 -52.260  1.00  0.00     0.012 A 
ENDBRANCH  17  18
ENDBRANCH   8  17
TORSDOF 3
ENDMDL
MODEL 10
REMARK VINA RESULT:      -6.7     15.923     18.012
REMARK  3 active torsions:
REMARK  status: ('A' for Active; 'I' for Inactive)
REMARK    1  A    between atoms: C_2  and  N_3 
REMARK    2  A    between atoms: N_10  and  C_11 
REMARK    3  A    between atoms: C_11  and  C_12 
ROOT
HETATM    1  N   UNL     1     -33.417  38.942 -51.664  1.00  0.00    -0.063 N 
HETATM    2  H   UNL     1     -33.375  38.034 -51.183  1.00  0.00     0.280 HD
HETATM    3  C   UNL     1     -34.496  38.753 -52.739  1.00  0.00     0.277 C 
HETATM    4  C   UNL     1     -34.631  39.875 -53.816  1.00  0.00     0.132 C 
HETATM    5  O   UNL     1     -34.751  41.169 -53.192  1.00  0.00    -0.373 OA
HETATM    6  C   UNL     1     -36.097  41.515 -52.844  1.00  0.00     0.199 C 
HETATM    7  C   UNL     1     -37.023  41.606 -54.067  1.00  0.00     0.299 C 
HETATM    8  N   UNL     1     -36.654  40.724 -55.191  1.00  0.00     0.097 N 
HETATM    9  C   UNL     1     -35.905  39.558 -54.688  1.00  0.00     0.314 C 
HETATM   10  C   UNL     1     -33.390  39.842 -54.749  1.00  0.00     0.209 C 
HETATM   11  O   UNL     1     -32.182  40.458 -54.326  1.00  0.00    -0.386 OA
HETATM   12  C   UNL     1     -31.823  40.435 -52.958  1.00  0.00     0.195 C 
HETATM   13  C   UNL     1     -32.026  39.087 -52.272  1.00  0.00     0.261 C 
ENDROOT
BRANCH   1  14
HETATM   14  C   UNL     1     -33.766  39.938 -50.534  1.00  0.00     0.180 C 
HETATM   15  C   UNL     1     -32.667  39.964 -49.468  1.00  0.00     0.039 C 
HETATM   16  C   UNL     1     -35.077  39.519 -49.863  1.00  0.00     0.039 C 
ENDBRANCH   1  14
BRANCH   8  17
HETATM   17  C   UNL     1     -35.934  41.465 -56.244  1.00  0.00     0.311 C 
BRANCH  17  18
HETATM   18  C   UNL     1     -36.384  41.113 -57.648  1.00  0.00    -0.030 A 
HETATM   19  C   UNL     1     -36.982  42.091 -58.462  1.00  0.00     0.012 A 
HETATM   20  C   UNL     1     -37.407  41.774 -59.752  1.00  0.00     0.043 A 
HETATM   21  C   UNL     1     -37.229  40.484 -60.234  1.00  0.00     0.116 A 
HETATM   22  F   UNL     1     -37.644  40.179 -61.471  1.00  0.00    -0.206 F 
HETATM   23  C   UNL     1     -36.633  39.504 -59.451  1.00  0.00     0.043 A 
HETATM   24  C   UNL     1     -36.207  39.817 -58.160  1.00  0.00     0.012 A 
ENDBRANCH  17  18
ENDBRANCH   8  17
TORSDOF 3
ENDMDL
