MODEL 1
REMARK VINA RESULT:      -9.0      0.000      0.000
REMARK  6 active torsions:
REMARK  status: ('A' for Active; 'I' for Inactive)
REMARK    1  A    between atoms: O_2  and  C_3 
REMARK    2  A    between atoms: C_4  and  C_5 
REMARK    3  A    between atoms: C_5  and  N_6 
REMARK       I    between atoms: N_6  and  C_7 
REMARK    4  A    between atoms: C_7  and  C_8 
REMARK    5  A    between atoms: C_8  and  O_9 
REMARK    6  A    between atoms: N_10  and  C_11 
ROOT
HETATM    1  C   UNL     1     -43.291  55.421 -54.086  1.00  0.00     0.256 C 
HETATM    2  N   UNL     1     -43.106  56.755 -54.685  1.00  0.00    -0.254 N 
HETATM    3  C   UNL     1     -42.174  57.624 -54.128  1.00  0.00     0.330 C 
HETATM    4  O   UNL     1     -41.666  58.588 -54.702  1.00  0.00    -0.246 OA
HETATM    5  N   UNL     1     -41.764  57.382 -52.852  1.00  0.00    -0.308 N 
HETATM    6  C   UNL     1     -42.258  56.382 -52.029  1.00  0.00     0.048 A 
HETATM    7  C   UNL     1     -43.067  55.403 -52.586  1.00  0.00     0.034 A 
HETATM    8  C   UNL     1     -41.943  56.382 -50.669  1.00  0.00     0.030 A 
HETATM    9  C   UNL     1     -42.463  55.388 -49.841  1.00  0.00     0.002 A 
HETATM   10  C   UNL     1     -43.279  54.396 -50.378  1.00  0.00     0.001 A 
HETATM   11  C   UNL     1     -43.573  54.396 -51.744  1.00  0.00     0.015 A 
HETATM   12  H   UNL     1     -41.153  58.092 -52.470  1.00  0.00     0.170 HD
ENDROOT
BRANCH   1  13
HETATM   13  C   UNL     1     -42.347  54.342 -54.758  1.00  0.00     0.279 C 
HETATM   14  N   UNL     1     -41.106  54.140 -54.195  1.00  0.00    -0.352 N 
HETATM   15  H   UNL     1     -40.761  54.803 -53.513  1.00  0.00     0.162 HD
HETATM   16  O   UNL     1     -42.758  53.691 -55.724  1.00  0.00    -0.268 OA
BRANCH  14  17
HETATM   17  C   UNL     1     -40.151  53.191 -54.737  1.00  0.00     0.164 C 
BRANCH  17  18
HETATM   18  C   UNL     1     -39.954  51.950 -53.892  1.00  0.00    -0.007 A 
HETATM   19  C   UNL     1     -39.811  52.092 -52.494  1.00  0.00     0.076 A 
HETATM   20  C   UNL     1     -39.653  50.960 -51.687  1.00  0.00     0.037 A 
HETATM   21  C   UNL     1     -39.631  49.686 -52.256  1.00  0.00     0.003 A 
HETATM   22  C   UNL     1     -39.769  49.535 -53.632  1.00  0.00     0.001 A 
HETATM   23  C   UNL     1     -39.932  50.658 -54.444  1.00  0.00     0.011 A 
BRANCH  19  24
HETATM   24  O   UNL     1     -39.863  53.378 -52.016  1.00  0.00    -0.355 OA
HETATM   25  C   UNL     1     -39.640  53.559 -50.622  1.00  0.00     0.210 C 
ENDBRANCH  19  24
ENDBRANCH  17  18
ENDBRANCH  14  17
ENDBRANCH   1  13
BRANCH   1  26
HETATM   26  O   UNL     1     -44.659  55.024 -54.269  1.00  0.00    -0.359 OA
HETATM   27  H   UNL     1     -45.039  55.701 -54.861  1.00  0.00     0.213 HD
ENDBRANCH   1  26
BRANCH   2  28
HETATM   28  C   UNL     1     -43.745  57.091 -55.937  1.00  0.00     0.043 A 
HETATM   29  C   UNL     1     -44.889  57.903 -56.010  1.00  0.00     0.031 A 
HETATM   30  C   UNL     1     -45.469  58.237 -57.242  1.00  0.00     0.026 A 
HETATM   31  C   UNL     1     -44.904  57.775 -58.424  1.00  0.00     0.034 A 
HETATM   32 CL   UNL     1     -45.607  58.198 -59.936  1.00  0.00    -0.084 Cl
HETATM   33  C   UNL     1     -43.768  56.978 -58.386  1.00  0.00     0.026 A 
HETATM   34  C   UNL     1     -43.198  56.640 -57.152  1.00  0.00     0.031 A 
ENDBRANCH   2  28
TORSDOF 6
ENDMDL
MODEL 2
REMARK VINA RESULT:      -8.9      3.085      7.147
REMARK  6 active torsions:
REMARK  status: ('A' for Active; 'I' for Inactive)
REMARK    1  A    between atoms: O_2  and  C_3 
REMARK    2  A    between atoms: C_4  and  C_5 
REMARK    3  A    between atoms: C_5  and  N_6 
REMARK       I    between atoms: N_6  and  C_7 
REMARK    4  A    between atoms: C_7  and  C_8 
REMARK    5  A    between atoms: C_8  and  O_9 
REMARK    6  A    between atoms: N_10  and  C_11 
ROOT
HETATM    1  C   UNL     1     -41.727  56.071 -53.728  1.00  0.00     0.256 C 
HETATM    2  N   UNL     1     -41.937  54.927 -52.823  1.00  0.00    -0.254 N 
HETATM    3  C   UNL     1     -42.878  55.032 -51.805  1.00  0.00     0.330 C 
HETATM    4  O   UNL     1     -43.404  54.085 -51.220  1.00  0.00    -0.246 OA
HETATM    5  N   UNL     1     -43.277  56.281 -51.436  1.00  0.00    -0.308 N 
HETATM    6  C   UNL     1     -42.763  57.466 -51.938  1.00  0.00     0.048 A 
HETATM    7  C   UNL     1     -41.942  57.414 -53.055  1.00  0.00     0.034 A 
HETATM    8  C   UNL     1     -43.070  58.677 -51.315  1.00  0.00     0.030 A 
HETATM    9  C   UNL     1     -42.530  59.864 -51.809  1.00  0.00     0.002 A 
HETATM   10  C   UNL     1     -41.701  59.834 -52.927  1.00  0.00     0.001 A 
HETATM   11  C   UNL     1     -41.415  58.619 -53.554  1.00  0.00     0.015 A 
HETATM   12  H   UNL     1     -43.897  56.300 -50.636  1.00  0.00     0.170 HD
ENDROOT
BRANCH   1  13
HETATM   13  C   UNL     1     -42.658  55.985 -55.006  1.00  0.00     0.279 C 
HETATM   14  N   UNL     1     -42.046  55.924 -56.239  1.00  0.00    -0.352 N 
HETATM   15  H   UNL     1     -41.058  56.131 -56.309  1.00  0.00     0.162 HD
HETATM   16  O   UNL     1     -43.885  55.932 -54.863  1.00  0.00    -0.268 OA
BRANCH  14  17
HETATM   17  C   UNL     1     -42.798  55.862 -57.478  1.00  0.00     0.164 C 
BRANCH  17  18
HETATM   18  C   UNL     1     -42.623  57.068 -58.377  1.00  0.00    -0.007 A 
HETATM   19  C   UNL     1     -42.908  56.938 -59.755  1.00  0.00     0.076 A 
HETATM   20  C   UNL     1     -42.780  58.043 -60.603  1.00  0.00     0.037 A 
HETATM   21  C   UNL     1     -42.365  59.276 -60.099  1.00  0.00     0.003 A 
HETATM   22  C   UNL     1     -42.081  59.415 -58.744  1.00  0.00     0.001 A 
HETATM   23  C   UNL     1     -42.211  58.320 -57.889  1.00  0.00     0.011 A 
BRANCH  19  24
HETATM   24  O   UNL     1     -43.327  55.697 -60.164  1.00  0.00    -0.355 OA
HETATM   25  C   UNL     1     -44.633  55.606 -60.722  1.00  0.00     0.210 C 
ENDBRANCH  19  24
ENDBRANCH  17  18
ENDBRANCH  14  17
ENDBRANCH   1  13
BRANCH   1  26
HETATM   26  O   UNL     1     -40.354  56.076 -54.149  1.00  0.00    -0.359 OA
HETATM   27  H   UNL     1     -40.392  56.102 -55.125  1.00  0.00     0.213 HD
ENDBRANCH   1  26
BRANCH   2  28
HETATM   28  C   UNL     1     -41.310  53.654 -53.094  1.00  0.00     0.043 A 
HETATM   29  C   UNL     1     -41.590  52.900 -54.247  1.00  0.00     0.031 A 
HETATM   30  C   UNL     1     -40.943  51.682 -54.497  1.00  0.00     0.026 A 
HETATM   31  C   UNL     1     -39.992  51.204 -53.603  1.00  0.00     0.034 A 
HETATM   32 CL   UNL     1     -39.188  49.717 -53.919  1.00  0.00    -0.084 Cl
HETATM   33  C   UNL     1     -39.687  51.929 -52.460  1.00  0.00     0.026 A 
HETATM   34  C   UNL     1     -40.343  53.140 -52.211  1.00  0.00     0.031 A 
ENDBRANCH   2  28
TORSDOF 6
ENDMDL
MODEL 3
REMARK VINA RESULT:      -8.8      2.944      6.999
REMARK  6 active torsions:
REMARK  status: ('A' for Active; 'I' for Inactive)
REMARK    1  A    between atoms: O_2  and  C_3 
REMARK    2  A    between atoms: C_4  and  C_5 
REMARK    3  A    between atoms: C_5  and  N_6 
REMARK       I    between atoms: N_6  and  C_7 
REMARK    4  A    between atoms: C_7  and  C_8 
REMARK    5  A    between atoms: C_8  and  O_9 
REMARK    6  A    between atoms: N_10  and  C_11 
ROOT
HETATM    1  C   UNL     1     -41.586  55.883 -53.845  1.00  0.00     0.256 C 
HETATM    2  N   UNL     1     -41.695  54.808 -52.843  1.00  0.00    -0.254 N 
HETATM    3  C   UNL     1     -42.559  54.971 -51.766  1.00  0.00     0.330 C 
HETATM    4  O   UNL     1     -43.013  54.059 -51.073  1.00  0.00    -0.246 OA
HETATM    5  N   UNL     1     -42.963  56.236 -51.462  1.00  0.00    -0.308 N 
HETATM    6  C   UNL     1     -42.520  57.389 -52.090  1.00  0.00     0.048 A 
HETATM    7  C   UNL     1     -41.786  57.268 -53.260  1.00  0.00     0.034 A 
HETATM    8  C   UNL     1     -42.813  58.638 -51.537  1.00  0.00     0.030 A 
HETATM    9  C   UNL     1     -42.344  59.794 -52.159  1.00  0.00     0.002 A 
HETATM   10  C   UNL     1     -41.602  59.696 -53.333  1.00  0.00     0.001 A 
HETATM   11  C   UNL     1     -41.332  58.443 -53.887  1.00  0.00     0.015 A 
HETATM   12  H   UNL     1     -43.520  56.302 -50.620  1.00  0.00     0.170 HD
ENDROOT
BRANCH   1  13
HETATM   13  C   UNL     1     -42.609  55.679 -55.037  1.00  0.00     0.279 C 
HETATM   14  N   UNL     1     -42.124  55.797 -56.321  1.00  0.00    -0.352 N 
HETATM   15  H   UNL     1     -41.205  56.194 -56.466  1.00  0.00     0.162 HD
HETATM   16  O   UNL     1     -43.782  55.383 -54.788  1.00  0.00    -0.268 OA
BRANCH  14  17
HETATM   17  C   UNL     1     -42.972  55.650 -57.489  1.00  0.00     0.164 C 
BRANCH  17  18
HETATM   18  C   UNL     1     -42.944  56.830 -58.436  1.00  0.00    -0.007 A 
HETATM   19  C   UNL     1     -43.740  57.960 -58.143  1.00  0.00     0.076 A 
HETATM   20  C   UNL     1     -43.713  59.074 -58.988  1.00  0.00     0.037 A 
HETATM   21  C   UNL     1     -42.906  59.077 -60.127  1.00  0.00     0.003 A 
HETATM   22  C   UNL     1     -42.120  57.970 -60.426  1.00  0.00     0.001 A 
HETATM   23  C   UNL     1     -42.136  56.855 -59.587  1.00  0.00     0.011 A 
BRANCH  19  24
HETATM   24  O   UNL     1     -44.488  57.881 -56.995  1.00  0.00    -0.355 OA
HETATM   25  C   UNL     1     -44.297  58.906 -56.027  1.00  0.00     0.210 C 
ENDBRANCH  19  24
ENDBRANCH  17  18
ENDBRANCH  14  17
ENDBRANCH   1  13
BRANCH   1  26
HETATM   26  O   UNL     1     -40.250  55.885 -54.371  1.00  0.00    -0.359 OA
HETATM   27  H   UNL     1     -40.306  56.404 -55.196  1.00  0.00     0.213 HD
ENDBRANCH   1  26
BRANCH   2  28
HETATM   28  C   UNL     1     -41.056  53.531 -53.066  1.00  0.00     0.043 A 
HETATM   29  C   UNL     1     -40.127  52.981 -52.168  1.00  0.00     0.031 A 
HETATM   30  C   UNL     1     -39.546  51.725 -52.398  1.00  0.00     0.026 A 
HETATM   31  C   UNL     1     -39.898  50.992 -53.525  1.00  0.00     0.034 A 
HETATM   32 CL   UNL     1     -39.197  49.445 -53.796  1.00  0.00    -0.084 Cl
HETATM   33  C   UNL     1     -40.820  51.504 -54.426  1.00  0.00     0.026 A 
HETATM   34  C   UNL     1     -41.390  52.763 -54.197  1.00  0.00     0.031 A 
ENDBRANCH   2  28
TORSDOF 6
ENDMDL
MODEL 4
REMARK VINA RESULT:      -8.7      2.518      3.361
REMARK  6 active torsions:
REMARK  status: ('A' for Active; 'I' for Inactive)
REMARK    1  A    between atoms: O_2  and  C_3 
REMARK    2  A    between atoms: C_4  and  C_5 
REMARK    3  A    between atoms: C_5  and  N_6 
REMARK       I    between atoms: N_6  and  C_7 
REMARK    4  A    between atoms: C_7  and  C_8 
REMARK    5  A    between atoms: C_8  and  O_9 
REMARK    6  A    between atoms: N_10  and  C_11 
ROOT
HETATM    1  C   UNL     1     -43.831  57.843 -52.959  1.00  0.00     0.256 C 
HETATM    2  N   UNL     1     -43.100  58.341 -54.138  1.00  0.00    -0.254 N 
HETATM    3  C   UNL     1     -42.237  59.422 -53.993  1.00  0.00     0.330 C 
HETATM    4  O   UNL     1     -41.323  59.713 -54.765  1.00  0.00    -0.246 OA
HETATM    5  N   UNL     1     -42.391  60.214 -52.895  1.00  0.00    -0.308 N 
HETATM    6  C   UNL     1     -43.391  60.079 -51.945  1.00  0.00     0.048 A 
HETATM    7  C   UNL     1     -44.173  58.934 -51.962  1.00  0.00     0.034 A 
HETATM    8  C   UNL     1     -43.596  61.090 -51.003  1.00  0.00     0.030 A 
HETATM    9  C   UNL     1     -44.620  60.960 -50.066  1.00  0.00     0.002 A 
HETATM   10  C   UNL     1     -45.419  59.820 -50.067  1.00  0.00     0.001 A 
HETATM   11  C   UNL     1     -45.193  58.807 -51.002  1.00  0.00     0.015 A 
HETATM   12  H   UNL     1     -41.794  61.031 -52.886  1.00  0.00     0.170 HD
ENDROOT
BRANCH   1  13
HETATM   13  C   UNL     1     -43.028  56.701 -52.212  1.00  0.00     0.279 C 
HETATM   14  N   UNL     1     -43.625  55.464 -52.108  1.00  0.00    -0.352 N 
HETATM   15  H   UNL     1     -44.609  55.372 -52.327  1.00  0.00     0.162 HD
HETATM   16  O   UNL     1     -41.891  56.934 -51.788  1.00  0.00    -0.268 OA
BRANCH  14  17
HETATM   17  C   UNL     1     -42.992  54.349 -51.429  1.00  0.00     0.164 C 
BRANCH  17  18
HETATM   18  C   UNL     1     -41.924  53.647 -52.241  1.00  0.00    -0.007 A 
HETATM   19  C   UNL     1     -40.796  53.119 -51.573  1.00  0.00     0.076 A 
HETATM   20  C   UNL     1     -39.807  52.443 -52.295  1.00  0.00     0.037 A 
HETATM   21  C   UNL     1     -39.923  52.290 -53.678  1.00  0.00     0.003 A 
HETATM   22  C   UNL     1     -41.028  52.807 -54.345  1.00  0.00     0.001 A 
HETATM   23  C   UNL     1     -42.023  53.478 -53.633  1.00  0.00     0.011 A 
BRANCH  19  24
HETATM   24  O   UNL     1     -40.770  53.298 -50.213  1.00  0.00    -0.355 OA
HETATM   25  C   UNL     1     -39.785  54.186 -49.695  1.00  0.00     0.210 C 
ENDBRANCH  19  24
ENDBRANCH  17  18
ENDBRANCH  14  17
ENDBRANCH   1  13
BRANCH   1  26
HETATM   26  O   UNL     1     -45.095  57.318 -53.393  1.00  0.00    -0.359 OA
HETATM   27  H   UNL     1     -45.031  56.355 -53.245  1.00  0.00     0.213 HD
ENDBRANCH   1  26
BRANCH   2  28
HETATM   28  C   UNL     1     -43.135  57.612 -55.385  1.00  0.00     0.043 A 
HETATM   29  C   UNL     1     -42.469  56.388 -55.567  1.00  0.00     0.031 A 
HETATM   30  C   UNL     1     -42.548  55.689 -56.780  1.00  0.00     0.026 A 
HETATM   31  C   UNL     1     -43.307  56.197 -57.827  1.00  0.00     0.034 A 
HETATM   32 CL   UNL     1     -43.415  55.330 -59.309  1.00  0.00    -0.084 Cl
HETATM   33  C   UNL     1     -43.984  57.398 -57.675  1.00  0.00     0.026 A 
HETATM   34  C   UNL     1     -43.895  58.097 -56.465  1.00  0.00     0.031 A 
ENDBRANCH   2  28
TORSDOF 6
ENDMDL
MODEL 5
REMARK VINA RESULT:      -8.7      1.915      2.938
REMARK  6 active torsions:
REMARK  status: ('A' for Active; 'I' for Inactive)
REMARK    1  A    between atoms: O_2  and  C_3 
REMARK    2  A    between atoms: C_4  and  C_5 
REMARK    3  A    between atoms: C_5  and  N_6 
REMARK       I    between atoms: N_6  and  C_7 
REMARK    4  A    between atoms: C_7  and  C_8 
REMARK    5  A    between atoms: C_8  and  O_9 
REMARK    6  A    between atoms: N_10  and  C_11 
ROOT
HETATM    1  C   UNL     1     -43.281  56.905 -55.088  1.00  0.00     0.256 C 
HETATM    2  N   UNL     1     -43.153  57.608 -56.377  1.00  0.00    -0.254 N 
HETATM    3  C   UNL     1     -42.350  58.740 -56.454  1.00  0.00     0.330 C 
HETATM    4  O   UNL     1     -41.873  59.207 -57.489  1.00  0.00    -0.246 OA
HETATM    5  N   UNL     1     -42.039  59.377 -55.290  1.00  0.00    -0.308 N 
HETATM    6  C   UNL     1     -42.522  59.036 -54.037  1.00  0.00     0.048 A 
HETATM    7  C   UNL     1     -43.193  57.831 -53.890  1.00  0.00     0.034 A 
HETATM    8  C   UNL     1     -42.331  59.902 -52.959  1.00  0.00     0.030 A 
HETATM    9  C   UNL     1     -42.841  59.564 -51.706  1.00  0.00     0.002 A 
HETATM   10  C   UNL     1     -43.521  58.361 -51.536  1.00  0.00     0.001 A 
HETATM   11  C   UNL     1     -43.690  57.494 -52.618  1.00  0.00     0.015 A 
HETATM   12  H   UNL     1     -41.525  60.240 -55.414  1.00  0.00     0.170 HD
ENDROOT
BRANCH   1  13
HETATM   13  C   UNL     1     -42.195  55.763 -54.933  1.00  0.00     0.279 C 
HETATM   14  N   UNL     1     -42.645  54.479 -54.717  1.00  0.00    -0.352 N 
HETATM   15  H   UNL     1     -43.616  54.332 -54.472  1.00  0.00     0.162 HD
HETATM   16  O   UNL     1     -40.997  56.043 -55.050  1.00  0.00    -0.268 OA
BRANCH  14  17
HETATM   17  C   UNL     1     -41.741  53.358 -54.541  1.00  0.00     0.164 C 
BRANCH  17  18
HETATM   18  C   UNL     1     -41.236  53.177 -53.125  1.00  0.00    -0.007 A 
HETATM   19  C   UNL     1     -40.174  52.275 -52.889  1.00  0.00     0.076 A 
HETATM   20  C   UNL     1     -39.672  52.109 -51.594  1.00  0.00     0.037 A 
HETATM   21  C   UNL     1     -40.217  52.825 -50.527  1.00  0.00     0.003 A 
HETATM   22  C   UNL     1     -41.264  53.714 -50.748  1.00  0.00     0.001 A 
HETATM   23  C   UNL     1     -41.769  53.891 -52.037  1.00  0.00     0.011 A 
BRANCH  19  24
HETATM   24  O   UNL     1     -39.685  51.626 -53.994  1.00  0.00    -0.355 OA
HETATM   25  C   UNL     1     -39.683  50.204 -53.962  1.00  0.00     0.210 C 
ENDBRANCH  19  24
ENDBRANCH  17  18
ENDBRANCH  14  17
ENDBRANCH   1  13
BRANCH   1  26
HETATM   26  O   UNL     1     -44.590  56.317 -55.016  1.00  0.00    -0.359 OA
HETATM   27  H   UNL     1     -45.206  57.073 -55.069  1.00  0.00     0.213 HD
ENDBRANCH   1  26
BRANCH   2  28
HETATM   28  C   UNL     1     -43.701  57.032 -57.584  1.00  0.00     0.043 A 
HETATM   29  C   UNL     1     -44.839  57.552 -58.223  1.00  0.00     0.031 A 
HETATM   30  C   UNL     1     -45.330  56.990 -59.410  1.00  0.00     0.026 A 
HETATM   31  C   UNL     1     -44.681  55.904 -59.985  1.00  0.00     0.034 A 
HETATM   32 CL   UNL     1     -45.275  55.226 -61.450  1.00  0.00    -0.084 Cl
HETATM   33  C   UNL     1     -43.550  55.373 -59.383  1.00  0.00     0.026 A 
HETATM   34  C   UNL     1     -43.069  55.933 -58.193  1.00  0.00     0.031 A 
ENDBRANCH   2  28
TORSDOF 6
ENDMDL
MODEL 6
REMARK VINA RESULT:      -8.0      3.065      6.604
REMARK  6 active torsions:
REMARK  status: ('A' for Active; 'I' for Inactive)
REMARK    1  A    between atoms: O_2  and  C_3 
REMARK    2  A    between atoms: C_4  and  C_5 
REMARK    3  A    between atoms: C_5  and  N_6 
REMARK       I    between atoms: N_6  and  C_7 
REMARK    4  A    between atoms: C_7  and  C_8 
REMARK    5  A    between atoms: C_8  and  O_9 
REMARK    6  A    between atoms: N_10  and  C_11 
ROOT
HETATM    1  C   UNL     1     -43.632  56.771 -54.387  1.00  0.00     0.256 C 
HETATM    2  N   UNL     1     -43.350  57.745 -53.318  1.00  0.00    -0.254 N 
HETATM    3  C   UNL     1     -42.054  57.855 -52.827  1.00  0.00     0.330 C 
HETATM    4  O   UNL     1     -41.602  58.827 -52.219  1.00  0.00    -0.246 OA
HETATM    5  N   UNL     1     -41.198  56.820 -53.055  1.00  0.00    -0.308 N 
HETATM    6  C   UNL     1     -41.535  55.625 -53.671  1.00  0.00     0.048 A 
HETATM    7  C   UNL     1     -42.762  55.530 -54.311  1.00  0.00     0.034 A 
HETATM    8  C   UNL     1     -40.647  54.548 -53.632  1.00  0.00     0.030 A 
HETATM    9  C   UNL     1     -41.002  53.340 -54.232  1.00  0.00     0.002 A 
HETATM   10  C   UNL     1     -42.230  53.222 -54.877  1.00  0.00     0.001 A 
HETATM   11  C   UNL     1     -43.103  54.312 -54.926  1.00  0.00     0.015 A 
HETATM   12  H   UNL     1     -40.298  56.917 -52.604  1.00  0.00     0.170 HD
ENDROOT
BRANCH   1  13
HETATM   13  C   UNL     1     -43.477  57.417 -55.824  1.00  0.00     0.279 C 
HETATM   14  N   UNL     1     -44.623  57.612 -56.564  1.00  0.00    -0.352 N 
HETATM   15  H   UNL     1     -45.483  57.170 -56.265  1.00  0.00     0.162 HD
HETATM   16  O   UNL     1     -42.358  57.762 -56.219  1.00  0.00    -0.268 OA
BRANCH  14  17
HETATM   17  C   UNL     1     -44.600  58.177 -57.899  1.00  0.00     0.164 C 
BRANCH  17  18
HETATM   18  C   UNL     1     -45.103  57.246 -58.982  1.00  0.00    -0.007 A 
HETATM   19  C   UNL     1     -44.178  56.407 -59.644  1.00  0.00     0.076 A 
HETATM   20  C   UNL     1     -44.620  55.519 -60.631  1.00  0.00     0.037 A 
HETATM   21  C   UNL     1     -45.972  55.460 -60.972  1.00  0.00     0.003 A 
HETATM   22  C   UNL     1     -46.890  56.282 -60.329  1.00  0.00     0.001 A 
HETATM   23  C   UNL     1     -46.460  57.167 -59.339  1.00  0.00     0.011 A 
BRANCH  19  24
HETATM   24  O   UNL     1     -42.873  56.517 -59.235  1.00  0.00    -0.355 OA
HETATM   25  C   UNL     1     -41.971  57.174 -60.118  1.00  0.00     0.210 C 
ENDBRANCH  19  24
ENDBRANCH  17  18
ENDBRANCH  14  17
ENDBRANCH   1  13
BRANCH   1  26
HETATM   26  O   UNL     1     -44.979  56.297 -54.230  1.00  0.00    -0.359 OA
HETATM   27  H   UNL     1     -45.187  56.443 -53.287  1.00  0.00     0.213 HD
ENDBRANCH   1  26
BRANCH   2  28
HETATM   28  C   UNL     1     -44.357  58.698 -52.910  1.00  0.00     0.043 A 
HETATM   29  C   UNL     1     -45.029  58.612 -51.679  1.00  0.00     0.031 A 
HETATM   30  C   UNL     1     -45.979  59.569 -51.299  1.00  0.00     0.026 A 
HETATM   31  C   UNL     1     -46.264  60.639 -52.139  1.00  0.00     0.034 A 
HETATM   32 CL   UNL     1     -47.419  61.821 -51.663  1.00  0.00    -0.084 Cl
HETATM   33  C   UNL     1     -45.610  60.757 -53.357  1.00  0.00     0.026 A 
HETATM   34  C   UNL     1     -44.668  59.793 -53.737  1.00  0.00     0.031 A 
ENDBRANCH   2  28
TORSDOF 6
ENDMDL
MODEL 7
REMARK VINA RESULT:      -7.8      2.732      5.919
REMARK  6 active torsions:
REMARK  status: ('A' for Active; 'I' for Inactive)
REMARK    1  A    between atoms: O_2  and  C_3 
REMARK    2  A    between atoms: C_4  and  C_5 
REMARK    3  A    between atoms: C_5  and  N_6 
REMARK       I    between atoms: N_6  and  C_7 
REMARK    4  A    between atoms: C_7  and  C_8 
REMARK    5  A    between atoms: C_8  and  O_9 
REMARK    6  A    between atoms: N_10  and  C_11 
ROOT
HETATM    1  C   UNL     1     -42.702  56.436 -52.487  1.00  0.00     0.256 C 
HETATM    2  N   UNL     1     -42.860  57.659 -51.681  1.00  0.00    -0.254 N 
HETATM    3  C   UNL     1     -41.845  58.032 -50.808  1.00  0.00     0.330 C 
HETATM    4  O   UNL     1     -41.673  59.164 -50.355  1.00  0.00    -0.246 OA
HETATM    5  N   UNL     1     -40.945  57.078 -50.438  1.00  0.00    -0.308 N 
HETATM    6  C   UNL     1     -41.002  55.741 -50.798  1.00  0.00     0.048 A 
HETATM    7  C   UNL     1     -41.898  55.358 -51.785  1.00  0.00     0.034 A 
HETATM    8  C   UNL     1     -40.171  54.814 -50.166  1.00  0.00     0.030 A 
HETATM    9  C   UNL     1     -40.250  53.467 -50.515  1.00  0.00     0.002 A 
HETATM   10  C   UNL     1     -41.145  53.059 -51.500  1.00  0.00     0.001 A 
HETATM   11  C   UNL     1     -41.958  53.998 -52.140  1.00  0.00     0.015 A 
HETATM   12  H   UNL     1     -40.281  57.383 -49.737  1.00  0.00     0.170 HD
ENDROOT
BRANCH   1  13
HETATM   13  C   UNL     1     -42.034  56.740 -53.890  1.00  0.00     0.279 C 
HETATM   14  N   UNL     1     -42.789  56.513 -55.019  1.00  0.00    -0.352 N 
HETATM   15  H   UNL     1     -43.650  55.988 -54.939  1.00  0.00     0.162 HD
HETATM   16  O   UNL     1     -40.889  57.205 -53.931  1.00  0.00    -0.268 OA
BRANCH  14  17
HETATM   17  C   UNL     1     -42.275  56.738 -56.357  1.00  0.00     0.164 C 
BRANCH  17  18
HETATM   18  C   UNL     1     -43.320  56.669 -57.449  1.00  0.00    -0.007 A 
HETATM   19  C   UNL     1     -44.322  57.665 -57.501  1.00  0.00     0.076 A 
HETATM   20  C   UNL     1     -45.284  57.639 -58.515  1.00  0.00     0.037 A 
HETATM   21  C   UNL     1     -45.268  56.629 -59.478  1.00  0.00     0.003 A 
HETATM   22  C   UNL     1     -44.288  55.643 -59.437  1.00  0.00     0.001 A 
HETATM   23  C   UNL     1     -43.320  55.663 -58.432  1.00  0.00     0.011 A 
BRANCH  19  24
HETATM   24  O   UNL     1     -44.254  58.630 -56.527  1.00  0.00    -0.355 OA
HETATM   25  C   UNL     1     -44.178  59.983 -56.961  1.00  0.00     0.210 C 
ENDBRANCH  19  24
ENDBRANCH  17  18
ENDBRANCH  14  17
ENDBRANCH   1  13
BRANCH   1  26
HETATM   26  O   UNL     1     -43.999  55.859 -52.702  1.00  0.00    -0.359 OA
HETATM   27  H   UNL     1     -44.397  55.799 -51.813  1.00  0.00     0.213 HD
ENDBRANCH   1  26
BRANCH   2  28
HETATM   28  C   UNL     1     -43.966  58.558 -51.923  1.00  0.00     0.043 A 
HETATM   29  C   UNL     1     -45.051  58.680 -51.039  1.00  0.00     0.031 A 
HETATM   30  C   UNL     1     -46.095  59.583 -51.286  1.00  0.00     0.026 A 
HETATM   31  C   UNL     1     -46.063  60.390 -52.416  1.00  0.00     0.034 A 
HETATM   32 CL   UNL     1     -47.337  61.508 -52.710  1.00  0.00    -0.084 Cl
HETATM   33  C   UNL     1     -45.001  60.299 -53.305  1.00  0.00     0.026 A 
HETATM   34  C   UNL     1     -43.966  59.389 -53.058  1.00  0.00     0.031 A 
ENDBRANCH   2  28
TORSDOF 6
ENDMDL
MODEL 8
REMARK VINA RESULT:      -7.7      3.480      6.784
REMARK  6 active torsions:
REMARK  status: ('A' for Active; 'I' for Inactive)
REMARK    1  A    between atoms: O_2  and  C_3 
REMARK    2  A    between atoms: C_4  and  C_5 
REMARK    3  A    between atoms: C_5  and  N_6 
REMARK       I    between atoms: N_6  and  C_7 
REMARK    4  A    between atoms: C_7  and  C_8 
REMARK    5  A    between atoms: C_8  and  O_9 
REMARK    6  A    between atoms: N_10  and  C_11 
ROOT
HETATM    1  C   UNL     1     -43.527  57.179 -53.992  1.00  0.00     0.256 C 
HETATM    2  N   UNL     1     -42.817  58.315 -53.379  1.00  0.00    -0.254 N 
HETATM    3  C   UNL     1     -41.472  58.512 -53.671  1.00  0.00     0.330 C 
HETATM    4  O   UNL     1     -40.860  59.572 -53.532  1.00  0.00    -0.246 OA
HETATM    5  N   UNL     1     -40.772  57.458 -54.176  1.00  0.00    -0.308 N 
HETATM    6  C   UNL     1     -41.271  56.177 -54.352  1.00  0.00     0.048 A 
HETATM    7  C   UNL     1     -42.636  55.973 -54.224  1.00  0.00     0.034 A 
HETATM    8  C   UNL     1     -40.399  55.126 -54.646  1.00  0.00     0.030 A 
HETATM    9  C   UNL     1     -40.903  53.835 -54.797  1.00  0.00     0.002 A 
HETATM   10  C   UNL     1     -42.271  53.606 -54.669  1.00  0.00     0.001 A 
HETATM   11  C   UNL     1     -43.135  54.668 -54.394  1.00  0.00     0.015 A 
HETATM   12  H   UNL     1     -39.782  57.633 -54.289  1.00  0.00     0.170 HD
ENDROOT
BRANCH   1  13
HETATM   13  C   UNL     1     -44.206  57.584 -55.364  1.00  0.00     0.279 C 
HETATM   14  N   UNL     1     -43.394  57.692 -56.472  1.00  0.00    -0.352 N 
HETATM   15  H   UNL     1     -42.390  57.705 -56.346  1.00  0.00     0.162 HD
HETATM   16  O   UNL     1     -45.430  57.748 -55.412  1.00  0.00    -0.268 OA
BRANCH  14  17
HETATM   17  C   UNL     1     -43.903  58.075 -57.775  1.00  0.00     0.164 C 
BRANCH  17  18
HETATM   18  C   UNL     1     -44.350  56.914 -58.638  1.00  0.00    -0.007 A 
HETATM   19  C   UNL     1     -45.524  57.051 -59.412  1.00  0.00     0.076 A 
HETATM   20  C   UNL     1     -45.945  56.004 -60.238  1.00  0.00     0.037 A 
HETATM   21  C   UNL     1     -45.215  54.816 -60.299  1.00  0.00     0.003 A 
HETATM   22  C   UNL     1     -44.059  54.669 -59.541  1.00  0.00     0.001 A 
HETATM   23  C   UNL     1     -43.627  55.711 -58.718  1.00  0.00     0.011 A 
BRANCH  19  24
HETATM   24  O   UNL     1     -46.171  58.257 -59.306  1.00  0.00    -0.355 OA
HETATM   25  C   UNL     1     -46.960  58.668 -60.417  1.00  0.00     0.210 C 
ENDBRANCH  19  24
ENDBRANCH  17  18
ENDBRANCH  14  17
ENDBRANCH   1  13
BRANCH   1  26
HETATM   26  O   UNL     1     -44.543  56.729 -53.082  1.00  0.00    -0.359 OA
HETATM   27  H   UNL     1     -44.553  55.757 -53.180  1.00  0.00     0.213 HD
ENDBRANCH   1  26
BRANCH   2  28
HETATM   28  C   UNL     1     -43.544  59.316 -52.631  1.00  0.00     0.043 A 
HETATM   29  C   UNL     1     -43.515  59.385 -51.228  1.00  0.00     0.031 A 
HETATM   30  C   UNL     1     -44.207  60.386 -50.532  1.00  0.00     0.026 A 
HETATM   31  C   UNL     1     -44.930  61.345 -51.231  1.00  0.00     0.034 A 
HETATM   32 CL   UNL     1     -45.765  62.582 -50.376  1.00  0.00    -0.084 Cl
HETATM   33  C   UNL     1     -44.971  61.309 -52.617  1.00  0.00     0.026 A 
HETATM   34  C   UNL     1     -44.286  60.302 -53.307  1.00  0.00     0.031 A 
ENDBRANCH   2  28
TORSDOF 6
ENDMDL
MODEL 9
REMARK VINA RESULT:      -7.7      3.281      6.868
REMARK  6 active torsions:
REMARK  status: ('A' for Active; 'I' for Inactive)
REMARK    1  A    between atoms: O_2  and  C_3 
REMARK    2  A    between atoms: C_4  and  C_5 
REMARK    3  A    between atoms: C_5  and  N_6 
REMARK       I    between atoms: N_6  and  C_7 
REMARK    4  A    between atoms: C_7  and  C_8 
REMARK    5  A    between atoms: C_8  and  O_9 
REMARK    6  A    between atoms: N_10  and  C_11 
ROOT
HETATM    1  C   UNL     1     -42.991  58.291 -53.017  1.00  0.00     0.256 C 
HETATM    2  N   UNL     1     -43.136  57.049 -52.237  1.00  0.00    -0.254 N 
HETATM    3  C   UNL     1     -44.063  57.003 -51.203  1.00  0.00     0.330 C 
HETATM    4  O   UNL     1     -44.539  55.977 -50.716  1.00  0.00    -0.246 OA
HETATM    5  N   UNL     1     -44.508  58.187 -50.696  1.00  0.00    -0.308 N 
HETATM    6  C   UNL     1     -44.053  59.441 -51.074  1.00  0.00     0.048 A 
HETATM    7  C   UNL     1     -43.250  59.543 -52.201  1.00  0.00     0.034 A 
HETATM    8  C   UNL     1     -44.400  60.563 -50.320  1.00  0.00     0.030 A 
HETATM    9  C   UNL     1     -43.919  61.818 -50.691  1.00  0.00     0.002 A 
HETATM   10  C   UNL     1     -43.109  61.944 -51.816  1.00  0.00     0.001 A 
HETATM   11  C   UNL     1     -42.783  60.817 -52.574  1.00  0.00     0.015 A 
HETATM   12  H   UNL     1     -45.114  58.093 -49.891  1.00  0.00     0.170 HD
ENDROOT
BRANCH   1  13
HETATM   13  C   UNL     1     -43.939  58.301 -54.285  1.00  0.00     0.279 C 
HETATM   14  N   UNL     1     -43.346  58.405 -55.524  1.00  0.00    -0.352 N 
HETATM   15  H   UNL     1     -42.370  58.664 -55.583  1.00  0.00     0.162 HD
HETATM   16  O   UNL     1     -45.159  58.176 -54.134  1.00  0.00    -0.268 OA
BRANCH  14  17
HETATM   17  C   UNL     1     -44.116  58.444 -56.753  1.00  0.00     0.164 C 
BRANCH  17  18
HETATM   18  C   UNL     1     -43.452  57.760 -57.929  1.00  0.00    -0.007 A 
HETATM   19  C   UNL     1     -42.405  58.428 -58.605  1.00  0.00     0.076 A 
HETATM   20  C   UNL     1     -41.757  57.808 -59.679  1.00  0.00     0.037 A 
HETATM   21  C   UNL     1     -42.142  56.532 -60.094  1.00  0.00     0.003 A 
HETATM   22  C   UNL     1     -43.171  55.867 -59.438  1.00  0.00     0.001 A 
HETATM   23  C   UNL     1     -43.820  56.474 -58.362  1.00  0.00     0.011 A 
BRANCH  19  24
HETATM   24  O   UNL     1     -42.079  59.669 -58.121  1.00  0.00    -0.355 OA
HETATM   25  C   UNL     1     -42.066  60.745 -59.054  1.00  0.00     0.210 C 
ENDBRANCH  19  24
ENDBRANCH  17  18
ENDBRANCH  14  17
ENDBRANCH   1  13
BRANCH   1  26
HETATM   26  O   UNL     1     -41.626  58.401 -53.452  1.00  0.00    -0.359 OA
HETATM   27  H   UNL     1     -41.668  58.921 -54.278  1.00  0.00     0.213 HD
ENDBRANCH   1  26
BRANCH   2  28
HETATM   28  C   UNL     1     -42.461  55.841 -52.652  1.00  0.00     0.043 A 
HETATM   29  C   UNL     1     -41.352  55.317 -51.967  1.00  0.00     0.031 A 
HETATM   30  C   UNL     1     -40.737  54.126 -52.376  1.00  0.00     0.026 A 
HETATM   31  C   UNL     1     -41.232  53.429 -53.471  1.00  0.00     0.034 A 
HETATM   32 CL   UNL     1     -40.486  51.959 -53.963  1.00  0.00    -0.084 Cl
HETATM   33  C   UNL     1     -42.331  53.915 -54.164  1.00  0.00     0.026 A 
HETATM   34  C   UNL     1     -42.936  55.110 -53.757  1.00  0.00     0.031 A 
ENDBRANCH   2  28
TORSDOF 6
ENDMDL
MODEL 10
REMARK VINA RESULT:      -7.5      4.588      6.585
REMARK  6 active torsions:
REMARK  status: ('A' for Active; 'I' for Inactive)
REMARK    1  A    between atoms: O_2  and  C_3 
REMARK    2  A    between atoms: C_4  and  C_5 
REMARK    3  A    between atoms: C_5  and  N_6 
REMARK       I    between atoms: N_6  and  C_7 
REMARK    4  A    between atoms: C_7  and  C_8 
REMARK    5  A    between atoms: C_8  and  O_9 
REMARK    6  A    between atoms: N_10  and  C_11 
ROOT
HETATM    1  C   UNL     1     -43.809  59.273 -51.936  1.00  0.00     0.256 C 
HETATM    2  N   UNL     1     -44.879  60.224 -51.586  1.00  0.00    -0.254 N 
HETATM    3  C   UNL     1     -45.965  60.366 -52.441  1.00  0.00     0.330 C 
HETATM    4  O   UNL     1     -47.064  60.828 -52.128  1.00  0.00    -0.246 OA
HETATM    5  N   UNL     1     -45.822  59.939 -53.727  1.00  0.00    -0.308 N 
HETATM    6  C   UNL     1     -44.651  59.443 -54.278  1.00  0.00     0.048 A 
HETATM    7  C   UNL     1     -43.595  59.138 -53.432  1.00  0.00     0.034 A 
HETATM    8  C   UNL     1     -44.554  59.266 -55.660  1.00  0.00     0.030 A 
HETATM    9  C   UNL     1     -43.365  58.790 -56.211  1.00  0.00     0.002 A 
HETATM   10  C   UNL     1     -42.291  58.481 -55.381  1.00  0.00     0.001 A 
HETATM   11  C   UNL     1     -42.406  58.644 -53.998  1.00  0.00     0.015 A 
HETATM   12  H   UNL     1     -46.612  60.145 -54.324  1.00  0.00     0.170 HD
ENDROOT
BRANCH   1  13
HETATM   13  C   UNL     1     -44.079  57.837 -51.326  1.00  0.00     0.279 C 
HETATM   14  N   UNL     1     -42.985  57.059 -51.017  1.00  0.00    -0.352 N 
HETATM   15  H   UNL     1     -42.073  57.332 -51.360  1.00  0.00     0.162 HD
HETATM   16  O   UNL     1     -45.241  57.477 -51.109  1.00  0.00    -0.268 OA
BRANCH  14  17
HETATM   17  C   UNL     1     -43.112  55.720 -50.472  1.00  0.00     0.164 C 
BRANCH  17  18
HETATM   18  C   UNL     1     -42.140  54.714 -51.050  1.00  0.00    -0.007 A 
HETATM   19  C   UNL     1     -41.317  53.976 -50.169  1.00  0.00     0.076 A 
HETATM   20  C   UNL     1     -40.428  53.022 -50.675  1.00  0.00     0.037 A 
HETATM   21  C   UNL     1     -40.342  52.796 -52.049  1.00  0.00     0.003 A 
HETATM   22  C   UNL     1     -41.145  53.518 -52.925  1.00  0.00     0.001 A 
HETATM   23  C   UNL     1     -42.039  54.468 -52.430  1.00  0.00     0.011 A 
BRANCH  19  24
HETATM   24  O   UNL     1     -41.478  54.248 -48.833  1.00  0.00    -0.355 OA
HETATM   25  C   UNL     1     -40.353  54.034 -47.989  1.00  0.00     0.210 C 
ENDBRANCH  19  24
ENDBRANCH  17  18
ENDBRANCH  14  17
ENDBRANCH   1  13
BRANCH   1  26
HETATM   26  O   UNL     1     -42.565  59.773 -51.421  1.00  0.00    -0.359 OA
HETATM   27  H   UNL     1     -41.907  59.090 -51.650  1.00  0.00     0.213 HD
ENDBRANCH   1  26
BRANCH   2  28
HETATM   28  C   UNL     1     -44.895  60.865 -50.290  1.00  0.00     0.043 A 
HETATM   29  C   UNL     1     -44.368  62.149 -50.073  1.00  0.00     0.031 A 
HETATM   30  C   UNL     1     -44.426  62.756 -48.811  1.00  0.00     0.026 A 
HETATM   31  C   UNL     1     -45.025  62.093 -47.746  1.00  0.00     0.034 A 
HETATM   32 CL   UNL     1     -45.108  62.847 -46.202  1.00  0.00    -0.084 Cl
HETATM   33  C   UNL     1     -45.561  60.828 -47.931  1.00  0.00     0.026 A 
HETATM   34  C   UNL     1     -45.494  60.221 -49.192  1.00  0.00     0.031 A 
ENDBRANCH   2  28
TORSDOF 6
ENDMDL
