MODEL 1
REMARK VINA RESULT:      -8.5      0.000      0.000
REMARK  10 active torsions:
REMARK  status: ('A' for Active; 'I' for Inactive)
REMARK    1  A    between atoms: N_2  and  C_4 
REMARK    2  A    between atoms: C_4  and  C_5 
REMARK    3  A    between atoms: N_6  and  C_7 
REMARK    4  A    between atoms: C_11  and  N_12 
REMARK    5  A    between atoms: C_15  and  C_16 
REMARK       I    between atoms: C_16  and  N_17 
REMARK    6  A    between atoms: N_17  and  N_18 
REMARK    7  A    between atoms: C_19  and  C_20 
REMARK    8  A    between atoms: C_23  and  O_24 
REMARK    9  A    between atoms: O_24  and  C_25 
REMARK   10  A    between atoms: C_25  and  C_26 
ROOT
HETATM    1  C   UNL     1     -44.907  60.367 -50.067  1.00  0.00     0.293 C 
HETATM    2  N   UNL     1     -43.703  60.149 -50.718  1.00  0.00    -0.242 N 
HETATM    3  O   UNL     1     -45.935  59.705 -50.181  1.00  0.00    -0.264 OA
HETATM    4  H   UNL     1     -42.892  60.678 -50.398  1.00  0.00     0.192 HD
ENDROOT
BRANCH   1   5
HETATM    5  C   UNL     1     -44.886  61.520 -49.171  1.00  0.00     0.170 A 
HETATM    6  C   UNL     1     -45.591  61.673 -47.985  1.00  0.00     0.096 A 
HETATM    7  N   UNL     1     -45.282  62.966 -47.565  1.00  0.00    -0.215 N 
HETATM    8  N   UNL     1     -44.353  63.486 -48.408  1.00  0.00     0.012 NA
HETATM    9  N   UNL     1     -44.134  62.636 -49.395  1.00  0.00    -0.152 NA
BRANCH   6  10
HETATM   10  C   UNL     1     -46.418  60.702 -47.230  1.00  0.00     0.295 C 
BRANCH  10  11
HETATM   11  N   UNL     1     -45.664  59.865 -46.229  1.00  0.00    -0.073 N 
HETATM   12  C   UNL     1     -46.609  59.042 -45.393  1.00  0.00     0.269 C 
HETATM   13  H   UNL     1     -45.108  59.186 -46.769  1.00  0.00     0.279 HD
HETATM   14  C   UNL     1     -44.733  60.657 -45.354  1.00  0.00     0.269 C 
ENDBRANCH  10  11
ENDBRANCH   6  10
BRANCH   7  15
HETATM   15  C   UNL     1     -45.840  63.704 -46.495  1.00  0.00     0.225 A 
HETATM   16  N   UNL     1     -45.063  64.100 -45.481  1.00  0.00    -0.081 NA
HETATM   17  O   UNL     1     -45.951  64.763 -44.627  1.00  0.00    -0.103 OA
HETATM   18  N   UNL     1     -47.245  64.729 -45.123  1.00  0.00    -0.083 NA
HETATM   19  C   UNL     1     -47.179  64.071 -46.278  1.00  0.00     0.201 A 
BRANCH  19  20
HETATM   20  N   UNL     1     -48.229  63.824 -47.077  1.00  0.00    -0.379 N 
HETATM   21  H   UNL     1     -48.647  62.898 -47.103  1.00  0.00     0.158 HD
HETATM   22  H   UNL     1     -48.556  64.460 -47.802  1.00  0.00     0.158 HD
ENDBRANCH  19  20
ENDBRANCH   7  15
ENDBRANCH   1   5
BRANCH   2  23
HETATM   23  N   UNL     1     -43.379  59.038 -51.454  1.00  0.00    -0.184 NA
HETATM   24  C   UNL     1     -43.365  57.882 -50.868  1.00  0.00     0.150 C 
BRANCH  24  25
HETATM   25  C   UNL     1     -42.942  56.654 -51.570  1.00  0.00    -0.017 A 
HETATM   26  C   UNL     1     -43.591  55.435 -51.359  1.00  0.00     0.016 A 
HETATM   27  C   UNL     1     -43.182  54.294 -52.061  1.00  0.00     0.037 A 
HETATM   28  C   UNL     1     -42.133  54.374 -52.978  1.00  0.00     0.069 A 
HETATM   29  C   UNL     1     -41.484  55.597 -53.174  1.00  0.00     0.037 A 
HETATM   30  C   UNL     1     -41.882  56.736 -52.474  1.00  0.00     0.016 A 
BRANCH  28  31
HETATM   31  O   UNL     1     -41.645  53.351 -53.739  1.00  0.00    -0.347 OA
BRANCH  31  32
HETATM   32  C   UNL     1     -40.233  53.148 -53.742  1.00  0.00     0.219 C 
BRANCH  32  33
HETATM   33  C   UNL     1     -39.953  51.868 -53.004  1.00  0.00     0.026 A 
HETATM   34  C   UNL     1     -39.851  51.803 -51.607  1.00  0.00     0.045 A 
HETATM   35 CL   UNL     1     -40.010  53.211 -50.616  1.00  0.00    -0.084 Cl
HETATM   36  C   UNL     1     -39.614  50.582 -50.962  1.00  0.00     0.024 A 
HETATM   37  C   UNL     1     -39.483  49.408 -51.704  1.00  0.00     0.005 A 
HETATM   38  C   UNL     1     -39.591  49.456 -53.090  1.00  0.00     0.043 A 
HETATM   39  C   UNL     1     -39.826  50.675 -53.723  1.00  0.00     0.126 A 
HETATM   40  F   UNL     1     -39.928  50.688 -55.060  1.00  0.00    -0.205 F 
ENDBRANCH  32  33
ENDBRANCH  31  32
ENDBRANCH  28  31
ENDBRANCH  24  25
ENDBRANCH   2  23
TORSDOF 10
ENDMDL
MODEL 2
REMARK VINA RESULT:      -8.1      5.588     11.571
REMARK  10 active torsions:
REMARK  status: ('A' for Active; 'I' for Inactive)
REMARK    1  A    between atoms: N_2  and  C_4 
REMARK    2  A    between atoms: C_4  and  C_5 
REMARK    3  A    between atoms: N_6  and  C_7 
REMARK    4  A    between atoms: C_11  and  N_12 
REMARK    5  A    between atoms: C_15  and  C_16 
REMARK       I    between atoms: C_16  and  N_17 
REMARK    6  A    between atoms: N_17  and  N_18 
REMARK    7  A    between atoms: C_19  and  C_20 
REMARK    8  A    between atoms: C_23  and  O_24 
REMARK    9  A    between atoms: O_24  and  C_25 
REMARK   10  A    between atoms: C_25  and  C_26 
ROOT
HETATM    1  C   UNL     1     -41.237  56.073 -53.849  1.00  0.00     0.293 C 
HETATM    2  N   UNL     1     -42.613  56.221 -53.930  1.00  0.00    -0.242 N 
HETATM    3  O   UNL     1     -40.410  56.968 -53.695  1.00  0.00    -0.264 OA
HETATM    4  H   UNL     1     -43.181  55.375 -53.890  1.00  0.00     0.192 HD
ENDROOT
BRANCH   1   5
HETATM    5  C   UNL     1     -40.790  54.689 -53.968  1.00  0.00     0.170 A 
HETATM    6  C   UNL     1     -40.845  53.702 -52.993  1.00  0.00     0.096 A 
HETATM    7  N   UNL     1     -40.230  52.600 -53.583  1.00  0.00    -0.215 N 
HETATM    8  N   UNL     1     -39.941  52.902 -54.875  1.00  0.00     0.012 NA
HETATM    9  N   UNL     1     -40.245  54.168 -55.105  1.00  0.00    -0.152 NA
BRANCH   6  10
HETATM   10  C   UNL     1     -41.479  53.714 -51.654  1.00  0.00     0.295 C 
BRANCH  10  11
HETATM   11  N   UNL     1     -40.648  54.336 -50.560  1.00  0.00    -0.073 N 
HETATM   12  C   UNL     1     -40.663  53.483 -49.319  1.00  0.00     0.269 C 
HETATM   13  H   UNL     1     -39.671  54.330 -50.890  1.00  0.00     0.279 HD
HETATM   14  C   UNL     1     -41.033  55.752 -50.237  1.00  0.00     0.269 C 
ENDBRANCH  10  11
ENDBRANCH   6  10
BRANCH   7  15
HETATM   15  C   UNL     1     -39.874  51.365 -52.991  1.00  0.00     0.225 A 
HETATM   16  N   UNL     1     -39.428  51.333 -51.731  1.00  0.00    -0.081 NA
HETATM   17  O   UNL     1     -39.161  49.977 -51.511  1.00  0.00    -0.103 OA
HETATM   18  N   UNL     1     -39.420  49.224 -52.647  1.00  0.00    -0.083 NA
HETATM   19  C   UNL     1     -39.858  50.082 -53.565  1.00  0.00     0.201 A 
BRANCH  19  20
HETATM   20  N   UNL     1     -40.221  49.745 -54.813  1.00  0.00    -0.379 N 
HETATM   21  H   UNL     1     -40.979  50.236 -55.278  1.00  0.00     0.158 HD
HETATM   22  H   UNL     1     -39.898  48.907 -55.294  1.00  0.00     0.158 HD
ENDBRANCH  19  20
ENDBRANCH   7  15
ENDBRANCH   1   5
BRANCH   2  23
HETATM   23  N   UNL     1     -43.314  57.367 -53.655  1.00  0.00    -0.184 NA
HETATM   24  C   UNL     1     -43.438  57.743 -52.420  1.00  0.00     0.150 C 
BRANCH  24  25
HETATM   25  C   UNL     1     -44.250  58.914 -52.036  1.00  0.00    -0.017 A 
HETATM   26  C   UNL     1     -45.488  58.767 -51.406  1.00  0.00     0.016 A 
HETATM   27  C   UNL     1     -46.222  59.900 -51.032  1.00  0.00     0.037 A 
HETATM   28  C   UNL     1     -45.713  61.177 -51.277  1.00  0.00     0.069 A 
HETATM   29  C   UNL     1     -44.477  61.313 -51.916  1.00  0.00     0.037 A 
HETATM   30  C   UNL     1     -43.744  60.189 -52.298  1.00  0.00     0.016 A 
BRANCH  28  31
HETATM   31  O   UNL     1     -46.310  62.360 -50.952  1.00  0.00    -0.347 OA
BRANCH  31  32
HETATM   32  C   UNL     1     -45.646  63.195 -50.003  1.00  0.00     0.219 C 
BRANCH  32  33
HETATM   33  C   UNL     1     -45.829  62.578 -48.644  1.00  0.00     0.026 A 
HETATM   34  C   UNL     1     -47.011  62.712 -47.901  1.00  0.00     0.045 A 
HETATM   35 CL   UNL     1     -48.352  63.634 -48.484  1.00  0.00    -0.084 Cl
HETATM   36  C   UNL     1     -47.142  62.098 -46.649  1.00  0.00     0.024 A 
HETATM   37  C   UNL     1     -46.100  61.335 -46.125  1.00  0.00     0.005 A 
HETATM   38  C   UNL     1     -44.925  61.185 -46.856  1.00  0.00     0.043 A 
HETATM   39  C   UNL     1     -44.802  61.800 -48.100  1.00  0.00     0.126 A 
HETATM   40  F   UNL     1     -43.657  61.635 -48.780  1.00  0.00    -0.205 F 
ENDBRANCH  32  33
ENDBRANCH  31  32
ENDBRANCH  28  31
ENDBRANCH  24  25
ENDBRANCH   2  23
TORSDOF 10
ENDMDL
MODEL 3
REMARK VINA RESULT:      -8.0      1.585      2.194
REMARK  10 active torsions:
REMARK  status: ('A' for Active; 'I' for Inactive)
REMARK    1  A    between atoms: N_2  and  C_4 
REMARK    2  A    between atoms: C_4  and  C_5 
REMARK    3  A    between atoms: N_6  and  C_7 
REMARK    4  A    between atoms: C_11  and  N_12 
REMARK    5  A    between atoms: C_15  and  C_16 
REMARK       I    between atoms: C_16  and  N_17 
REMARK    6  A    between atoms: N_17  and  N_18 
REMARK    7  A    between atoms: C_19  and  C_20 
REMARK    8  A    between atoms: C_23  and  O_24 
REMARK    9  A    between atoms: O_24  and  C_25 
REMARK   10  A    between atoms: C_25  and  C_26 
ROOT
HETATM    1  C   UNL     1     -44.244  62.444 -50.094  1.00  0.00     0.293 C 
HETATM    2  N   UNL     1     -43.125  61.639 -49.943  1.00  0.00    -0.242 N 
HETATM    3  O   UNL     1     -44.908  62.596 -51.115  1.00  0.00    -0.264 OA
HETATM    4  H   UNL     1     -42.780  61.485 -48.997  1.00  0.00     0.192 HD
ENDROOT
BRANCH   1   5
HETATM    5  C   UNL     1     -44.616  63.159 -48.877  1.00  0.00     0.170 A 
HETATM    6  C   UNL     1     -45.523  62.752 -47.909  1.00  0.00     0.096 A 
HETATM    7  N   UNL     1     -45.569  63.816 -47.009  1.00  0.00    -0.215 N 
HETATM    8  N   UNL     1     -44.646  64.740 -47.382  1.00  0.00     0.012 NA
HETATM    9  N   UNL     1     -44.091  64.368 -48.522  1.00  0.00    -0.152 NA
BRANCH   6  10
HETATM   10  C   UNL     1     -46.239  61.464 -47.748  1.00  0.00     0.295 C 
BRANCH  10  11
HETATM   11  N   UNL     1     -45.513  60.429 -46.927  1.00  0.00    -0.073 N 
HETATM   12  C   UNL     1     -46.484  59.574 -46.156  1.00  0.00     0.269 C 
HETATM   13  H   UNL     1     -45.051  59.793 -47.593  1.00  0.00     0.279 HD
HETATM   14  C   UNL     1     -44.469  61.004 -46.012  1.00  0.00     0.269 C 
ENDBRANCH  10  11
ENDBRANCH   6  10
BRANCH   7  15
HETATM   15  C   UNL     1     -46.440  64.008 -45.911  1.00  0.00     0.225 A 
HETATM   16  N   UNL     1     -47.761  63.883 -46.078  1.00  0.00    -0.081 NA
HETATM   17  O   UNL     1     -48.280  64.163 -44.809  1.00  0.00    -0.103 OA
HETATM   18  N   UNL     1     -47.270  64.481 -43.913  1.00  0.00    -0.083 NA
HETATM   19  C   UNL     1     -46.131  64.388 -44.594  1.00  0.00     0.201 A 
BRANCH  19  20
HETATM   20  N   UNL     1     -44.913  64.619 -44.079  1.00  0.00    -0.379 N 
HETATM   21  H   UNL     1     -44.815  65.006 -43.145  1.00  0.00     0.158 HD
HETATM   22  H   UNL     1     -44.050  64.589 -44.619  1.00  0.00     0.158 HD
ENDBRANCH  19  20
ENDBRANCH   7  15
ENDBRANCH   1   5
BRANCH   2  23
HETATM   23  N   UNL     1     -42.675  60.714 -50.850  1.00  0.00    -0.184 NA
HETATM   24  C   UNL     1     -43.325  59.600 -50.982  1.00  0.00     0.150 C 
BRANCH  24  25
HETATM   25  C   UNL     1     -42.855  58.520 -51.872  1.00  0.00    -0.017 A 
HETATM   26  C   UNL     1     -41.493  58.285 -52.075  1.00  0.00     0.016 A 
HETATM   27  C   UNL     1     -41.080  57.235 -52.905  1.00  0.00     0.037 A 
HETATM   28  C   UNL     1     -42.027  56.416 -53.523  1.00  0.00     0.069 A 
HETATM   29  C   UNL     1     -43.388  56.666 -53.320  1.00  0.00     0.037 A 
HETATM   30  C   UNL     1     -43.807  57.714 -52.500  1.00  0.00     0.016 A 
BRANCH  28  31
HETATM   31  O   UNL     1     -41.767  55.353 -54.339  1.00  0.00    -0.347 OA
BRANCH  31  32
HETATM   32  C   UNL     1     -42.354  54.099 -53.995  1.00  0.00     0.219 C 
BRANCH  32  33
HETATM   33  C   UNL     1     -41.346  53.327 -53.191  1.00  0.00     0.026 A 
HETATM   34  C   UNL     1     -41.339  53.315 -51.789  1.00  0.00     0.045 A 
HETATM   35 CL   UNL     1     -42.484  54.224 -50.866  1.00  0.00    -0.084 Cl
HETATM   36  C   UNL     1     -40.394  52.559 -51.083  1.00  0.00     0.024 A 
HETATM   37  C   UNL     1     -39.447  51.799 -51.768  1.00  0.00     0.005 A 
HETATM   38  C   UNL     1     -39.447  51.794 -53.160  1.00  0.00     0.043 A 
HETATM   39  C   UNL     1     -40.391  52.549 -53.853  1.00  0.00     0.126 A 
HETATM   40  F   UNL     1     -40.366  52.521 -55.194  1.00  0.00    -0.205 F 
ENDBRANCH  32  33
ENDBRANCH  31  32
ENDBRANCH  28  31
ENDBRANCH  24  25
ENDBRANCH   2  23
TORSDOF 10
ENDMDL
MODEL 4
REMARK VINA RESULT:      -8.0      5.280     11.891
REMARK  10 active torsions:
REMARK  status: ('A' for Active; 'I' for Inactive)
REMARK    1  A    between atoms: N_2  and  C_4 
REMARK    2  A    between atoms: C_4  and  C_5 
REMARK    3  A    between atoms: N_6  and  C_7 
REMARK    4  A    between atoms: C_11  and  N_12 
REMARK    5  A    between atoms: C_15  and  C_16 
REMARK       I    between atoms: C_16  and  N_17 
REMARK    6  A    between atoms: N_17  and  N_18 
REMARK    7  A    between atoms: C_19  and  C_20 
REMARK    8  A    between atoms: C_23  and  O_24 
REMARK    9  A    between atoms: O_24  and  C_25 
REMARK   10  A    between atoms: C_25  and  C_26 
ROOT
HETATM    1  C   UNL     1     -41.626  55.207 -50.452  1.00  0.00     0.293 C 
HETATM    2  N   UNL     1     -41.428  56.411 -51.109  1.00  0.00    -0.242 N 
HETATM    3  O   UNL     1     -42.396  54.998 -49.518  1.00  0.00    -0.264 OA
HETATM    4  H   UNL     1     -40.882  56.394 -51.970  1.00  0.00     0.192 HD
ENDROOT
BRANCH   1   5
HETATM    5  C   UNL     1     -40.802  54.118 -50.967  1.00  0.00     0.170 A 
HETATM    6  C   UNL     1     -41.025  53.368 -52.114  1.00  0.00     0.096 A 
HETATM    7  N   UNL     1     -40.003  52.421 -52.111  1.00  0.00    -0.215 N 
HETATM    8  N   UNL     1     -39.167  52.687 -51.075  1.00  0.00     0.012 NA
HETATM    9  N   UNL     1     -39.658  53.686 -50.363  1.00  0.00    -0.152 NA
BRANCH   6  10
HETATM   10  C   UNL     1     -42.032  53.538 -53.188  1.00  0.00     0.295 C 
BRANCH  10  11
HETATM   11  N   UNL     1     -41.482  54.018 -54.508  1.00  0.00    -0.073 N 
HETATM   12  C   UNL     1     -40.549  55.184 -54.312  1.00  0.00     0.269 C 
HETATM   13  H   UNL     1     -40.898  53.254 -54.881  1.00  0.00     0.279 HD
HETATM   14  C   UNL     1     -42.540  54.348 -55.522  1.00  0.00     0.269 C 
ENDBRANCH  10  11
ENDBRANCH   6  10
BRANCH   7  15
HETATM   15  C   UNL     1     -39.829  51.305 -52.964  1.00  0.00     0.225 A 
HETATM   16  N   UNL     1     -39.914  51.460 -54.289  1.00  0.00    -0.081 NA
HETATM   17  O   UNL     1     -39.718  50.165 -54.784  1.00  0.00    -0.103 OA
HETATM   18  N   UNL     1     -39.549  49.254 -53.752  1.00  0.00    -0.083 NA
HETATM   19  C   UNL     1     -39.621  49.957 -52.624  1.00  0.00     0.201 A 
BRANCH  19  20
HETATM   20  N   UNL     1     -39.504  49.438 -51.393  1.00  0.00    -0.379 N 
HETATM   21  H   UNL     1     -39.959  48.559 -51.160  1.00  0.00     0.158 HD
HETATM   22  H   UNL     1     -39.119  49.941 -50.596  1.00  0.00     0.158 HD
ENDBRANCH  19  20
ENDBRANCH   7  15
ENDBRANCH   1   5
BRANCH   2  23
HETATM   23  N   UNL     1     -42.199  57.538 -50.970  1.00  0.00    -0.184 NA
HETATM   24  C   UNL     1     -43.305  57.624 -51.641  1.00  0.00     0.150 C 
BRANCH  24  25
HETATM   25  C   UNL     1     -44.144  58.839 -51.612  1.00  0.00    -0.017 A 
HETATM   26  C   UNL     1     -45.444  58.814 -51.100  1.00  0.00     0.016 A 
HETATM   27  C   UNL     1     -46.204  59.990 -51.064  1.00  0.00     0.037 A 
HETATM   28  C   UNL     1     -45.661  61.189 -51.528  1.00  0.00     0.069 A 
HETATM   29  C   UNL     1     -44.363  61.201 -52.047  1.00  0.00     0.037 A 
HETATM   30  C   UNL     1     -43.602  60.033 -52.093  1.00  0.00     0.016 A 
BRANCH  28  31
HETATM   31  O   UNL     1     -46.280  62.406 -51.536  1.00  0.00    -0.347 OA
BRANCH  31  32
HETATM   32  C   UNL     1     -45.708  63.441 -50.739  1.00  0.00     0.219 C 
BRANCH  32  33
HETATM   33  C   UNL     1     -45.975  63.109 -49.297  1.00  0.00     0.026 A 
HETATM   34  C   UNL     1     -47.235  63.264 -48.701  1.00  0.00     0.045 A 
HETATM   35 CL   UNL     1     -48.587  63.887 -49.581  1.00  0.00    -0.084 Cl
HETATM   36  C   UNL     1     -47.440  62.917 -47.360  1.00  0.00     0.024 A 
HETATM   37  C   UNL     1     -46.393  62.402 -46.597  1.00  0.00     0.005 A 
HETATM   38  C   UNL     1     -45.139  62.234 -47.178  1.00  0.00     0.043 A 
HETATM   39  C   UNL     1     -44.944  62.583 -48.512  1.00  0.00     0.126 A 
HETATM   40  F   UNL     1     -43.724  62.406 -49.043  1.00  0.00    -0.205 F 
ENDBRANCH  32  33
ENDBRANCH  31  32
ENDBRANCH  28  31
ENDBRANCH  24  25
ENDBRANCH   2  23
TORSDOF 10
ENDMDL
MODEL 5
REMARK VINA RESULT:      -7.9      7.629     10.245
REMARK  10 active torsions:
REMARK  status: ('A' for Active; 'I' for Inactive)
REMARK    1  A    between atoms: N_2  and  C_4 
REMARK    2  A    between atoms: C_4  and  C_5 
REMARK    3  A    between atoms: N_6  and  C_7 
REMARK    4  A    between atoms: C_11  and  N_12 
REMARK    5  A    between atoms: C_15  and  C_16 
REMARK       I    between atoms: C_16  and  N_17 
REMARK    6  A    between atoms: N_17  and  N_18 
REMARK    7  A    between atoms: C_19  and  C_20 
REMARK    8  A    between atoms: C_23  and  O_24 
REMARK    9  A    between atoms: O_24  and  C_25 
REMARK   10  A    between atoms: C_25  and  C_26 
ROOT
HETATM    1  C   UNL     1     -43.250  58.583 -59.119  1.00  0.00     0.293 C 
HETATM    2  N   UNL     1     -43.336  58.750 -57.746  1.00  0.00    -0.242 N 
HETATM    3  O   UNL     1     -42.505  57.815 -59.722  1.00  0.00    -0.264 OA
HETATM    4  H   UNL     1     -44.114  59.300 -57.386  1.00  0.00     0.192 HD
ENDROOT
BRANCH   1   5
HETATM    5  C   UNL     1     -44.162  59.441 -59.870  1.00  0.00     0.170 A 
HETATM    6  C   UNL     1     -45.460  59.144 -60.262  1.00  0.00     0.096 A 
HETATM    7  N   UNL     1     -45.858  60.254 -61.006  1.00  0.00    -0.215 N 
HETATM    8  N   UNL     1     -44.877  61.191 -60.946  1.00  0.00     0.012 NA
HETATM    9  N   UNL     1     -43.841  60.698 -60.292  1.00  0.00    -0.152 NA
BRANCH   6  10
HETATM   10  C   UNL     1     -46.321  57.986 -59.925  1.00  0.00     0.295 C 
BRANCH  10  11
HETATM   11  N   UNL     1     -46.259  56.840 -60.902  1.00  0.00    -0.073 N 
HETATM   12  C   UNL     1     -47.622  56.535 -61.466  1.00  0.00     0.269 C 
HETATM   13  H   UNL     1     -45.694  57.162 -61.702  1.00  0.00     0.279 HD
HETATM   14  C   UNL     1     -45.627  55.598 -60.341  1.00  0.00     0.269 C 
ENDBRANCH  10  11
ENDBRANCH   6  10
BRANCH   7  15
HETATM   15  C   UNL     1     -47.033  60.428 -61.774  1.00  0.00     0.225 A 
HETATM   16  N   UNL     1     -46.960  60.454 -63.109  1.00  0.00    -0.081 NA
HETATM   17  O   UNL     1     -48.285  60.663 -63.507  1.00  0.00    -0.103 OA
HETATM   18  N   UNL     1     -49.124  60.789 -62.410  1.00  0.00    -0.083 NA
HETATM   19  C   UNL     1     -48.351  60.646 -61.336  1.00  0.00     0.201 A 
BRANCH  19  20
HETATM   20  N   UNL     1     -48.787  60.701 -60.069  1.00  0.00    -0.379 N 
HETATM   21  H   UNL     1     -49.617  60.185 -59.788  1.00  0.00     0.158 HD
HETATM   22  H   UNL     1     -48.442  61.361 -59.374  1.00  0.00     0.158 HD
ENDBRANCH  19  20
ENDBRANCH   7  15
ENDBRANCH   1   5
BRANCH   2  23
HETATM   23  N   UNL     1     -42.748  57.946 -56.802  1.00  0.00    -0.184 NA
HETATM   24  C   UNL     1     -43.502  57.178 -56.079  1.00  0.00     0.150 C 
BRANCH  24  25
HETATM   25  C   UNL     1     -42.955  56.350 -54.986  1.00  0.00    -0.017 A 
HETATM   26  C   UNL     1     -41.758  56.684 -54.349  1.00  0.00     0.016 A 
HETATM   27  C   UNL     1     -41.279  55.892 -53.298  1.00  0.00     0.037 A 
HETATM   28  C   UNL     1     -42.003  54.774 -52.878  1.00  0.00     0.069 A 
HETATM   29  C   UNL     1     -43.195  54.443 -53.528  1.00  0.00     0.037 A 
HETATM   30  C   UNL     1     -43.674  55.224 -54.581  1.00  0.00     0.016 A 
BRANCH  28  31
HETATM   31  O   UNL     1     -41.665  53.928 -51.861  1.00  0.00    -0.347 OA
BRANCH  31  32
HETATM   32  C   UNL     1     -40.279  53.645 -51.672  1.00  0.00     0.219 C 
BRANCH  32  33
HETATM   33  C   UNL     1     -40.062  52.191 -51.990  1.00  0.00     0.026 A 
HETATM   34  C   UNL     1     -39.888  51.717 -53.299  1.00  0.00     0.045 A 
HETATM   35 CL   UNL     1     -39.944  52.775 -54.665  1.00  0.00    -0.084 Cl
HETATM   36  C   UNL     1     -39.664  50.356 -53.543  1.00  0.00     0.024 A 
HETATM   37  C   UNL     1     -39.601  49.451 -52.484  1.00  0.00     0.005 A 
HETATM   38  C   UNL     1     -39.762  49.909 -51.180  1.00  0.00     0.043 A 
HETATM   39  C   UNL     1     -39.986  51.264 -50.946  1.00  0.00     0.126 A 
HETATM   40  F   UNL     1     -40.135  51.674 -49.677  1.00  0.00    -0.205 F 
ENDBRANCH  32  33
ENDBRANCH  31  32
ENDBRANCH  28  31
ENDBRANCH  24  25
ENDBRANCH   2  23
TORSDOF 10
ENDMDL
MODEL 6
REMARK VINA RESULT:      -7.8      2.319      3.118
REMARK  10 active torsions:
REMARK  status: ('A' for Active; 'I' for Inactive)
REMARK    1  A    between atoms: N_2  and  C_4 
REMARK    2  A    between atoms: C_4  and  C_5 
REMARK    3  A    between atoms: N_6  and  C_7 
REMARK    4  A    between atoms: C_11  and  N_12 
REMARK    5  A    between atoms: C_15  and  C_16 
REMARK       I    between atoms: C_16  and  N_17 
REMARK    6  A    between atoms: N_17  and  N_18 
REMARK    7  A    between atoms: C_19  and  C_20 
REMARK    8  A    between atoms: C_23  and  O_24 
REMARK    9  A    between atoms: O_24  and  C_25 
REMARK   10  A    between atoms: C_25  and  C_26 
ROOT
HETATM    1  C   UNL     1     -45.652  60.449 -52.540  1.00  0.00     0.293 C 
HETATM    2  N   UNL     1     -45.236  59.324 -51.846  1.00  0.00    -0.242 N 
HETATM    3  O   UNL     1     -45.525  60.658 -53.743  1.00  0.00    -0.264 OA
HETATM    4  H   UNL     1     -45.557  59.218 -50.884  1.00  0.00     0.192 HD
ENDROOT
BRANCH   1   5
HETATM    5  C   UNL     1     -46.296  61.451 -51.696  1.00  0.00     0.170 A 
HETATM    6  C   UNL     1     -45.948  61.804 -50.400  1.00  0.00     0.096 A 
HETATM    7  N   UNL     1     -46.912  62.739 -50.027  1.00  0.00    -0.215 N 
HETATM    8  N   UNL     1     -47.706  62.997 -51.098  1.00  0.00     0.012 NA
HETATM    9  N   UNL     1     -47.362  62.202 -52.097  1.00  0.00    -0.152 NA
BRANCH   6  10
HETATM   10  C   UNL     1     -44.785  61.399 -49.576  1.00  0.00     0.295 C 
BRANCH  10  11
HETATM   11  N   UNL     1     -43.497  62.116 -49.895  1.00  0.00    -0.073 N 
HETATM   12  C   UNL     1     -43.760  63.377 -50.675  1.00  0.00     0.269 C 
HETATM   13  H   UNL     1     -43.098  62.424 -48.996  1.00  0.00     0.279 HD
HETATM   14  C   UNL     1     -42.483  61.258 -50.598  1.00  0.00     0.269 C 
ENDBRANCH  10  11
ENDBRANCH   6  10
BRANCH   7  15
HETATM   15  C   UNL     1     -47.135  63.321 -48.756  1.00  0.00     0.225 A 
HETATM   16  N   UNL     1     -46.113  63.484 -47.909  1.00  0.00    -0.081 NA
HETATM   17  O   UNL     1     -46.712  64.050 -46.778  1.00  0.00    -0.103 OA
HETATM   18  N   UNL     1     -48.080  64.189 -46.951  1.00  0.00    -0.083 NA
HETATM   19  C   UNL     1     -48.345  63.735 -48.174  1.00  0.00     0.201 A 
BRANCH  19  20
HETATM   20  N   UNL     1     -49.567  63.700 -48.727  1.00  0.00    -0.379 N 
HETATM   21  H   UNL     1     -50.299  64.323 -48.397  1.00  0.00     0.158 HD
HETATM   22  H   UNL     1     -49.885  62.970 -49.363  1.00  0.00     0.158 HD
ENDBRANCH  19  20
ENDBRANCH   7  15
ENDBRANCH   1   5
BRANCH   2  23
HETATM   23  N   UNL     1     -44.787  58.155 -52.407  1.00  0.00    -0.184 NA
HETATM   24  C   UNL     1     -43.585  57.753 -52.136  1.00  0.00     0.150 C 
BRANCH  24  25
HETATM   25  C   UNL     1     -43.000  56.554 -52.768  1.00  0.00    -0.017 A 
HETATM   26  C   UNL     1     -42.058  56.657 -53.794  1.00  0.00     0.016 A 
HETATM   27  C   UNL     1     -41.503  55.500 -54.355  1.00  0.00     0.037 A 
HETATM   28  C   UNL     1     -41.883  54.242 -53.883  1.00  0.00     0.069 A 
HETATM   29  C   UNL     1     -42.833  54.149 -52.862  1.00  0.00     0.037 A 
HETATM   30  C   UNL     1     -43.395  55.298 -52.304  1.00  0.00     0.016 A 
BRANCH  28  31
HETATM   31  O   UNL     1     -41.413  53.038 -54.323  1.00  0.00    -0.347 OA
BRANCH  31  32
HETATM   32  C   UNL     1     -40.025  52.764 -54.136  1.00  0.00     0.219 C 
BRANCH  32  33
HETATM   33  C   UNL     1     -39.907  51.713 -53.067  1.00  0.00     0.026 A 
HETATM   34  C   UNL     1     -39.784  50.346 -53.355  1.00  0.00     0.045 A 
HETATM   35 CL   UNL     1     -39.791  49.754 -54.979  1.00  0.00    -0.084 Cl
HETATM   36  C   UNL     1     -39.651  49.406 -52.325  1.00  0.00     0.024 A 
HETATM   37  C   UNL     1     -39.632  49.819 -50.993  1.00  0.00     0.005 A 
HETATM   38  C   UNL     1     -39.743  51.173 -50.693  1.00  0.00     0.043 A 
HETATM   39  C   UNL     1     -39.875  52.101 -51.724  1.00  0.00     0.126 A 
HETATM   40  F   UNL     1     -39.979  53.399 -51.401  1.00  0.00    -0.205 F 
ENDBRANCH  32  33
ENDBRANCH  31  32
ENDBRANCH  28  31
ENDBRANCH  24  25
ENDBRANCH   2  23
TORSDOF 10
ENDMDL
MODEL 7
REMARK VINA RESULT:      -7.6      6.268     12.243
REMARK  10 active torsions:
REMARK  status: ('A' for Active; 'I' for Inactive)
REMARK    1  A    between atoms: N_2  and  C_4 
REMARK    2  A    between atoms: C_4  and  C_5 
REMARK    3  A    between atoms: N_6  and  C_7 
REMARK    4  A    between atoms: C_11  and  N_12 
REMARK    5  A    between atoms: C_15  and  C_16 
REMARK       I    between atoms: C_16  and  N_17 
REMARK    6  A    between atoms: N_17  and  N_18 
REMARK    7  A    between atoms: C_19  and  C_20 
REMARK    8  A    between atoms: C_23  and  O_24 
REMARK    9  A    between atoms: O_24  and  C_25 
REMARK   10  A    between atoms: C_25  and  C_26 
ROOT
HETATM    1  C   UNL     1     -41.646  56.158 -53.251  1.00  0.00     0.293 C 
HETATM    2  N   UNL     1     -43.023  56.200 -53.102  1.00  0.00    -0.242 N 
HETATM    3  O   UNL     1     -40.871  57.109 -53.201  1.00  0.00    -0.264 OA
HETATM    4  H   UNL     1     -43.514  55.312 -53.003  1.00  0.00     0.192 HD
ENDROOT
BRANCH   1   5
HETATM    5  C   UNL     1     -41.126  54.815 -53.493  1.00  0.00     0.170 A 
HETATM    6  C   UNL     1     -41.068  53.763 -52.590  1.00  0.00     0.096 A 
HETATM    7  N   UNL     1     -40.423  52.744 -53.289  1.00  0.00    -0.215 N 
HETATM    8  N   UNL     1     -40.224  53.152 -54.568  1.00  0.00     0.012 NA
HETATM    9  N   UNL     1     -40.615  54.409 -54.691  1.00  0.00    -0.152 NA
BRANCH   6  10
HETATM   10  C   UNL     1     -41.627  53.642 -51.223  1.00  0.00     0.295 C 
BRANCH  10  11
HETATM   11  N   UNL     1     -40.814  54.309 -50.141  1.00  0.00    -0.073 N 
HETATM   12  C   UNL     1     -40.635  53.394 -48.958  1.00  0.00     0.269 C 
HETATM   13  H   UNL     1     -39.869  54.453 -50.527  1.00  0.00     0.279 HD
HETATM   14  C   UNL     1     -41.359  55.640 -49.706  1.00  0.00     0.269 C 
ENDBRANCH  10  11
ENDBRANCH   6  10
BRANCH   7  15
HETATM   15  C   UNL     1     -39.963  51.495 -52.807  1.00  0.00     0.225 A 
HETATM   16  N   UNL     1     -39.486  51.397 -51.561  1.00  0.00    -0.081 NA
HETATM   17  O   UNL     1     -39.114  50.052 -51.459  1.00  0.00    -0.103 OA
HETATM   18  N   UNL     1     -39.344  49.375 -52.647  1.00  0.00    -0.083 NA
HETATM   19  C   UNL     1     -39.867  50.268 -53.484  1.00  0.00     0.201 A 
BRANCH  19  20
HETATM   20  N   UNL     1     -40.234  50.006 -54.748  1.00  0.00    -0.379 N 
HETATM   21  H   UNL     1     -39.769  49.272 -55.276  1.00  0.00     0.158 HD
HETATM   22  H   UNL     1     -40.849  50.601 -55.298  1.00  0.00     0.158 HD
ENDBRANCH  19  20
ENDBRANCH   7  15
ENDBRANCH   1   5
BRANCH   2  23
HETATM   23  N   UNL     1     -43.751  57.282 -52.674  1.00  0.00    -0.184 NA
HETATM   24  C   UNL     1     -44.353  58.018 -53.555  1.00  0.00     0.150 C 
BRANCH  24  25
HETATM   25  C   UNL     1     -45.083  59.246 -53.182  1.00  0.00    -0.017 A 
HETATM   26  C   UNL     1     -45.311  60.267 -54.107  1.00  0.00     0.016 A 
HETATM   27  C   UNL     1     -46.029  61.408 -53.727  1.00  0.00     0.037 A 
HETATM   28  C   UNL     1     -46.526  61.522 -52.428  1.00  0.00     0.069 A 
HETATM   29  C   UNL     1     -46.285  60.498 -51.507  1.00  0.00     0.037 A 
HETATM   30  C   UNL     1     -45.564  59.362 -51.876  1.00  0.00     0.016 A 
BRANCH  28  31
HETATM   31  O   UNL     1     -47.253  62.565 -51.930  1.00  0.00    -0.347 OA
BRANCH  31  32
HETATM   32  C   UNL     1     -47.848  63.461 -52.867  1.00  0.00     0.219 C 
BRANCH  32  33
HETATM   33  C   UNL     1     -49.306  63.108 -52.975  1.00  0.00     0.026 A 
HETATM   34  C   UNL     1     -49.871  62.562 -54.137  1.00  0.00     0.045 A 
HETATM   35 CL   UNL     1     -48.932  62.279 -55.560  1.00  0.00    -0.084 Cl
HETATM   36  C   UNL     1     -51.231  62.227 -54.182  1.00  0.00     0.024 A 
HETATM   37  C   UNL     1     -52.042  62.424 -53.065  1.00  0.00     0.005 A 
HETATM   38  C   UNL     1     -51.492  62.956 -51.903  1.00  0.00     0.043 A 
HETATM   39  C   UNL     1     -50.139  63.287 -51.867  1.00  0.00     0.126 A 
HETATM   40  F   UNL     1     -49.640  63.796 -50.731  1.00  0.00    -0.205 F 
ENDBRANCH  32  33
ENDBRANCH  31  32
ENDBRANCH  28  31
ENDBRANCH  24  25
ENDBRANCH   2  23
TORSDOF 10
ENDMDL
MODEL 8
REMARK VINA RESULT:      -7.5      5.777     12.199
REMARK  10 active torsions:
REMARK  status: ('A' for Active; 'I' for Inactive)
REMARK    1  A    between atoms: N_2  and  C_4 
REMARK    2  A    between atoms: C_4  and  C_5 
REMARK    3  A    between atoms: N_6  and  C_7 
REMARK    4  A    between atoms: C_11  and  N_12 
REMARK    5  A    between atoms: C_15  and  C_16 
REMARK       I    between atoms: C_16  and  N_17 
REMARK    6  A    between atoms: N_17  and  N_18 
REMARK    7  A    between atoms: C_19  and  C_20 
REMARK    8  A    between atoms: C_23  and  O_24 
REMARK    9  A    between atoms: O_24  and  C_25 
REMARK   10  A    between atoms: C_25  and  C_26 
ROOT
HETATM    1  C   UNL     1     -41.397  55.513 -50.794  1.00  0.00     0.293 C 
HETATM    2  N   UNL     1     -42.707  55.681 -51.213  1.00  0.00    -0.242 N 
HETATM    3  O   UNL     1     -40.679  56.360 -50.269  1.00  0.00    -0.264 OA
HETATM    4  H   UNL     1     -43.228  54.845 -51.476  1.00  0.00     0.192 HD
ENDROOT
BRANCH   1   5
HETATM    5  C   UNL     1     -40.874  54.171 -51.031  1.00  0.00     0.170 A 
HETATM    6  C   UNL     1     -40.545  53.603 -52.254  1.00  0.00     0.096 A 
HETATM    7  N   UNL     1     -40.173  52.298 -51.939  1.00  0.00    -0.215 N 
HETATM    8  N   UNL     1     -40.176  52.158 -50.589  1.00  0.00     0.012 NA
HETATM    9  N   UNL     1     -40.628  53.270 -50.036  1.00  0.00    -0.152 NA
BRANCH   6  10
HETATM   10  C   UNL     1     -40.484  54.209 -53.605  1.00  0.00     0.295 C 
BRANCH  10  11
HETATM   11  N   UNL     1     -41.780  54.803 -54.096  1.00  0.00    -0.073 N 
HETATM   12  C   UNL     1     -42.488  53.859 -55.033  1.00  0.00     0.269 C 
HETATM   13  H   UNL     1     -42.396  54.893 -53.274  1.00  0.00     0.279 HD
HETATM   14  C   UNL     1     -41.625  56.159 -54.726  1.00  0.00     0.269 C 
ENDBRANCH  10  11
ENDBRANCH   6  10
BRANCH   7  15
HETATM   15  C   UNL     1     -39.887  51.224 -52.816  1.00  0.00     0.225 A 
HETATM   16  N   UNL     1     -39.983  51.400 -54.138  1.00  0.00    -0.081 NA
HETATM   17  O   UNL     1     -39.658  50.143 -54.660  1.00  0.00    -0.103 OA
HETATM   18  N   UNL     1     -39.403  49.230 -53.649  1.00  0.00    -0.083 NA
HETATM   19  C   UNL     1     -39.547  49.896 -52.506  1.00  0.00     0.201 A 
BRANCH  19  20
HETATM   20  N   UNL     1     -39.383  49.363 -51.285  1.00  0.00    -0.379 N 
HETATM   21  H   UNL     1     -40.190  49.119 -50.719  1.00  0.00     0.158 HD
HETATM   22  H   UNL     1     -38.492  49.327 -50.794  1.00  0.00     0.158 HD
ENDBRANCH  19  20
ENDBRANCH   7  15
ENDBRANCH   1   5
BRANCH   2  23
HETATM   23  N   UNL     1     -43.506  56.762 -50.938  1.00  0.00    -0.184 NA
HETATM   24  C   UNL     1     -43.341  57.850 -51.622  1.00  0.00     0.150 C 
BRANCH  24  25
HETATM   25  C   UNL     1     -44.100  59.082 -51.328  1.00  0.00    -0.017 A 
HETATM   26  C   UNL     1     -45.485  59.057 -51.144  1.00  0.00     0.016 A 
HETATM   27  C   UNL     1     -46.172  60.239 -50.840  1.00  0.00     0.037 A 
HETATM   28  C   UNL     1     -45.474  61.441 -50.710  1.00  0.00     0.069 A 
HETATM   29  C   UNL     1     -44.090  61.457 -50.905  1.00  0.00     0.037 A 
HETATM   30  C   UNL     1     -43.400  60.284 -51.215  1.00  0.00     0.016 A 
BRANCH  28  31
HETATM   31  O   UNL     1     -46.011  62.658 -50.402  1.00  0.00    -0.347 OA
BRANCH  31  32
HETATM   32  C   UNL     1     -46.288  63.548 -51.482  1.00  0.00     0.219 C 
BRANCH  32  33
HETATM   33  C   UNL     1     -47.690  63.277 -51.952  1.00  0.00     0.026 A 
HETATM   34  C   UNL     1     -47.973  62.557 -53.122  1.00  0.00     0.045 A 
HETATM   35 CL   UNL     1     -46.717  61.947 -54.142  1.00  0.00    -0.084 Cl
HETATM   36  C   UNL     1     -49.296  62.307 -53.507  1.00  0.00     0.024 A 
HETATM   37  C   UNL     1     -50.356  62.766 -52.724  1.00  0.00     0.005 A 
HETATM   38  C   UNL     1     -50.089  63.474 -51.556  1.00  0.00     0.043 A 
HETATM   39  C   UNL     1     -48.770  63.718 -51.181  1.00  0.00     0.126 A 
HETATM   40  F   UNL     1     -48.547  64.401 -50.049  1.00  0.00    -0.205 F 
ENDBRANCH  32  33
ENDBRANCH  31  32
ENDBRANCH  28  31
ENDBRANCH  24  25
ENDBRANCH   2  23
TORSDOF 10
ENDMDL
MODEL 9
REMARK VINA RESULT:      -7.2      5.720     12.039
REMARK  10 active torsions:
REMARK  status: ('A' for Active; 'I' for Inactive)
REMARK    1  A    between atoms: N_2  and  C_4 
REMARK    2  A    between atoms: C_4  and  C_5 
REMARK    3  A    between atoms: N_6  and  C_7 
REMARK    4  A    between atoms: C_11  and  N_12 
REMARK    5  A    between atoms: C_15  and  C_16 
REMARK       I    between atoms: C_16  and  N_17 
REMARK    6  A    between atoms: N_17  and  N_18 
REMARK    7  A    between atoms: C_19  and  C_20 
REMARK    8  A    between atoms: C_23  and  O_24 
REMARK    9  A    between atoms: O_24  and  C_25 
REMARK   10  A    between atoms: C_25  and  C_26 
ROOT
HETATM    1  C   UNL     1     -41.193  55.973 -53.237  1.00  0.00     0.293 C 
HETATM    2  N   UNL     1     -42.183  56.087 -52.274  1.00  0.00    -0.242 N 
HETATM    3  O   UNL     1     -40.658  56.891 -53.853  1.00  0.00    -0.264 OA
HETATM    4  H   UNL     1     -42.411  55.254 -51.732  1.00  0.00     0.192 HD
ENDROOT
BRANCH   1   5
HETATM    5  C   UNL     1     -40.791  54.595 -53.502  1.00  0.00     0.170 A 
HETATM    6  C   UNL     1     -40.797  53.533 -52.609  1.00  0.00     0.096 A 
HETATM    7  N   UNL     1     -40.256  52.471 -53.331  1.00  0.00    -0.215 N 
HETATM    8  N   UNL     1     -40.057  52.874 -54.612  1.00  0.00     0.012 NA
HETATM    9  N   UNL     1     -40.346  54.159 -54.716  1.00  0.00    -0.152 NA
BRANCH   6  10
HETATM   10  C   UNL     1     -41.329  53.446 -51.228  1.00  0.00     0.295 C 
BRANCH  10  11
HETATM   11  N   UNL     1     -40.300  53.609 -50.137  1.00  0.00    -0.073 N 
HETATM   12  C   UNL     1     -40.712  52.869 -48.892  1.00  0.00     0.269 C 
HETATM   13  H   UNL     1     -39.442  53.142 -50.467  1.00  0.00     0.279 HD
HETATM   14  C   UNL     1     -39.973  55.041 -49.822  1.00  0.00     0.269 C 
ENDBRANCH  10  11
ENDBRANCH   6  10
BRANCH   7  15
HETATM   15  C   UNL     1     -39.888  51.185 -52.870  1.00  0.00     0.225 A 
HETATM   16  N   UNL     1     -39.439  51.028 -51.620  1.00  0.00    -0.081 NA
HETATM   17  O   UNL     1     -39.159  49.659 -51.542  1.00  0.00    -0.103 OA
HETATM   18  N   UNL     1     -39.414  49.025 -52.748  1.00  0.00    -0.083 NA
HETATM   19  C   UNL     1     -39.862  49.968 -53.573  1.00  0.00     0.201 A 
BRANCH  19  20
HETATM   20  N   UNL     1     -40.224  49.758 -54.848  1.00  0.00    -0.379 N 
HETATM   21  H   UNL     1     -41.055  49.213 -55.062  1.00  0.00     0.158 HD
HETATM   22  H   UNL     1     -39.635  49.969 -55.650  1.00  0.00     0.158 HD
ENDBRANCH  19  20
ENDBRANCH   7  15
ENDBRANCH   1   5
BRANCH   2  23
HETATM   23  N   UNL     1     -42.605  57.255 -51.691  1.00  0.00    -0.184 NA
HETATM   24  C   UNL     1     -43.732  57.771 -52.070  1.00  0.00     0.150 C 
BRANCH  24  25
HETATM   25  C   UNL     1     -44.212  59.068 -51.553  1.00  0.00    -0.017 A 
HETATM   26  C   UNL     1     -43.506  60.250 -51.787  1.00  0.00     0.016 A 
HETATM   27  C   UNL     1     -44.001  61.468 -51.305  1.00  0.00     0.037 A 
HETATM   28  C   UNL     1     -45.206  61.505 -50.600  1.00  0.00     0.069 A 
HETATM   29  C   UNL     1     -45.900  60.315 -50.364  1.00  0.00     0.037 A 
HETATM   30  C   UNL     1     -45.409  59.097 -50.835  1.00  0.00     0.016 A 
BRANCH  28  31
HETATM   31  O   UNL     1     -45.811  62.618 -50.091  1.00  0.00    -0.347 OA
BRANCH  31  32
HETATM   32  C   UNL     1     -46.138  63.665 -51.002  1.00  0.00     0.219 C 
BRANCH  32  33
HETATM   33  C   UNL     1     -47.514  63.391 -51.541  1.00  0.00     0.026 A 
HETATM   34  C   UNL     1     -48.684  63.755 -50.858  1.00  0.00     0.045 A 
HETATM   35 CL   UNL     1     -48.633  64.527 -49.312  1.00  0.00    -0.084 Cl
HETATM   36  C   UNL     1     -49.945  63.500 -51.412  1.00  0.00     0.024 A 
HETATM   37  C   UNL     1     -50.055  62.885 -52.659  1.00  0.00     0.005 A 
HETATM   38  C   UNL     1     -48.903  62.528 -53.352  1.00  0.00     0.043 A 
HETATM   39  C   UNL     1     -47.653  62.784 -52.793  1.00  0.00     0.126 A 
HETATM   40  F   UNL     1     -46.562  62.429 -53.487  1.00  0.00    -0.205 F 
ENDBRANCH  32  33
ENDBRANCH  31  32
ENDBRANCH  28  31
ENDBRANCH  24  25
ENDBRANCH   2  23
TORSDOF 10
ENDMDL
MODEL 10
REMARK VINA RESULT:      -7.0      4.372      5.439
REMARK  10 active torsions:
REMARK  status: ('A' for Active; 'I' for Inactive)
REMARK    1  A    between atoms: N_2  and  C_4 
REMARK    2  A    between atoms: C_4  and  C_5 
REMARK    3  A    between atoms: N_6  and  C_7 
REMARK    4  A    between atoms: C_11  and  N_12 
REMARK    5  A    between atoms: C_15  and  C_16 
REMARK       I    between atoms: C_16  and  N_17 
REMARK    6  A    between atoms: N_17  and  N_18 
REMARK    7  A    between atoms: C_19  and  C_20 
REMARK    8  A    between atoms: C_23  and  O_24 
REMARK    9  A    between atoms: O_24  and  C_25 
REMARK   10  A    between atoms: C_25  and  C_26 
ROOT
HETATM    1  C   UNL     1     -44.837  60.768 -55.243  1.00  0.00     0.293 C 
HETATM    2  N   UNL     1     -44.997  59.505 -54.696  1.00  0.00    -0.242 N 
HETATM    3  O   UNL     1     -43.805  61.240 -55.712  1.00  0.00    -0.264 OA
HETATM    4  H   UNL     1     -45.948  59.194 -54.500  1.00  0.00     0.192 HD
ENDROOT
BRANCH   1   5
HETATM    5  C   UNL     1     -46.056  61.571 -55.226  1.00  0.00     0.170 A 
HETATM    6  C   UNL     1     -46.557  62.315 -54.167  1.00  0.00     0.096 A 
HETATM    7  N   UNL     1     -47.766  62.820 -54.641  1.00  0.00    -0.215 N 
HETATM    8  N   UNL     1     -47.897  62.479 -55.948  1.00  0.00     0.012 NA
HETATM    9  N   UNL     1     -46.889  61.700 -56.300  1.00  0.00    -0.152 NA
BRANCH   6  10
HETATM   10  C   UNL     1     -45.957  62.625 -52.847  1.00  0.00     0.295 C 
BRANCH  10  11
HETATM   11  N   UNL     1     -46.501  61.818 -51.695  1.00  0.00    -0.073 N 
HETATM   12  C   UNL     1     -46.628  62.665 -50.456  1.00  0.00     0.269 C 
HETATM   13  H   UNL     1     -47.463  61.550 -51.948  1.00  0.00     0.279 HD
HETATM   14  C   UNL     1     -45.718  60.569 -51.406  1.00  0.00     0.269 C 
ENDBRANCH  10  11
ENDBRANCH   6  10
BRANCH   7  15
HETATM   15  C   UNL     1     -48.769  63.522 -53.931  1.00  0.00     0.225 A 
HETATM   16  N   UNL     1     -48.436  64.283 -52.883  1.00  0.00    -0.081 NA
HETATM   17  O   UNL     1     -49.665  64.783 -52.437  1.00  0.00    -0.103 OA
HETATM   18  N   UNL     1     -50.713  64.293 -53.202  1.00  0.00    -0.083 NA
HETATM   19  C   UNL     1     -50.161  63.510 -54.125  1.00  0.00     0.201 A 
BRANCH  19  20
HETATM   20  N   UNL     1     -50.844  62.843 -55.068  1.00  0.00    -0.379 N 
HETATM   21  H   UNL     1     -51.333  63.348 -55.802  1.00  0.00     0.158 HD
HETATM   22  H   UNL     1     -51.056  61.848 -55.023  1.00  0.00     0.158 HD
ENDBRANCH  19  20
ENDBRANCH   7  15
ENDBRANCH   1   5
BRANCH   2  23
HETATM   23  N   UNL     1     -44.086  58.481 -54.760  1.00  0.00    -0.184 NA
HETATM   24  C   UNL     1     -44.483  57.275 -54.497  1.00  0.00     0.150 C 
BRANCH  24  25
HETATM   25  C   UNL     1     -43.546  56.135 -54.460  1.00  0.00    -0.017 A 
HETATM   26  C   UNL     1     -42.501  56.080 -53.534  1.00  0.00     0.016 A 
HETATM   27  C   UNL     1     -41.646  54.972 -53.508  1.00  0.00     0.037 A 
HETATM   28  C   UNL     1     -41.841  53.916 -54.399  1.00  0.00     0.069 A 
HETATM   29  C   UNL     1     -42.883  53.984 -55.328  1.00  0.00     0.037 A 
HETATM   30  C   UNL     1     -43.736  55.088 -55.364  1.00  0.00     0.016 A 
BRANCH  28  31
HETATM   31  O   UNL     1     -41.098  52.773 -54.473  1.00  0.00    -0.347 OA
BRANCH  31  32
HETATM   32  C   UNL     1     -39.817  52.777 -53.844  1.00  0.00     0.219 C 
BRANCH  32  33
HETATM   33  C   UNL     1     -39.823  51.708 -52.787  1.00  0.00     0.026 A 
HETATM   34  C   UNL     1     -39.666  50.346 -53.082  1.00  0.00     0.045 A 
HETATM   35 CL   UNL     1     -39.485  49.783 -54.707  1.00  0.00    -0.084 Cl
HETATM   36  C   UNL     1     -39.653  49.389 -52.060  1.00  0.00     0.024 A 
HETATM   37  C   UNL     1     -39.789  49.778 -50.728  1.00  0.00     0.005 A 
HETATM   38  C   UNL     1     -39.935  51.127 -50.419  1.00  0.00     0.043 A 
HETATM   39  C   UNL     1     -39.948  52.073 -51.443  1.00  0.00     0.126 A 
HETATM   40  F   UNL     1     -40.089  53.365 -51.112  1.00  0.00    -0.205 F 
ENDBRANCH  32  33
ENDBRANCH  31  32
ENDBRANCH  28  31
ENDBRANCH  24  25
ENDBRANCH   2  23
TORSDOF 10
ENDMDL
