MODEL 1
REMARK VINA RESULT:      -8.2      0.000      0.000
REMARK  9 active torsions:
REMARK  status: ('A' for Active; 'I' for Inactive)
REMARK    1  A    between atoms: C_2  and  O_3 
REMARK    2  A    between atoms: O_3  and  C_4 
REMARK    3  A    between atoms: C_4  and  C_5 
REMARK    4  A    between atoms: C_10  and  C_11 
REMARK       I    between atoms: C_11  and  N_12 
REMARK    5  A    between atoms: N_12  and  C_13 
REMARK    6  A    between atoms: C_15  and  C_16 
REMARK    7  A    between atoms: C_16  and  C_17 
REMARK    8  A    between atoms: C_17  and  C_18 
REMARK    9  A    between atoms: C_18  and  C_19 
ROOT
HETATM    1  C   UNL     1     -41.571  57.924 -51.611  1.00  0.00     0.725 A 
HETATM    2  N   UNL     1     -41.527  58.554 -52.757  1.00  0.00    -0.046 NA
HETATM    3  C   UNL     1     -42.123  59.758 -52.502  1.00  0.00     0.165 A 
HETATM    4  N   UNL     1     -42.520  59.927 -51.236  1.00  0.00    -0.144 NA
HETATM    5  N   UNL     1     -42.162  58.751 -50.692  1.00  0.00    -0.106 N 
HETATM    6  H   UNL     1     -42.346  58.586 -49.712  1.00  0.00     0.208 HD
ENDROOT
BRANCH   1   7
HETATM    7  N   UNL     1     -41.116  56.668 -51.293  1.00  0.00    -0.152 N 
HETATM    8  C   UNL     1     -41.984  55.651 -50.959  1.00  0.00     0.272 C 
HETATM    9  O   UNL     1     -43.193  55.760 -50.792  1.00  0.00    -0.267 OA
HETATM   10  H   UNL     1     -40.127  56.485 -51.267  1.00  0.00     0.187 HD
BRANCH   8  11
HETATM   11  C   UNL     1     -41.326  54.341 -50.769  1.00  0.00     0.063 A 
HETATM   12  C   UNL     1     -40.767  53.825 -49.603  1.00  0.00     0.022 A 
HETATM   13  N   UNL     1     -40.197  52.617 -49.919  1.00  0.00    -0.354 N 
HETATM   14  C   UNL     1     -40.637  54.363 -48.221  1.00  0.00     0.069 C 
HETATM   15  C   UNL     1     -40.277  52.367 -51.269  1.00  0.00     0.115 A 
HETATM   16  H   UNL     1     -39.684  52.021 -49.280  1.00  0.00     0.166 HD
HETATM   17  C   UNL     1     -41.059  53.379 -51.816  1.00  0.00    -0.011 A 
HETATM   18  C   UNL     1     -41.503  53.504 -53.238  1.00  0.00     0.052 C 
BRANCH  15  19
HETATM   19  C   UNL     1     -39.588  51.230 -51.841  1.00  0.00     0.310 C 
HETATM   20  O   UNL     1     -39.366  50.191 -51.231  1.00  0.00    -0.258 OA
BRANCH  19  21
HETATM   21  O   UNL     1     -39.166  51.502 -53.105  1.00  0.00    -0.317 OA
BRANCH  21  22
HETATM   22  C   UNL     1     -39.198  50.408 -54.030  1.00  0.00     0.175 C 
HETATM   23  C   UNL     1     -40.623  50.106 -54.452  1.00  0.00     0.034 C 
ENDBRANCH  21  22
ENDBRANCH  19  21
ENDBRANCH  15  19
ENDBRANCH   8  11
ENDBRANCH   1   7
BRANCH   3  24
HETATM   24  C   UNL     1     -42.318  60.768 -53.573  1.00  0.00     0.083 C 
BRANCH  24  25
HETATM   25  C   UNL     1     -43.254  60.252 -54.665  1.00  0.00     0.012 C 
BRANCH  25  26
HETATM   26  C   UNL     1     -42.479  59.843 -55.918  1.00  0.00     0.041 C 
BRANCH  26  27
HETATM   27  C   UNL     1     -42.872  58.481 -56.397  1.00  0.00    -0.030 A 
HETATM   28  C   UNL     1     -42.629  57.920 -57.691  1.00  0.00    -0.002 A 
HETATM   29  C   UNL     1     -43.180  56.638 -57.701  1.00  0.00     0.042 A 
HETATM   30  C   UNL     1     -41.993  58.384 -58.861  1.00  0.00     0.014 A 
HETATM   31  C   UNL     1     -43.127  55.797 -58.820  1.00  0.00     0.030 A 
HETATM   32  N   UNL     1     -43.737  56.428 -56.461  1.00  0.00    -0.365 N 
HETATM   33  C   UNL     1     -42.489  56.281 -59.964  1.00  0.00     0.002 A 
HETATM   34  C   UNL     1     -41.928  57.556 -59.988  1.00  0.00     0.001 A 
HETATM   35  H   UNL     1     -44.216  55.582 -56.183  1.00  0.00     0.165 HD
HETATM   36  C   UNL     1     -43.555  57.527 -55.668  1.00  0.00     0.096 A 
ENDBRANCH  26  27
ENDBRANCH  25  26
ENDBRANCH  24  25
ENDBRANCH   3  24
TORSDOF 9
ENDMDL
MODEL 2
REMARK VINA RESULT:      -8.1      2.887      7.938
REMARK  9 active torsions:
REMARK  status: ('A' for Active; 'I' for Inactive)
REMARK    1  A    between atoms: C_2  and  O_3 
REMARK    2  A    between atoms: O_3  and  C_4 
REMARK    3  A    between atoms: C_4  and  C_5 
REMARK    4  A    between atoms: C_10  and  C_11 
REMARK       I    between atoms: C_11  and  N_12 
REMARK    5  A    between atoms: N_12  and  C_13 
REMARK    6  A    between atoms: C_15  and  C_16 
REMARK    7  A    between atoms: C_16  and  C_17 
REMARK    8  A    between atoms: C_17  and  C_18 
REMARK    9  A    between atoms: C_18  and  C_19 
ROOT
HETATM    1  C   UNL     1     -41.194  56.858 -52.544  1.00  0.00     0.725 A 
HETATM    2  N   UNL     1     -41.075  55.731 -51.889  1.00  0.00    -0.046 NA
HETATM    3  C   UNL     1     -40.952  56.113 -50.582  1.00  0.00     0.165 A 
HETATM    4  N   UNL     1     -41.013  57.434 -50.379  1.00  0.00    -0.144 NA
HETATM    5  N   UNL     1     -41.164  57.883 -51.637  1.00  0.00    -0.106 N 
HETATM    6  H   UNL     1     -41.239  58.878 -51.797  1.00  0.00     0.208 HD
ENDROOT
BRANCH   1   7
HETATM    7  N   UNL     1     -41.344  57.066 -53.893  1.00  0.00    -0.152 N 
HETATM    8  C   UNL     1     -42.593  57.141 -54.474  1.00  0.00     0.272 C 
HETATM    9  O   UNL     1     -43.662  56.921 -53.918  1.00  0.00    -0.267 OA
HETATM   10  H   UNL     1     -40.534  57.133 -54.484  1.00  0.00     0.187 HD
BRANCH   8  11
HETATM   11  C   UNL     1     -42.564  57.492 -55.909  1.00  0.00     0.063 A 
HETATM   12  C   UNL     1     -42.420  58.755 -56.479  1.00  0.00     0.022 A 
HETATM   13  N   UNL     1     -42.535  58.609 -57.839  1.00  0.00    -0.354 N 
HETATM   14  C   UNL     1     -42.255  60.114 -55.895  1.00  0.00     0.069 C 
HETATM   15  C   UNL     1     -42.845  57.312 -58.176  1.00  0.00     0.115 A 
HETATM   16  H   UNL     1     -42.507  59.360 -58.518  1.00  0.00     0.166 HD
HETATM   17  C   UNL     1     -42.778  56.569 -57.002  1.00  0.00    -0.011 A 
HETATM   18  C   UNL     1     -42.954  55.091 -56.862  1.00  0.00     0.052 C 
BRANCH  15  19
HETATM   19  C   UNL     1     -43.180  56.974 -59.543  1.00  0.00     0.310 C 
HETATM   20  O   UNL     1     -42.358  56.605 -60.373  1.00  0.00    -0.258 OA
BRANCH  19  21
HETATM   21  O   UNL     1     -44.498  57.193 -59.790  1.00  0.00    -0.317 OA
BRANCH  21  22
HETATM   22  C   UNL     1     -45.318  56.024 -59.923  1.00  0.00     0.175 C 
HETATM   23  C   UNL     1     -46.774  56.408 -60.089  1.00  0.00     0.034 C 
ENDBRANCH  21  22
ENDBRANCH  19  21
ENDBRANCH  15  19
ENDBRANCH   8  11
ENDBRANCH   1   7
BRANCH   3  24
HETATM   24  C   UNL     1     -40.746  55.117 -49.500  1.00  0.00     0.083 C 
BRANCH  24  25
HETATM   25  C   UNL     1     -39.946  53.912 -49.993  1.00  0.00     0.012 C 
BRANCH  25  26
HETATM   26  C   UNL     1     -40.629  52.597 -49.617  1.00  0.00     0.041 C 
BRANCH  26  27
HETATM   27  C   UNL     1     -40.222  51.477 -50.522  1.00  0.00    -0.030 A 
HETATM   28  C   UNL     1     -40.107  51.521 -51.949  1.00  0.00    -0.002 A 
HETATM   29  C   UNL     1     -39.715  50.251 -52.376  1.00  0.00     0.042 A 
HETATM   30  C   UNL     1     -40.305  52.523 -52.921  1.00  0.00     0.014 A 
HETATM   31  C   UNL     1     -39.510  49.934 -53.724  1.00  0.00     0.030 A 
HETATM   32  N   UNL     1     -39.596  49.466 -51.253  1.00  0.00    -0.365 N 
HETATM   33  C   UNL     1     -39.710  50.946 -54.666  1.00  0.00     0.002 A 
HETATM   34  C   UNL     1     -40.102  52.224 -54.273  1.00  0.00     0.001 A 
HETATM   35  H   UNL     1     -39.331  48.491 -51.260  1.00  0.00     0.165 HD
HETATM   36  C   UNL     1     -39.895  50.193 -50.133  1.00  0.00     0.096 A 
ENDBRANCH  26  27
ENDBRANCH  25  26
ENDBRANCH  24  25
ENDBRANCH   3  24
TORSDOF 9
ENDMDL
MODEL 3
REMARK VINA RESULT:      -8.1      4.888      9.558
REMARK  9 active torsions:
REMARK  status: ('A' for Active; 'I' for Inactive)
REMARK    1  A    between atoms: C_2  and  O_3 
REMARK    2  A    between atoms: O_3  and  C_4 
REMARK    3  A    between atoms: C_4  and  C_5 
REMARK    4  A    between atoms: C_10  and  C_11 
REMARK       I    between atoms: C_11  and  N_12 
REMARK    5  A    between atoms: N_12  and  C_13 
REMARK    6  A    between atoms: C_15  and  C_16 
REMARK    7  A    between atoms: C_16  and  C_17 
REMARK    8  A    between atoms: C_17  and  C_18 
REMARK    9  A    between atoms: C_18  and  C_19 
ROOT
HETATM    1  C   UNL     1     -43.612  58.810 -50.989  1.00  0.00     0.725 A 
HETATM    2  N   UNL     1     -42.717  58.691 -51.938  1.00  0.00    -0.046 NA
HETATM    3  C   UNL     1     -42.589  57.341 -52.111  1.00  0.00     0.165 A 
HETATM    4  N   UNL     1     -43.383  56.600 -51.329  1.00  0.00    -0.144 NA
HETATM    5  N   UNL     1     -44.018  57.554 -50.627  1.00  0.00    -0.106 N 
HETATM    6  H   UNL     1     -44.701  57.280 -49.934  1.00  0.00     0.208 HD
ENDROOT
BRANCH   1   7
HETATM    7  N   UNL     1     -44.121  59.949 -50.415  1.00  0.00    -0.152 N 
HETATM    8  C   UNL     1     -45.418  60.000 -49.948  1.00  0.00     0.272 C 
HETATM    9  O   UNL     1     -46.270  59.131 -50.088  1.00  0.00    -0.267 OA
HETATM   10  H   UNL     1     -43.556  60.779 -50.359  1.00  0.00     0.187 HD
BRANCH   8  11
HETATM   11  C   UNL     1     -45.753  61.260 -49.252  1.00  0.00     0.063 A 
HETATM   12  C   UNL     1     -45.872  62.535 -49.800  1.00  0.00     0.022 A 
HETATM   13  N   UNL     1     -46.112  63.406 -48.767  1.00  0.00    -0.354 N 
HETATM   14  C   UNL     1     -45.718  63.058 -51.185  1.00  0.00     0.069 C 
HETATM   15  C   UNL     1     -46.058  62.764 -47.551  1.00  0.00     0.115 A 
HETATM   16  H   UNL     1     -46.210  64.411 -48.852  1.00  0.00     0.166 HD
HETATM   17  C   UNL     1     -45.929  61.407 -47.824  1.00  0.00    -0.011 A 
HETATM   18  C   UNL     1     -45.910  60.288 -46.833  1.00  0.00     0.052 C 
BRANCH  15  19
HETATM   19  C   UNL     1     -46.112  63.526 -46.322  1.00  0.00     0.310 C 
HETATM   20  O   UNL     1     -47.115  64.108 -45.925  1.00  0.00    -0.258 OA
BRANCH  19  21
HETATM   21  O   UNL     1     -44.894  63.565 -45.719  1.00  0.00    -0.317 OA
BRANCH  21  22
HETATM   22  C   UNL     1     -44.889  63.403 -44.295  1.00  0.00     0.175 C 
HETATM   23  C   UNL     1     -44.107  62.167 -43.900  1.00  0.00     0.034 C 
ENDBRANCH  21  22
ENDBRANCH  19  21
ENDBRANCH  15  19
ENDBRANCH   8  11
ENDBRANCH   1   7
BRANCH   3  24
HETATM   24  C   UNL     1     -41.620  56.774 -53.082  1.00  0.00     0.083 C 
BRANCH  24  25
HETATM   25  C   UNL     1     -42.053  55.388 -53.561  1.00  0.00     0.012 C 
BRANCH  25  26
HETATM   26  C   UNL     1     -40.854  54.552 -54.008  1.00  0.00     0.041 C 
BRANCH  26  27
HETATM   27  C   UNL     1     -40.463  53.541 -52.976  1.00  0.00    -0.030 A 
HETATM   28  C   UNL     1     -40.172  52.156 -53.194  1.00  0.00    -0.002 A 
HETATM   29  C   UNL     1     -39.871  51.593 -51.953  1.00  0.00     0.042 A 
HETATM   30  C   UNL     1     -40.140  51.325 -54.332  1.00  0.00     0.014 A 
HETATM   31  C   UNL     1     -39.539  50.242 -51.793  1.00  0.00     0.030 A 
HETATM   32  N   UNL     1     -39.975  52.596 -51.017  1.00  0.00    -0.365 N 
HETATM   33  C   UNL     1     -39.511  49.442 -52.938  1.00  0.00     0.002 A 
HETATM   34  C   UNL     1     -39.807  49.972 -54.192  1.00  0.00     0.001 A 
HETATM   35  H   UNL     1     -39.818  52.474 -50.027  1.00  0.00     0.165 HD
HETATM   36  C   UNL     1     -40.327  53.771 -51.621  1.00  0.00     0.096 A 
ENDBRANCH  26  27
ENDBRANCH  25  26
ENDBRANCH  24  25
ENDBRANCH   3  24
TORSDOF 9
ENDMDL
MODEL 4
REMARK VINA RESULT:      -8.1      3.399      8.168
REMARK  9 active torsions:
REMARK  status: ('A' for Active; 'I' for Inactive)
REMARK    1  A    between atoms: C_2  and  O_3 
REMARK    2  A    between atoms: O_3  and  C_4 
REMARK    3  A    between atoms: C_4  and  C_5 
REMARK    4  A    between atoms: C_10  and  C_11 
REMARK       I    between atoms: C_11  and  N_12 
REMARK    5  A    between atoms: N_12  and  C_13 
REMARK    6  A    between atoms: C_15  and  C_16 
REMARK    7  A    between atoms: C_16  and  C_17 
REMARK    8  A    between atoms: C_17  and  C_18 
REMARK    9  A    between atoms: C_18  and  C_19 
ROOT
HETATM    1  C   UNL     1     -44.064  56.903 -53.374  1.00  0.00     0.725 A 
HETATM    2  N   UNL     1     -43.054  56.313 -52.788  1.00  0.00    -0.046 NA
HETATM    3  C   UNL     1     -43.319  56.438 -51.453  1.00  0.00     0.165 A 
HETATM    4  N   UNL     1     -44.468  57.061 -51.168  1.00  0.00    -0.144 NA
HETATM    5  N   UNL     1     -44.920  57.348 -52.401  1.00  0.00    -0.106 N 
HETATM    6  H   UNL     1     -45.799  57.837 -52.500  1.00  0.00     0.208 HD
ENDROOT
BRANCH   1   7
HETATM    7  N   UNL     1     -44.312  57.075 -54.713  1.00  0.00    -0.152 N 
HETATM    8  C   UNL     1     -44.443  58.332 -55.266  1.00  0.00     0.272 C 
HETATM    9  O   UNL     1     -44.478  59.390 -54.649  1.00  0.00    -0.267 OA
HETATM   10  H   UNL     1     -44.435  56.273 -55.308  1.00  0.00     0.187 HD
BRANCH   8  11
HETATM   11  C   UNL     1     -44.582  58.327 -56.736  1.00  0.00     0.063 A 
HETATM   12  C   UNL     1     -45.751  58.212 -57.486  1.00  0.00     0.022 A 
HETATM   13  N   UNL     1     -45.389  58.171 -58.809  1.00  0.00    -0.354 N 
HETATM   14  C   UNL     1     -47.183  58.065 -57.108  1.00  0.00     0.069 C 
HETATM   15  C   UNL     1     -44.021  58.156 -58.951  1.00  0.00     0.115 A 
HETATM   16  H   UNL     1     -46.023  58.056 -59.591  1.00  0.00     0.166 HD
HETATM   17  C   UNL     1     -43.487  58.347 -57.681  1.00  0.00    -0.011 A 
HETATM   18  C   UNL     1     -42.042  58.488 -57.325  1.00  0.00     0.052 C 
BRANCH  15  19
HETATM   19  C   UNL     1     -43.426  57.941 -60.253  1.00  0.00     0.310 C 
HETATM   20  O   UNL     1     -42.776  58.789 -60.853  1.00  0.00    -0.258 OA
BRANCH  19  21
HETATM   21  O   UNL     1     -43.747  56.713 -60.739  1.00  0.00    -0.317 OA
BRANCH  21  22
HETATM   22  C   UNL     1     -43.367  55.594 -59.927  1.00  0.00     0.175 C 
HETATM   23  C   UNL     1     -44.487  54.575 -59.863  1.00  0.00     0.034 C 
ENDBRANCH  21  22
ENDBRANCH  19  21
ENDBRANCH  15  19
ENDBRANCH   8  11
ENDBRANCH   1   7
BRANCH   3  24
HETATM   24  C   UNL     1     -42.375  55.931 -50.425  1.00  0.00     0.083 C 
BRANCH  24  25
HETATM   25  C   UNL     1     -40.980  55.707 -51.007  1.00  0.00     0.012 C 
BRANCH  25  26
HETATM   26  C   UNL     1     -40.486  54.285 -50.741  1.00  0.00     0.041 C 
BRANCH  26  27
HETATM   27  C   UNL     1     -40.365  53.491 -52.003  1.00  0.00    -0.030 A 
HETATM   28  C   UNL     1     -40.069  52.095 -52.119  1.00  0.00    -0.002 A 
HETATM   29  C   UNL     1     -40.039  51.785 -53.479  1.00  0.00     0.042 A 
HETATM   30  C   UNL     1     -39.820  51.062 -51.192  1.00  0.00     0.014 A 
HETATM   31  C   UNL     1     -39.773  50.496 -53.959  1.00  0.00     0.030 A 
HETATM   32  N   UNL     1     -40.305  52.948 -54.165  1.00  0.00    -0.365 N 
HETATM   33  C   UNL     1     -39.533  49.492 -53.018  1.00  0.00     0.002 A 
HETATM   34  C   UNL     1     -39.555  49.768 -51.652  1.00  0.00     0.001 A 
HETATM   35  H   UNL     1     -40.341  53.024 -55.171  1.00  0.00     0.165 HD
HETATM   36  C   UNL     1     -40.505  53.978 -53.288  1.00  0.00     0.096 A 
ENDBRANCH  26  27
ENDBRANCH  25  26
ENDBRANCH  24  25
ENDBRANCH   3  24
TORSDOF 9
ENDMDL
MODEL 5
REMARK VINA RESULT:      -8.0      4.116      9.297
REMARK  9 active torsions:
REMARK  status: ('A' for Active; 'I' for Inactive)
REMARK    1  A    between atoms: C_2  and  O_3 
REMARK    2  A    between atoms: O_3  and  C_4 
REMARK    3  A    between atoms: C_4  and  C_5 
REMARK    4  A    between atoms: C_10  and  C_11 
REMARK       I    between atoms: C_11  and  N_12 
REMARK    5  A    between atoms: N_12  and  C_13 
REMARK    6  A    between atoms: C_15  and  C_16 
REMARK    7  A    between atoms: C_16  and  C_17 
REMARK    8  A    between atoms: C_17  and  C_18 
REMARK    9  A    between atoms: C_18  and  C_19 
ROOT
HETATM    1  C   UNL     1     -43.270  56.676 -55.108  1.00  0.00     0.725 A 
HETATM    2  N   UNL     1     -43.633  56.273 -53.917  1.00  0.00    -0.046 NA
HETATM    3  C   UNL     1     -42.587  56.624 -53.110  1.00  0.00     0.165 A 
HETATM    4  N   UNL     1     -41.587  57.256 -53.736  1.00  0.00    -0.144 NA
HETATM    5  N   UNL     1     -42.043  57.274 -55.000  1.00  0.00    -0.106 N 
HETATM    6  H   UNL     1     -41.476  57.701 -55.720  1.00  0.00     0.208 HD
ENDROOT
BRANCH   1   7
HETATM    7  N   UNL     1     -43.943  56.575 -56.301  1.00  0.00    -0.152 N 
HETATM    8  C   UNL     1     -44.071  57.656 -57.148  1.00  0.00     0.272 C 
HETATM    9  O   UNL     1     -43.731  58.807 -56.905  1.00  0.00    -0.267 OA
HETATM   10  H   UNL     1     -44.384  55.708 -56.557  1.00  0.00     0.187 HD
BRANCH   8  11
HETATM   11  C   UNL     1     -44.716  57.331 -58.437  1.00  0.00     0.063 A 
HETATM   12  C   UNL     1     -44.113  56.866 -59.603  1.00  0.00     0.022 A 
HETATM   13  N   UNL     1     -45.087  56.785 -60.567  1.00  0.00    -0.354 N 
HETATM   14  C   UNL     1     -42.702  56.546 -59.952  1.00  0.00     0.069 C 
HETATM   15  C   UNL     1     -46.287  57.272 -60.104  1.00  0.00     0.115 A 
HETATM   16  H   UNL     1     -44.942  56.509 -61.531  1.00  0.00     0.166 HD
HETATM   17  C   UNL     1     -46.114  57.535 -58.749  1.00  0.00    -0.011 A 
HETATM   18  C   UNL     1     -47.155  58.003 -57.784  1.00  0.00     0.052 C 
BRANCH  15  19
HETATM   19  C   UNL     1     -47.403  57.440 -61.011  1.00  0.00     0.310 C 
HETATM   20  O   UNL     1     -47.800  56.565 -61.770  1.00  0.00    -0.258 OA
BRANCH  19  21
HETATM   21  O   UNL     1     -47.892  58.707 -60.952  1.00  0.00    -0.317 OA
BRANCH  21  22
HETATM   22  C   UNL     1     -47.042  59.736 -61.472  1.00  0.00     0.175 C 
HETATM   23  C   UNL     1     -46.938  60.890 -60.495  1.00  0.00     0.034 C 
ENDBRANCH  21  22
ENDBRANCH  19  21
ENDBRANCH  15  19
ENDBRANCH   8  11
ENDBRANCH   1   7
BRANCH   3  24
HETATM   24  C   UNL     1     -42.582  56.298 -51.662  1.00  0.00     0.083 C 
BRANCH  24  25
HETATM   25  C   UNL     1     -42.276  54.819 -51.422  1.00  0.00     0.012 C 
BRANCH  25  26
HETATM   26  C   UNL     1     -40.782  54.529 -51.559  1.00  0.00     0.041 C 
BRANCH  26  27
HETATM   27  C   UNL     1     -40.509  53.483 -52.593  1.00  0.00    -0.030 A 
HETATM   28  C   UNL     1     -40.149  52.116 -52.363  1.00  0.00    -0.002 A 
HETATM   29  C   UNL     1     -39.977  51.513 -53.610  1.00  0.00     0.042 A 
HETATM   30  C   UNL     1     -39.948  51.334 -51.208  1.00  0.00     0.014 A 
HETATM   31  C   UNL     1     -39.616  50.168 -53.760  1.00  0.00     0.030 A 
HETATM   32  N   UNL     1     -40.224  52.475 -54.562  1.00  0.00    -0.365 N 
HETATM   33  C   UNL     1     -39.427  49.416 -52.598  1.00  0.00     0.002 A 
HETATM   34  C   UNL     1     -39.589  49.987 -51.338  1.00  0.00     0.001 A 
HETATM   35  H   UNL     1     -40.167  52.323 -55.559  1.00  0.00     0.165 HD
HETATM   36  C   UNL     1     -40.547  53.662 -53.963  1.00  0.00     0.096 A 
ENDBRANCH  26  27
ENDBRANCH  25  26
ENDBRANCH  24  25
ENDBRANCH   3  24
TORSDOF 9
ENDMDL
MODEL 6
REMARK VINA RESULT:      -8.0      3.361      8.190
REMARK  9 active torsions:
REMARK  status: ('A' for Active; 'I' for Inactive)
REMARK    1  A    between atoms: C_2  and  O_3 
REMARK    2  A    between atoms: O_3  and  C_4 
REMARK    3  A    between atoms: C_4  and  C_5 
REMARK    4  A    between atoms: C_10  and  C_11 
REMARK       I    between atoms: C_11  and  N_12 
REMARK    5  A    between atoms: N_12  and  C_13 
REMARK    6  A    between atoms: C_15  and  C_16 
REMARK    7  A    between atoms: C_16  and  C_17 
REMARK    8  A    between atoms: C_17  and  C_18 
REMARK    9  A    between atoms: C_18  and  C_19 
ROOT
HETATM    1  C   UNL     1     -40.747  54.078 -54.547  1.00  0.00     0.725 A 
HETATM    2  N   UNL     1     -40.748  54.128 -53.238  1.00  0.00    -0.046 NA
HETATM    3  C   UNL     1     -40.254  52.912 -52.856  1.00  0.00     0.165 A 
HETATM    4  N   UNL     1     -39.916  52.103 -53.867  1.00  0.00    -0.144 NA
HETATM    5  N   UNL     1     -40.240  52.864 -54.927  1.00  0.00    -0.106 N 
HETATM    6  H   UNL     1     -40.091  52.499 -55.857  1.00  0.00     0.208 HD
ENDROOT
BRANCH   1   7
HETATM    7  N   UNL     1     -41.146  55.031 -55.451  1.00  0.00    -0.152 N 
HETATM    8  C   UNL     1     -42.475  55.200 -55.780  1.00  0.00     0.272 C 
HETATM    9  O   UNL     1     -43.402  54.483 -55.424  1.00  0.00    -0.267 OA
HETATM   10  H   UNL     1     -40.460  55.602 -55.915  1.00  0.00     0.187 HD
BRANCH   8  11
HETATM   11  C   UNL     1     -42.728  56.350 -56.672  1.00  0.00     0.063 A 
HETATM   12  C   UNL     1     -42.608  57.706 -56.377  1.00  0.00     0.022 A 
HETATM   13  N   UNL     1     -43.026  58.406 -57.480  1.00  0.00    -0.354 N 
HETATM   14  C   UNL     1     -42.208  58.439 -55.145  1.00  0.00     0.069 C 
HETATM   15  C   UNL     1     -43.508  57.562 -58.453  1.00  0.00     0.115 A 
HETATM   16  H   UNL     1     -43.084  59.415 -57.552  1.00  0.00     0.166 HD
HETATM   17  C   UNL     1     -43.250  56.266 -58.019  1.00  0.00    -0.011 A 
HETATM   18  C   UNL     1     -43.513  54.998 -58.766  1.00  0.00     0.052 C 
BRANCH  15  19
HETATM   19  C   UNL     1     -44.158  58.101 -59.629  1.00  0.00     0.310 C 
HETATM   20  O   UNL     1     -43.608  58.217 -60.718  1.00  0.00    -0.258 OA
BRANCH  19  21
HETATM   21  O   UNL     1     -45.418  58.520 -59.340  1.00  0.00    -0.317 OA
BRANCH  21  22
HETATM   22  C   UNL     1     -46.325  57.515 -58.869  1.00  0.00     0.175 C 
HETATM   23  C   UNL     1     -46.883  56.713 -60.028  1.00  0.00     0.034 C 
ENDBRANCH  21  22
ENDBRANCH  19  21
ENDBRANCH  15  19
ENDBRANCH   8  11
ENDBRANCH   1   7
BRANCH   3  24
HETATM   24  C   UNL     1     -40.135  52.540 -51.424  1.00  0.00     0.083 C 
BRANCH  24  25
HETATM   25  C   UNL     1     -39.912  53.769 -50.542  1.00  0.00     0.012 C 
BRANCH  25  26
HETATM   26  C   UNL     1     -41.077  53.981 -49.575  1.00  0.00     0.041 C 
BRANCH  26  27
HETATM   27  C   UNL     1     -42.166  54.805 -50.187  1.00  0.00    -0.030 A 
HETATM   28  C   UNL     1     -42.108  56.195 -50.527  1.00  0.00    -0.002 A 
HETATM   29  C   UNL     1     -43.350  56.549 -51.054  1.00  0.00     0.042 A 
HETATM   30  C   UNL     1     -41.113  57.190 -50.431  1.00  0.00     0.014 A 
HETATM   31  C   UNL     1     -43.648  57.846 -51.492  1.00  0.00     0.030 A 
HETATM   32  N   UNL     1     -44.134  55.419 -51.036  1.00  0.00    -0.365 N 
HETATM   33  C   UNL     1     -42.643  58.811 -51.389  1.00  0.00     0.002 A 
HETATM   34  C   UNL     1     -41.392  58.491 -50.867  1.00  0.00     0.001 A 
HETATM   35  H   UNL     1     -45.092  55.380 -51.354  1.00  0.00     0.165 HD
HETATM   36  C   UNL     1     -43.432  54.365 -50.519  1.00  0.00     0.096 A 
ENDBRANCH  26  27
ENDBRANCH  25  26
ENDBRANCH  24  25
ENDBRANCH   3  24
TORSDOF 9
ENDMDL
MODEL 7
REMARK VINA RESULT:      -8.0      4.215      9.060
REMARK  9 active torsions:
REMARK  status: ('A' for Active; 'I' for Inactive)
REMARK    1  A    between atoms: C_2  and  O_3 
REMARK    2  A    between atoms: O_3  and  C_4 
REMARK    3  A    between atoms: C_4  and  C_5 
REMARK    4  A    between atoms: C_10  and  C_11 
REMARK       I    between atoms: C_11  and  N_12 
REMARK    5  A    between atoms: N_12  and  C_13 
REMARK    6  A    between atoms: C_15  and  C_16 
REMARK    7  A    between atoms: C_16  and  C_17 
REMARK    8  A    between atoms: C_17  and  C_18 
REMARK    9  A    between atoms: C_18  and  C_19 
ROOT
HETATM    1  C   UNL     1     -43.422  57.093 -55.015  1.00  0.00     0.725 A 
HETATM    2  N   UNL     1     -43.901  56.973 -53.803  1.00  0.00    -0.046 NA
HETATM    3  C   UNL     1     -42.854  57.311 -52.992  1.00  0.00     0.165 A 
HETATM    4  N   UNL     1     -41.739  57.667 -53.640  1.00  0.00    -0.144 NA
HETATM    5  N   UNL     1     -42.123  57.518 -54.919  1.00  0.00    -0.106 N 
HETATM    6  H   UNL     1     -41.463  57.720 -55.657  1.00  0.00     0.208 HD
ENDROOT
BRANCH   1   7
HETATM    7  N   UNL     1     -44.043  56.874 -56.220  1.00  0.00    -0.152 N 
HETATM    8  C   UNL     1     -44.004  57.812 -57.231  1.00  0.00     0.272 C 
HETATM    9  O   UNL     1     -43.545  58.944 -57.146  1.00  0.00    -0.267 OA
HETATM   10  H   UNL     1     -44.568  56.029 -56.367  1.00  0.00     0.187 HD
BRANCH   8  11
HETATM   11  C   UNL     1     -44.619  57.354 -58.494  1.00  0.00     0.063 A 
HETATM   12  C   UNL     1     -43.983  56.807 -59.607  1.00  0.00     0.022 A 
HETATM   13  N   UNL     1     -44.939  56.610 -60.571  1.00  0.00    -0.354 N 
HETATM   14  C   UNL     1     -42.558  56.505 -59.908  1.00  0.00     0.069 C 
HETATM   15  C   UNL     1     -46.161  57.098 -60.169  1.00  0.00     0.115 A 
HETATM   16  H   UNL     1     -44.771  56.255 -61.505  1.00  0.00     0.166 HD
HETATM   17  C   UNL     1     -46.017  57.484 -58.840  1.00  0.00    -0.011 A 
HETATM   18  C   UNL     1     -47.087  58.002 -57.934  1.00  0.00     0.052 C 
BRANCH  15  19
HETATM   19  C   UNL     1     -47.268  57.149 -61.100  1.00  0.00     0.310 C 
HETATM   20  O   UNL     1     -47.613  56.204 -61.799  1.00  0.00    -0.258 OA
BRANCH  19  21
HETATM   21  O   UNL     1     -47.814  58.393 -61.141  1.00  0.00    -0.317 OA
BRANCH  21  22
HETATM   22  C   UNL     1     -48.480  58.751 -62.358  1.00  0.00     0.175 C 
HETATM   23  C   UNL     1     -49.852  59.325 -62.068  1.00  0.00     0.034 C 
ENDBRANCH  21  22
ENDBRANCH  19  21
ENDBRANCH  15  19
ENDBRANCH   8  11
ENDBRANCH   1   7
BRANCH   3  24
HETATM   24  C   UNL     1     -42.971  57.258 -51.513  1.00  0.00     0.083 C 
BRANCH  24  25
HETATM   25  C   UNL     1     -42.725  55.846 -50.982  1.00  0.00     0.012 C 
BRANCH  25  26
HETATM   26  C   UNL     1     -41.265  55.649 -50.575  1.00  0.00     0.041 C 
BRANCH  26  27
HETATM   27  C   UNL     1     -40.778  54.271 -50.896  1.00  0.00    -0.030 A 
HETATM   28  C   UNL     1     -40.579  53.709 -52.197  1.00  0.00    -0.002 A 
HETATM   29  C   UNL     1     -40.133  52.398 -52.023  1.00  0.00     0.042 A 
HETATM   30  C   UNL     1     -40.742  54.191 -53.512  1.00  0.00     0.014 A 
HETATM   31  C   UNL     1     -39.840  51.547 -53.095  1.00  0.00     0.030 A 
HETATM   32  N   UNL     1     -40.063  52.172 -50.668  1.00  0.00    -0.365 N 
HETATM   33  C   UNL     1     -40.007  52.052 -54.387  1.00  0.00     0.002 A 
HETATM   34  C   UNL     1     -40.451  53.355 -54.597  1.00  0.00     0.001 A 
HETATM   35  H   UNL     1     -39.774  51.301 -50.246  1.00  0.00     0.165 HD
HETATM   36  C   UNL     1     -40.445  53.291 -49.981  1.00  0.00     0.096 A 
ENDBRANCH  26  27
ENDBRANCH  25  26
ENDBRANCH  24  25
ENDBRANCH   3  24
TORSDOF 9
ENDMDL
MODEL 8
REMARK VINA RESULT:      -8.0      4.292      9.764
REMARK  9 active torsions:
REMARK  status: ('A' for Active; 'I' for Inactive)
REMARK    1  A    between atoms: C_2  and  O_3 
REMARK    2  A    between atoms: O_3  and  C_4 
REMARK    3  A    between atoms: C_4  and  C_5 
REMARK    4  A    between atoms: C_10  and  C_11 
REMARK       I    between atoms: C_11  and  N_12 
REMARK    5  A    between atoms: N_12  and  C_13 
REMARK    6  A    between atoms: C_15  and  C_16 
REMARK    7  A    between atoms: C_16  and  C_17 
REMARK    8  A    between atoms: C_17  and  C_18 
REMARK    9  A    between atoms: C_18  and  C_19 
ROOT
HETATM    1  C   UNL     1     -42.783  56.058 -55.835  1.00  0.00     0.725 A 
HETATM    2  N   UNL     1     -42.793  56.324 -54.553  1.00  0.00    -0.046 NA
HETATM    3  C   UNL     1     -41.648  55.745 -54.080  1.00  0.00     0.165 A 
HETATM    4  N   UNL     1     -40.901  55.144 -55.013  1.00  0.00    -0.144 NA
HETATM    5  N   UNL     1     -41.642  55.354 -56.115  1.00  0.00    -0.106 N 
HETATM    6  H   UNL     1     -41.315  54.998 -57.002  1.00  0.00     0.208 HD
ENDROOT
BRANCH   1   7
HETATM    7  N   UNL     1     -43.699  56.399 -56.799  1.00  0.00    -0.152 N 
HETATM    8  C   UNL     1     -43.326  57.089 -57.933  1.00  0.00     0.272 C 
HETATM    9  O   UNL     1     -42.220  57.567 -58.156  1.00  0.00    -0.267 OA
HETATM   10  H   UNL     1     -44.671  56.175 -56.670  1.00  0.00     0.187 HD
BRANCH   8  11
HETATM   11  C   UNL     1     -44.417  57.260 -58.915  1.00  0.00     0.063 A 
HETATM   12  C   UNL     1     -44.873  56.340 -59.857  1.00  0.00     0.022 A 
HETATM   13  N   UNL     1     -45.842  56.962 -60.604  1.00  0.00    -0.354 N 
HETATM   14  C   UNL     1     -44.460  54.951 -60.194  1.00  0.00     0.069 C 
HETATM   15  C   UNL     1     -45.971  58.285 -60.251  1.00  0.00     0.115 A 
HETATM   16  H   UNL     1     -46.335  56.553 -61.389  1.00  0.00     0.166 HD
HETATM   17  C   UNL     1     -45.162  58.480 -59.136  1.00  0.00    -0.011 A 
HETATM   18  C   UNL     1     -45.023  59.733 -58.334  1.00  0.00     0.052 C 
BRANCH  15  19
HETATM   19  C   UNL     1     -46.813  59.169 -61.029  1.00  0.00     0.310 C 
HETATM   20  O   UNL     1     -46.401  60.168 -61.606  1.00  0.00    -0.258 OA
BRANCH  19  21
HETATM   21  O   UNL     1     -48.114  58.779 -60.968  1.00  0.00    -0.317 OA
BRANCH  21  22
HETATM   22  C   UNL     1     -48.785  58.622 -62.225  1.00  0.00     0.175 C 
HETATM   23  C   UNL     1     -48.857  57.159 -62.614  1.00  0.00     0.034 C 
ENDBRANCH  21  22
ENDBRANCH  19  21
ENDBRANCH  15  19
ENDBRANCH   8  11
ENDBRANCH   1   7
BRANCH   3  24
HETATM   24  C   UNL     1     -41.302  55.779 -52.637  1.00  0.00     0.083 C 
BRANCH  24  25
HETATM   25  C   UNL     1     -41.641  54.457 -51.949  1.00  0.00     0.012 C 
BRANCH  25  26
HETATM   26  C   UNL     1     -40.538  54.033 -50.979  1.00  0.00     0.041 C 
BRANCH  26  27
HETATM   27  C   UNL     1     -40.272  52.562 -51.047  1.00  0.00    -0.030 A 
HETATM   28  C   UNL     1     -40.009  51.787 -52.221  1.00  0.00    -0.002 A 
HETATM   29  C   UNL     1     -39.836  50.462 -51.817  1.00  0.00     0.042 A 
HETATM   30  C   UNL     1     -39.907  52.086 -53.595  1.00  0.00     0.014 A 
HETATM   31  C   UNL     1     -39.564  49.423 -52.717  1.00  0.00     0.030 A 
HETATM   32  N   UNL     1     -39.987  50.433 -50.450  1.00  0.00    -0.365 N 
HETATM   33  C   UNL     1     -39.465  49.749 -54.072  1.00  0.00     0.002 A 
HETATM   34  C   UNL     1     -39.634  51.061 -54.508  1.00  0.00     0.001 A 
HETATM   35  H   UNL     1     -39.920  49.599 -49.884  1.00  0.00     0.165 HD
HETATM   36  C   UNL     1     -40.246  51.690 -49.976  1.00  0.00     0.096 A 
ENDBRANCH  26  27
ENDBRANCH  25  26
ENDBRANCH  24  25
ENDBRANCH   3  24
TORSDOF 9
ENDMDL
MODEL 9
REMARK VINA RESULT:      -7.9      3.191      8.446
REMARK  9 active torsions:
REMARK  status: ('A' for Active; 'I' for Inactive)
REMARK    1  A    between atoms: C_2  and  O_3 
REMARK    2  A    between atoms: O_3  and  C_4 
REMARK    3  A    between atoms: C_4  and  C_5 
REMARK    4  A    between atoms: C_10  and  C_11 
REMARK       I    between atoms: C_11  and  N_12 
REMARK    5  A    between atoms: N_12  and  C_13 
REMARK    6  A    between atoms: C_15  and  C_16 
REMARK    7  A    between atoms: C_16  and  C_17 
REMARK    8  A    between atoms: C_17  and  C_18 
REMARK    9  A    between atoms: C_18  and  C_19 
ROOT
HETATM    1  C   UNL     1     -40.721  54.403 -54.604  1.00  0.00     0.725 A 
HETATM    2  N   UNL     1     -40.824  54.357 -53.300  1.00  0.00    -0.046 NA
HETATM    3  C   UNL     1     -40.358  53.116 -52.969  1.00  0.00     0.165 A 
HETATM    4  N   UNL     1     -39.939  52.382 -54.006  1.00  0.00    -0.144 NA
HETATM    5  N   UNL     1     -40.182  53.218 -55.030  1.00  0.00    -0.106 N 
HETATM    6  H   UNL     1     -39.959  52.921 -55.970  1.00  0.00     0.208 HD
ENDROOT
BRANCH   1   7
HETATM    7  N   UNL     1     -41.050  55.420 -55.466  1.00  0.00    -0.152 N 
HETATM    8  C   UNL     1     -42.345  55.598 -55.907  1.00  0.00     0.272 C 
HETATM    9  O   UNL     1     -43.288  54.844 -55.698  1.00  0.00    -0.267 OA
HETATM   10  H   UNL     1     -40.334  56.033 -55.816  1.00  0.00     0.187 HD
BRANCH   8  11
HETATM   11  C   UNL     1     -42.535  56.812 -56.727  1.00  0.00     0.063 A 
HETATM   12  C   UNL     1     -42.777  56.891 -58.096  1.00  0.00     0.022 A 
HETATM   13  N   UNL     1     -42.801  58.222 -58.434  1.00  0.00    -0.354 N 
HETATM   14  C   UNL     1     -42.924  55.858 -59.157  1.00  0.00     0.069 C 
HETATM   15  C   UNL     1     -42.486  59.015 -57.355  1.00  0.00     0.115 A 
HETATM   16  H   UNL     1     -42.923  58.591 -59.369  1.00  0.00     0.166 HD
HETATM   17  C   UNL     1     -42.406  58.172 -56.251  1.00  0.00    -0.011 A 
HETATM   18  C   UNL     1     -42.169  58.572 -54.831  1.00  0.00     0.052 C 
BRANCH  15  19
HETATM   19  C   UNL     1     -42.285  60.438 -57.531  1.00  0.00     0.310 C 
HETATM   20  O   UNL     1     -43.191  61.261 -57.507  1.00  0.00    -0.258 OA
BRANCH  19  21
HETATM   21  O   UNL     1     -40.981  60.716 -57.796  1.00  0.00    -0.317 OA
BRANCH  21  22
HETATM   22  C   UNL     1     -40.717  61.990 -58.397  1.00  0.00     0.175 C 
HETATM   23  C   UNL     1     -40.944  61.932 -59.895  1.00  0.00     0.034 C 
ENDBRANCH  21  22
ENDBRANCH  19  21
ENDBRANCH  15  19
ENDBRANCH   8  11
ENDBRANCH   1   7
BRANCH   3  24
HETATM   24  C   UNL     1     -40.350  52.641 -51.562  1.00  0.00     0.083 C 
BRANCH  24  25
HETATM   25  C   UNL     1     -39.969  53.761 -50.595  1.00  0.00     0.012 C 
BRANCH  25  26
HETATM   26  C   UNL     1     -41.087  54.035 -49.589  1.00  0.00     0.041 C 
BRANCH  26  27
HETATM   27  C   UNL     1     -42.172  54.881 -50.177  1.00  0.00    -0.030 A 
HETATM   28  C   UNL     1     -42.103  56.277 -50.489  1.00  0.00    -0.002 A 
HETATM   29  C   UNL     1     -43.345  56.652 -51.002  1.00  0.00     0.042 A 
HETATM   30  C   UNL     1     -41.099  57.261 -50.378  1.00  0.00     0.014 A 
HETATM   31  C   UNL     1     -43.634  57.960 -51.411  1.00  0.00     0.030 A 
HETATM   32  N   UNL     1     -44.139  55.529 -51.003  1.00  0.00    -0.365 N 
HETATM   33  C   UNL     1     -42.620  58.914 -51.294  1.00  0.00     0.002 A 
HETATM   34  C   UNL     1     -41.369  58.573 -50.785  1.00  0.00     0.001 A 
HETATM   35  H   UNL     1     -45.098  55.505 -51.317  1.00  0.00     0.165 HD
HETATM   36  C   UNL     1     -43.443  54.458 -50.512  1.00  0.00     0.096 A 
ENDBRANCH  26  27
ENDBRANCH  25  26
ENDBRANCH  24  25
ENDBRANCH   3  24
TORSDOF 9
ENDMDL
MODEL 10
REMARK VINA RESULT:      -7.9      1.958      2.448
REMARK  9 active torsions:
REMARK  status: ('A' for Active; 'I' for Inactive)
REMARK    1  A    between atoms: C_2  and  O_3 
REMARK    2  A    between atoms: O_3  and  C_4 
REMARK    3  A    between atoms: C_4  and  C_5 
REMARK    4  A    between atoms: C_10  and  C_11 
REMARK       I    between atoms: C_11  and  N_12 
REMARK    5  A    between atoms: N_12  and  C_13 
REMARK    6  A    between atoms: C_15  and  C_16 
REMARK    7  A    between atoms: C_16  and  C_17 
REMARK    8  A    between atoms: C_17  and  C_18 
REMARK    9  A    between atoms: C_18  and  C_19 
ROOT
HETATM    1  C   UNL     1     -44.014  57.140 -53.318  1.00  0.00     0.725 A 
HETATM    2  N   UNL     1     -44.185  57.415 -54.587  1.00  0.00    -0.046 NA
HETATM    3  C   UNL     1     -44.868  58.599 -54.585  1.00  0.00     0.165 A 
HETATM    4  N   UNL     1     -45.116  59.099 -53.368  1.00  0.00    -0.144 NA
HETATM    5  N   UNL     1     -44.567  58.155 -52.584  1.00  0.00    -0.106 N 
HETATM    6  H   UNL     1     -44.606  58.267 -51.580  1.00  0.00     0.208 HD
ENDROOT
BRANCH   1   7
HETATM    7  N   UNL     1     -43.389  56.062 -52.741  1.00  0.00    -0.152 N 
HETATM    8  C   UNL     1     -42.014  55.964 -52.701  1.00  0.00     0.272 C 
HETATM    9  O   UNL     1     -41.221  56.717 -53.253  1.00  0.00    -0.267 OA
HETATM   10  H   UNL     1     -43.937  55.307 -52.364  1.00  0.00     0.187 HD
BRANCH   8  11
HETATM   11  C   UNL     1     -41.520  54.802 -51.934  1.00  0.00     0.063 A 
HETATM   12  C   UNL     1     -41.185  54.748 -50.583  1.00  0.00     0.022 A 
HETATM   13  N   UNL     1     -40.697  53.491 -50.329  1.00  0.00    -0.354 N 
HETATM   14  C   UNL     1     -41.201  55.766 -49.497  1.00  0.00     0.069 C 
HETATM   15  C   UNL     1     -40.608  52.749 -51.484  1.00  0.00     0.115 A 
HETATM   16  H   UNL     1     -40.340  53.164 -49.439  1.00  0.00     0.166 HD
HETATM   17  C   UNL     1     -41.202  53.505 -52.489  1.00  0.00    -0.011 A 
HETATM   18  C   UNL     1     -41.425  53.096 -53.909  1.00  0.00     0.052 C 
BRANCH  15  19
HETATM   19  C   UNL     1     -39.959  51.455 -51.471  1.00  0.00     0.310 C 
HETATM   20  O   UNL     1     -39.896  50.735 -50.482  1.00  0.00    -0.258 OA
BRANCH  19  21
HETATM   21  O   UNL     1     -39.376  51.191 -52.670  1.00  0.00    -0.317 OA
BRANCH  21  22
HETATM   22  C   UNL     1     -39.581  49.873 -53.196  1.00  0.00     0.175 C 
HETATM   23  C   UNL     1     -39.792  49.923 -54.696  1.00  0.00     0.034 C 
ENDBRANCH  21  22
ENDBRANCH  19  21
ENDBRANCH  15  19
ENDBRANCH   8  11
ENDBRANCH   1   7
BRANCH   3  24
HETATM   24  C   UNL     1     -45.306  59.243 -55.849  1.00  0.00     0.083 C 
BRANCH  24  25
HETATM   25  C   UNL     1     -44.132  59.886 -56.586  1.00  0.00     0.012 C 
BRANCH  25  26
HETATM   26  C   UNL     1     -44.135  59.518 -58.070  1.00  0.00     0.041 C 
BRANCH  26  27
HETATM   27  C   UNL     1     -43.710  58.101 -58.294  1.00  0.00    -0.030 A 
HETATM   28  C   UNL     1     -44.425  57.090 -59.014  1.00  0.00    -0.002 A 
HETATM   29  C   UNL     1     -43.666  55.920 -58.956  1.00  0.00     0.042 A 
HETATM   30  C   UNL     1     -45.651  57.059 -59.708  1.00  0.00     0.014 A 
HETATM   31  C   UNL     1     -44.071  54.722 -59.558  1.00  0.00     0.030 A 
HETATM   32  N   UNL     1     -42.534  56.208 -58.229  1.00  0.00    -0.365 N 
HETATM   33  C   UNL     1     -45.289  54.720 -60.242  1.00  0.00     0.002 A 
HETATM   34  C   UNL     1     -46.071  55.871 -60.318  1.00  0.00     0.001 A 
HETATM   35  H   UNL     1     -41.803  55.543 -58.020  1.00  0.00     0.165 HD
HETATM   36  C   UNL     1     -42.549  57.516 -57.829  1.00  0.00     0.096 A 
ENDBRANCH  26  27
ENDBRANCH  25  26
ENDBRANCH  24  25
ENDBRANCH   3  24
TORSDOF 9
ENDMDL
