MODEL 1
REMARK VINA RESULT:      -9.3      0.000      0.000
REMARK  8 active torsions:
REMARK  status: ('A' for Active; 'I' for Inactive)
REMARK    1  A    between atoms: C_4  and  S_5 
REMARK    2  A    between atoms: S_5  and  C_6 
REMARK    3  A    between atoms: C_6  and  C_7 
REMARK       I    between atoms: C_7  and  N_8 
REMARK    4  A    between atoms: N_8  and  C_9 
REMARK    5  A    between atoms: C_20  and  C_21 
REMARK    6  A    between atoms: C_27  and  C_28 
REMARK       I    between atoms: C_28  and  N_29 
REMARK    7  A    between atoms: N_29  and  C_30 
REMARK    8  A    between atoms: C_31  and  O_32 
ROOT
HETATM    1  C   UNL     1     -43.829  54.713 -54.315  1.00  0.00     0.069 C 
HETATM    2  C   UNL     1     -43.153  55.844 -53.573  1.00  0.00     0.019 A 
HETATM    3  N   UNL     1     -42.716  55.529 -52.300  1.00  0.00    -0.353 N 
HETATM    4  C   UNL     1     -42.098  56.389 -51.419  1.00  0.00     0.087 A 
HETATM    5  C   UNL     1     -41.828  57.651 -51.819  1.00  0.00     0.055 A 
HETATM    6  C   UNL     1     -41.287  58.715 -50.878  1.00  0.00     0.019 C 
HETATM    7  N   UNL     1     -40.838  59.598 -50.098  1.00  0.00    -0.096 N 
HETATM    8  C   UNL     1     -42.269  58.158 -53.215  1.00  0.00     0.104 A 
HETATM    9  C   UNL     1     -42.977  57.097 -54.067  1.00  0.00     0.046 A 
HETATM   10  H   UNL     1     -42.753  54.556 -52.013  1.00  0.00     0.166 HD
ENDROOT
BRANCH   4  11
HETATM   11  S   UNL     1     -41.680  55.793 -49.832  1.00  0.00    -0.102 SA
BRANCH  11  12
HETATM   12  C   UNL     1     -40.090  54.946 -50.063  1.00  0.00     0.184 C 
BRANCH  12  13
HETATM   13  C   UNL     1     -40.173  53.486 -50.467  1.00  0.00     0.231 C 
HETATM   14  N   UNL     1     -39.845  53.250 -51.790  1.00  0.00    -0.325 N 
HETATM   15  H   UNL     1     -39.757  54.057 -52.397  1.00  0.00     0.169 HD
HETATM   16  O   UNL     1     -40.502  52.631 -49.650  1.00  0.00    -0.272 OA
BRANCH  14  17
HETATM   17  C   UNL     1     -39.809  51.997 -52.453  1.00  0.00     0.056 A 
HETATM   18  C   UNL     1     -40.081  51.956 -53.833  1.00  0.00     0.060 A 
HETATM   19 CL   UNL     1     -40.411  53.408 -54.717  1.00  0.00    -0.082 Cl
HETATM   20  C   UNL     1     -40.101  50.743 -54.529  1.00  0.00     0.026 A 
HETATM   21  C   UNL     1     -39.832  49.552 -53.856  1.00  0.00     0.002 A 
HETATM   22  C   UNL     1     -39.530  49.581 -52.497  1.00  0.00     0.002 A 
HETATM   23  C   UNL     1     -39.514  50.795 -51.803  1.00  0.00     0.031 A 
ENDBRANCH  14  17
ENDBRANCH  12  13
ENDBRANCH  11  12
ENDBRANCH   4  11
BRANCH   8  24
HETATM   24  C   UNL     1     -43.065  59.455 -53.040  1.00  0.00    -0.044 A 
HETATM   25  C   UNL     1     -44.379  59.410 -52.541  1.00  0.00     0.008 A 
HETATM   26  C   UNL     1     -45.140  60.576 -52.439  1.00  0.00     0.001 A 
HETATM   27  C   UNL     1     -44.596  61.800 -52.823  1.00  0.00     0.000 A 
HETATM   28  C   UNL     1     -43.295  61.859 -53.314  1.00  0.00     0.001 A 
HETATM   29  C   UNL     1     -42.537  60.695 -53.430  1.00  0.00     0.008 A 
ENDBRANCH   8  24
BRANCH   9  30
HETATM   30  C   UNL     1     -43.364  57.341 -55.502  1.00  0.00     0.255 C 
HETATM   31  N   UNL     1     -42.363  57.253 -56.436  1.00  0.00    -0.321 N 
HETATM   32  H   UNL     1     -41.493  56.784 -56.223  1.00  0.00     0.169 HD
HETATM   33  O   UNL     1     -44.535  57.599 -55.780  1.00  0.00    -0.268 OA
BRANCH  31  34
HETATM   34  C   UNL     1     -42.355  57.807 -57.740  1.00  0.00     0.068 A 
HETATM   35  C   UNL     1     -42.639  56.937 -58.815  1.00  0.00     0.095 A 
HETATM   36  C   UNL     1     -42.547  57.404 -60.129  1.00  0.00     0.039 A 
HETATM   37  C   UNL     1     -42.171  58.725 -60.379  1.00  0.00     0.003 A 
HETATM   38  C   UNL     1     -41.899  59.586 -59.319  1.00  0.00     0.002 A 
HETATM   39  C   UNL     1     -41.995  59.132 -58.002  1.00  0.00     0.032 A 
BRANCH  35  40
HETATM   40  O   UNL     1     -42.996  55.658 -58.462  1.00  0.00    -0.354 OA
HETATM   41  C   UNL     1     -43.989  55.020 -59.255  1.00  0.00     0.210 C 
ENDBRANCH  35  40
ENDBRANCH  31  34
ENDBRANCH   9  30
TORSDOF 8
ENDMDL
MODEL 2
REMARK VINA RESULT:      -9.1      2.926      7.560
REMARK  8 active torsions:
REMARK  status: ('A' for Active; 'I' for Inactive)
REMARK    1  A    between atoms: C_4  and  S_5 
REMARK    2  A    between atoms: S_5  and  C_6 
REMARK    3  A    between atoms: C_6  and  C_7 
REMARK       I    between atoms: C_7  and  N_8 
REMARK    4  A    between atoms: N_8  and  C_9 
REMARK    5  A    between atoms: C_20  and  C_21 
REMARK    6  A    between atoms: C_27  and  C_28 
REMARK       I    between atoms: C_28  and  N_29 
REMARK    7  A    between atoms: N_29  and  C_30 
REMARK    8  A    between atoms: C_31  and  O_32 
ROOT
HETATM    1  C   UNL     1     -42.401  55.683 -56.168  1.00  0.00     0.069 C 
HETATM    2  C   UNL     1     -42.572  56.915 -55.308  1.00  0.00     0.019 A 
HETATM    3  N   UNL     1     -42.869  58.074 -55.999  1.00  0.00    -0.353 N 
HETATM    4  C   UNL     1     -43.045  59.325 -55.448  1.00  0.00     0.087 A 
HETATM    5  C   UNL     1     -42.983  59.462 -54.106  1.00  0.00     0.055 A 
HETATM    6  C   UNL     1     -43.016  60.815 -53.414  1.00  0.00     0.019 C 
HETATM    7  N   UNL     1     -43.042  61.937 -52.839  1.00  0.00    -0.096 N 
HETATM    8  C   UNL     1     -42.645  58.255 -53.195  1.00  0.00     0.104 A 
HETATM    9  C   UNL     1     -42.440  56.939 -53.956  1.00  0.00     0.046 A 
HETATM   10  H   UNL     1     -43.081  57.995 -56.989  1.00  0.00     0.166 HD
ENDROOT
BRANCH   4  11
HETATM   11  S   UNL     1     -43.357  60.668 -56.520  1.00  0.00    -0.102 SA
BRANCH  11  12
HETATM   12  C   UNL     1     -45.024  60.357 -57.172  1.00  0.00     0.184 C 
BRANCH  12  13
HETATM   13  C   UNL     1     -45.311  58.928 -57.594  1.00  0.00     0.231 C 
HETATM   14  N   UNL     1     -44.780  58.589 -58.825  1.00  0.00    -0.325 N 
HETATM   15  H   UNL     1     -44.414  59.342 -59.397  1.00  0.00     0.169 HD
HETATM   16  O   UNL     1     -45.959  58.182 -56.865  1.00  0.00    -0.272 OA
BRANCH  14  17
HETATM   17  C   UNL     1     -44.860  57.330 -59.475  1.00  0.00     0.056 A 
HETATM   18  C   UNL     1     -45.989  57.052 -60.268  1.00  0.00     0.060 A 
HETATM   19 CL   UNL     1     -47.237  58.233 -60.483  1.00  0.00    -0.082 Cl
HETATM   20  C   UNL     1     -46.140  55.812 -60.896  1.00  0.00     0.026 A 
HETATM   21  C   UNL     1     -45.154  54.837 -60.756  1.00  0.00     0.002 A 
HETATM   22  C   UNL     1     -44.017  55.110 -60.001  1.00  0.00     0.002 A 
HETATM   23  C   UNL     1     -43.869  56.350 -59.370  1.00  0.00     0.031 A 
ENDBRANCH  14  17
ENDBRANCH  12  13
ENDBRANCH  11  12
ENDBRANCH   4  11
BRANCH   8  24
HETATM   24  C   UNL     1     -41.477  58.639 -52.281  1.00  0.00    -0.044 A 
HETATM   25  C   UNL     1     -41.714  58.937 -50.928  1.00  0.00     0.008 A 
HETATM   26  C   UNL     1     -40.670  59.353 -50.099  1.00  0.00     0.001 A 
HETATM   27  C   UNL     1     -39.378  59.464 -50.607  1.00  0.00     0.000 A 
HETATM   28  C   UNL     1     -39.129  59.167 -51.944  1.00  0.00     0.001 A 
HETATM   29  C   UNL     1     -40.171  58.765 -52.778  1.00  0.00     0.008 A 
ENDBRANCH   8  24
BRANCH   9  30
HETATM   30  C   UNL     1     -42.239  55.623 -53.251  1.00  0.00     0.255 C 
HETATM   31  N   UNL     1     -40.958  55.132 -53.212  1.00  0.00    -0.321 N 
HETATM   32  H   UNL     1     -40.165  55.733 -53.390  1.00  0.00     0.169 HD
HETATM   33  O   UNL     1     -43.204  55.052 -52.744  1.00  0.00    -0.268 OA
BRANCH  31  34
HETATM   34  C   UNL     1     -40.561  53.791 -52.987  1.00  0.00     0.068 A 
HETATM   35  C   UNL     1     -40.224  53.429 -51.665  1.00  0.00     0.095 A 
HETATM   36  C   UNL     1     -39.729  52.149 -51.400  1.00  0.00     0.039 A 
HETATM   37  C   UNL     1     -39.563  51.232 -52.439  1.00  0.00     0.003 A 
HETATM   38  C   UNL     1     -39.903  51.586 -53.743  1.00  0.00     0.002 A 
HETATM   39  C   UNL     1     -40.405  52.860 -54.018  1.00  0.00     0.032 A 
BRANCH  35  40
HETATM   40  O   UNL     1     -40.422  54.403 -50.716  1.00  0.00    -0.354 OA
HETATM   41  C   UNL     1     -39.691  54.285 -49.503  1.00  0.00     0.210 C 
ENDBRANCH  35  40
ENDBRANCH  31  34
ENDBRANCH   9  30
TORSDOF 8
ENDMDL
MODEL 3
REMARK VINA RESULT:      -9.0      3.021      8.332
REMARK  8 active torsions:
REMARK  status: ('A' for Active; 'I' for Inactive)
REMARK    1  A    between atoms: C_4  and  S_5 
REMARK    2  A    between atoms: S_5  and  C_6 
REMARK    3  A    between atoms: C_6  and  C_7 
REMARK       I    between atoms: C_7  and  N_8 
REMARK    4  A    between atoms: N_8  and  C_9 
REMARK    5  A    between atoms: C_20  and  C_21 
REMARK    6  A    between atoms: C_27  and  C_28 
REMARK       I    between atoms: C_28  and  N_29 
REMARK    7  A    between atoms: N_29  and  C_30 
REMARK    8  A    between atoms: C_31  and  O_32 
ROOT
HETATM    1  C   UNL     1     -43.176  54.375 -56.027  1.00  0.00     0.069 C 
HETATM    2  C   UNL     1     -43.392  55.637 -55.222  1.00  0.00     0.019 A 
HETATM    3  N   UNL     1     -43.977  56.679 -55.915  1.00  0.00    -0.353 N 
HETATM    4  C   UNL     1     -44.253  57.933 -55.415  1.00  0.00     0.087 A 
HETATM    5  C   UNL     1     -43.991  58.189 -54.115  1.00  0.00     0.055 A 
HETATM    6  C   UNL     1     -44.119  59.576 -53.506  1.00  0.00     0.019 C 
HETATM    7  N   UNL     1     -44.225  60.726 -53.001  1.00  0.00    -0.096 N 
HETATM    8  C   UNL     1     -43.322  57.124 -53.210  1.00  0.00     0.104 A 
HETATM    9  C   UNL     1     -43.043  55.792 -53.919  1.00  0.00     0.046 A 
HETATM   10  H   UNL     1     -44.336  56.488 -56.847  1.00  0.00     0.166 HD
ENDROOT
BRANCH   4  11
HETATM   11  S   UNL     1     -44.944  59.123 -56.490  1.00  0.00    -0.102 SA
BRANCH  11  12
HETATM   12  C   UNL     1     -44.392  58.621 -58.146  1.00  0.00     0.184 C 
BRANCH  12  13
HETATM   13  C   UNL     1     -43.050  59.174 -58.590  1.00  0.00     0.231 C 
HETATM   14  N   UNL     1     -43.059  60.534 -58.841  1.00  0.00    -0.325 N 
HETATM   15  H   UNL     1     -43.962  60.993 -58.880  1.00  0.00     0.169 HD
HETATM   16  O   UNL     1     -42.076  58.434 -58.695  1.00  0.00    -0.272 OA
BRANCH  14  17
HETATM   17  C   UNL     1     -41.962  61.337 -59.246  1.00  0.00     0.056 A 
HETATM   18  C   UNL     1     -41.778  61.582 -60.620  1.00  0.00     0.060 A 
HETATM   19 CL   UNL     1     -42.888  60.954 -61.791  1.00  0.00    -0.082 Cl
HETATM   20  C   UNL     1     -40.690  62.331 -61.079  1.00  0.00     0.026 A 
HETATM   21  C   UNL     1     -39.778  62.862 -60.168  1.00  0.00     0.002 A 
HETATM   22  C   UNL     1     -39.966  62.654 -58.804  1.00  0.00     0.002 A 
HETATM   23  C   UNL     1     -41.054  61.902 -58.347  1.00  0.00     0.031 A 
ENDBRANCH  14  17
ENDBRANCH  12  13
ENDBRANCH  11  12
ENDBRANCH   4  11
BRANCH   8  24
HETATM   24  C   UNL     1     -42.093  57.747 -52.540  1.00  0.00    -0.044 A 
HETATM   25  C   UNL     1     -42.068  57.923 -51.146  1.00  0.00     0.008 A 
HETATM   26  C   UNL     1     -40.984  58.550 -50.529  1.00  0.00     0.001 A 
HETATM   27  C   UNL     1     -39.908  58.996 -51.293  1.00  0.00     0.000 A 
HETATM   28  C   UNL     1     -39.918  58.823 -52.674  1.00  0.00     0.001 A 
HETATM   29  C   UNL     1     -41.005  58.209 -53.295  1.00  0.00     0.008 A 
ENDBRANCH   8  24
BRANCH   9  30
HETATM   30  C   UNL     1     -42.524  54.582 -53.187  1.00  0.00     0.255 C 
HETATM   31  N   UNL     1     -41.255  54.167 -53.500  1.00  0.00    -0.321 N 
HETATM   32  H   UNL     1     -40.608  54.783 -53.972  1.00  0.00     0.169 HD
HETATM   33  O   UNL     1     -43.237  54.026 -52.351  1.00  0.00    -0.268 OA
BRANCH  31  34
HETATM   34  C   UNL     1     -40.693  52.885 -53.280  1.00  0.00     0.068 A 
HETATM   35  C   UNL     1     -40.010  52.679 -52.062  1.00  0.00     0.095 A 
HETATM   36  C   UNL     1     -39.349  51.468 -51.833  1.00  0.00     0.039 A 
HETATM   37  C   UNL     1     -39.361  50.468 -52.805  1.00  0.00     0.003 A 
HETATM   38  C   UNL     1     -40.042  50.668 -54.004  1.00  0.00     0.002 A 
HETATM   39  C   UNL     1     -40.711  51.870 -54.240  1.00  0.00     0.032 A 
BRANCH  35  40
HETATM   40  O   UNL     1     -40.056  53.725 -51.172  1.00  0.00    -0.354 OA
HETATM   41  C   UNL     1     -40.430  53.424 -49.835  1.00  0.00     0.210 C 
ENDBRANCH  35  40
ENDBRANCH  31  34
ENDBRANCH   9  30
TORSDOF 8
ENDMDL
MODEL 4
REMARK VINA RESULT:      -9.0      2.874      8.006
REMARK  8 active torsions:
REMARK  status: ('A' for Active; 'I' for Inactive)
REMARK    1  A    between atoms: C_4  and  S_5 
REMARK    2  A    between atoms: S_5  and  C_6 
REMARK    3  A    between atoms: C_6  and  C_7 
REMARK       I    between atoms: C_7  and  N_8 
REMARK    4  A    between atoms: N_8  and  C_9 
REMARK    5  A    between atoms: C_20  and  C_21 
REMARK    6  A    between atoms: C_27  and  C_28 
REMARK       I    between atoms: C_28  and  N_29 
REMARK    7  A    between atoms: N_29  and  C_30 
REMARK    8  A    between atoms: C_31  and  O_32 
ROOT
HETATM    1  C   UNL     1     -42.103  55.331 -56.407  1.00  0.00     0.069 C 
HETATM    2  C   UNL     1     -42.325  56.602 -55.618  1.00  0.00     0.019 A 
HETATM    3  N   UNL     1     -42.553  57.731 -56.381  1.00  0.00    -0.353 N 
HETATM    4  C   UNL     1     -42.755  59.006 -55.901  1.00  0.00     0.087 A 
HETATM    5  C   UNL     1     -42.795  59.203 -54.565  1.00  0.00     0.055 A 
HETATM    6  C   UNL     1     -42.864  60.586 -53.938  1.00  0.00     0.019 C 
HETATM    7  N   UNL     1     -42.921  61.733 -53.417  1.00  0.00    -0.096 N 
HETATM    8  C   UNL     1     -42.544  58.036 -53.579  1.00  0.00     0.104 A 
HETATM    9  C   UNL     1     -42.297  56.685 -54.262  1.00  0.00     0.046 A 
HETATM   10  H   UNL     1     -42.689  57.609 -57.380  1.00  0.00     0.166 HD
ENDROOT
BRANCH   4  11
HETATM   11  S   UNL     1     -42.966  60.303 -57.052  1.00  0.00    -0.102 SA
BRANCH  11  12
HETATM   12  C   UNL     1     -42.235  59.674 -58.592  1.00  0.00     0.184 C 
BRANCH  12  13
HETATM   13  C   UNL     1     -43.217  59.149 -59.622  1.00  0.00     0.231 C 
HETATM   14  N   UNL     1     -44.249  58.401 -59.083  1.00  0.00    -0.325 N 
HETATM   15  H   UNL     1     -44.166  58.128 -58.110  1.00  0.00     0.169 HD
HETATM   16  O   UNL     1     -43.064  59.400 -60.814  1.00  0.00    -0.272 OA
BRANCH  14  17
HETATM   17  C   UNL     1     -45.326  57.799 -59.783  1.00  0.00     0.056 A 
HETATM   18  C   UNL     1     -45.233  56.436 -60.119  1.00  0.00     0.060 A 
HETATM   19 CL   UNL     1     -43.855  55.497 -59.652  1.00  0.00    -0.082 Cl
HETATM   20  C   UNL     1     -46.246  55.802 -60.846  1.00  0.00     0.026 A 
HETATM   21  C   UNL     1     -47.377  56.519 -61.232  1.00  0.00     0.002 A 
HETATM   22  C   UNL     1     -47.497  57.861 -60.880  1.00  0.00     0.002 A 
HETATM   23  C   UNL     1     -46.481  58.494 -60.155  1.00  0.00     0.031 A 
ENDBRANCH  14  17
ENDBRANCH  12  13
ENDBRANCH  11  12
ENDBRANCH   4  11
BRANCH   8  24
HETATM   24  C   UNL     1     -41.445  58.449 -52.594  1.00  0.00    -0.044 A 
HETATM   25  C   UNL     1     -41.763  58.679 -51.244  1.00  0.00     0.008 A 
HETATM   26  C   UNL     1     -40.787  59.121 -50.350  1.00  0.00     0.001 A 
HETATM   27  C   UNL     1     -39.480  59.327 -50.789  1.00  0.00     0.000 A 
HETATM   28  C   UNL     1     -39.151  59.099 -52.122  1.00  0.00     0.001 A 
HETATM   29  C   UNL     1     -40.127  58.670 -53.021  1.00  0.00     0.008 A 
ENDBRANCH   8  24
BRANCH   9  30
HETATM   30  C   UNL     1     -42.167  55.400 -53.487  1.00  0.00     0.255 C 
HETATM   31  N   UNL     1     -40.898  54.914 -53.303  1.00  0.00    -0.321 N 
HETATM   32  H   UNL     1     -40.090  55.510 -53.426  1.00  0.00     0.169 HD
HETATM   33  O   UNL     1     -43.178  54.848 -53.053  1.00  0.00    -0.268 OA
BRANCH  31  34
HETATM   34  C   UNL     1     -40.525  53.585 -52.984  1.00  0.00     0.068 A 
HETATM   35  C   UNL     1     -40.230  53.303 -51.633  1.00  0.00     0.095 A 
HETATM   36  C   UNL     1     -39.760  52.035 -51.275  1.00  0.00     0.039 A 
HETATM   37  C   UNL     1     -39.580  51.054 -52.250  1.00  0.00     0.003 A 
HETATM   38  C   UNL     1     -39.879  51.330 -53.583  1.00  0.00     0.002 A 
HETATM   39  C   UNL     1     -40.356  52.590 -53.950  1.00  0.00     0.032 A 
BRANCH  35  40
HETATM   40  O   UNL     1     -40.439  54.336 -50.752  1.00  0.00    -0.354 OA
HETATM   41  C   UNL     1     -39.710  54.307 -49.532  1.00  0.00     0.210 C 
ENDBRANCH  35  40
ENDBRANCH  31  34
ENDBRANCH   9  30
TORSDOF 8
ENDMDL
MODEL 5
REMARK VINA RESULT:      -8.5      2.747      6.954
REMARK  8 active torsions:
REMARK  status: ('A' for Active; 'I' for Inactive)
REMARK    1  A    between atoms: C_4  and  S_5 
REMARK    2  A    between atoms: S_5  and  C_6 
REMARK    3  A    between atoms: C_6  and  C_7 
REMARK       I    between atoms: C_7  and  N_8 
REMARK    4  A    between atoms: N_8  and  C_9 
REMARK    5  A    between atoms: C_20  and  C_21 
REMARK    6  A    between atoms: C_27  and  C_28 
REMARK       I    between atoms: C_28  and  N_29 
REMARK    7  A    between atoms: N_29  and  C_30 
REMARK    8  A    between atoms: C_31  and  O_32 
ROOT
HETATM    1  C   UNL     1     -42.148  59.704 -55.606  1.00  0.00     0.069 C 
HETATM    2  C   UNL     1     -41.981  58.676 -54.510  1.00  0.00     0.019 A 
HETATM    3  N   UNL     1     -41.298  59.118 -53.394  1.00  0.00    -0.353 N 
HETATM    4  C   UNL     1     -40.996  58.368 -52.278  1.00  0.00     0.087 A 
HETATM    5  C   UNL     1     -41.437  57.093 -52.208  1.00  0.00     0.055 A 
HETATM    6  C   UNL     1     -41.034  56.141 -51.094  1.00  0.00     0.019 C 
HETATM    7  N   UNL     1     -40.699  55.352 -50.171  1.00  0.00    -0.096 N 
HETATM    8  C   UNL     1     -42.207  56.450 -53.389  1.00  0.00     0.104 A 
HETATM    9  C   UNL     1     -42.436  57.397 -54.573  1.00  0.00     0.046 A 
HETATM   10  H   UNL     1     -41.083  60.109 -53.330  1.00  0.00     0.166 HD
ENDROOT
BRANCH   4  11
HETATM   11  S   UNL     1     -40.067  59.116 -51.002  1.00  0.00    -0.102 SA
BRANCH  11  12
HETATM   12  C   UNL     1     -41.310  59.833 -49.889  1.00  0.00     0.184 C 
BRANCH  12  13
HETATM   13  C   UNL     1     -42.414  60.631 -50.560  1.00  0.00     0.231 C 
HETATM   14  N   UNL     1     -43.685  60.313 -50.115  1.00  0.00    -0.325 N 
HETATM   15  H   UNL     1     -43.781  59.486 -49.537  1.00  0.00     0.169 HD
HETATM   16  O   UNL     1     -42.144  61.474 -51.410  1.00  0.00    -0.272 OA
BRANCH  14  17
HETATM   17  C   UNL     1     -44.908  60.897 -50.534  1.00  0.00     0.056 A 
HETATM   18  C   UNL     1     -45.577  60.340 -51.639  1.00  0.00     0.060 A 
HETATM   19 CL   UNL     1     -44.947  58.945 -52.449  1.00  0.00    -0.082 Cl
HETATM   20  C   UNL     1     -46.764  60.901 -52.121  1.00  0.00     0.026 A 
HETATM   21  C   UNL     1     -47.311  62.018 -51.491  1.00  0.00     0.002 A 
HETATM   22  C   UNL     1     -46.676  62.561 -50.377  1.00  0.00     0.002 A 
HETATM   23  C   UNL     1     -45.486  62.000 -49.898  1.00  0.00     0.031 A 
ENDBRANCH  14  17
ENDBRANCH  12  13
ENDBRANCH  11  12
ENDBRANCH   4  11
BRANCH   8  24
HETATM   24  C   UNL     1     -41.523  55.131 -53.764  1.00  0.00    -0.044 A 
HETATM   25  C   UNL     1     -40.375  55.142 -54.575  1.00  0.00     0.008 A 
HETATM   26  C   UNL     1     -39.780  53.946 -54.979  1.00  0.00     0.001 A 
HETATM   27  C   UNL     1     -40.317  52.727 -54.571  1.00  0.00     0.000 A 
HETATM   28  C   UNL     1     -41.450  52.702 -53.763  1.00  0.00     0.001 A 
HETATM   29  C   UNL     1     -42.054  53.894 -53.368  1.00  0.00     0.008 A 
ENDBRANCH   8  24
BRANCH   9  30
HETATM   30  C   UNL     1     -43.278  57.014 -55.762  1.00  0.00     0.255 C 
HETATM   31  N   UNL     1     -42.642  56.361 -56.786  1.00  0.00    -0.321 N 
HETATM   32  H   UNL     1     -41.745  55.916 -56.642  1.00  0.00     0.169 HD
HETATM   33  O   UNL     1     -44.478  57.289 -55.769  1.00  0.00    -0.268 OA
BRANCH  31  34
HETATM   34  C   UNL     1     -43.072  56.250 -58.132  1.00  0.00     0.068 A 
HETATM   35  C   UNL     1     -42.732  57.303 -59.008  1.00  0.00     0.095 A 
HETATM   36  C   UNL     1     -43.215  57.298 -60.320  1.00  0.00     0.039 A 
HETATM   37  C   UNL     1     -44.032  56.257 -60.762  1.00  0.00     0.003 A 
HETATM   38  C   UNL     1     -44.361  55.213 -59.900  1.00  0.00     0.002 A 
HETATM   39  C   UNL     1     -43.879  55.205 -58.590  1.00  0.00     0.032 A 
BRANCH  35  40
HETATM   40  O   UNL     1     -41.925  58.279 -58.475  1.00  0.00    -0.354 OA
HETATM   41  C   UNL     1     -41.930  59.548 -59.117  1.00  0.00     0.210 C 
ENDBRANCH  35  40
ENDBRANCH  31  34
ENDBRANCH   9  30
TORSDOF 8
ENDMDL
MODEL 6
REMARK VINA RESULT:      -8.4      3.551      8.508
REMARK  8 active torsions:
REMARK  status: ('A' for Active; 'I' for Inactive)
REMARK    1  A    between atoms: C_4  and  S_5 
REMARK    2  A    between atoms: S_5  and  C_6 
REMARK    3  A    between atoms: C_6  and  C_7 
REMARK       I    between atoms: C_7  and  N_8 
REMARK    4  A    between atoms: N_8  and  C_9 
REMARK    5  A    between atoms: C_20  and  C_21 
REMARK    6  A    between atoms: C_27  and  C_28 
REMARK       I    between atoms: C_28  and  N_29 
REMARK    7  A    between atoms: N_29  and  C_30 
REMARK    8  A    between atoms: C_31  and  O_32 
ROOT
HETATM    1  C   UNL     1     -41.494  55.150 -49.135  1.00  0.00     0.069 C 
HETATM    2  C   UNL     1     -41.399  56.041 -50.353  1.00  0.00     0.019 A 
HETATM    3  N   UNL     1     -41.250  57.388 -50.082  1.00  0.00    -0.353 N 
HETATM    4  C   UNL     1     -41.168  58.399 -51.014  1.00  0.00     0.087 A 
HETATM    5  C   UNL     1     -41.177  58.080 -52.326  1.00  0.00     0.055 A 
HETATM    6  C   UNL     1     -41.240  59.126 -53.428  1.00  0.00     0.019 C 
HETATM    7  N   UNL     1     -41.293  59.992 -54.341  1.00  0.00    -0.096 N 
HETATM    8  C   UNL     1     -41.352  56.612 -52.789  1.00  0.00     0.104 A 
HETATM    9  C   UNL     1     -41.466  55.605 -51.638  1.00  0.00     0.046 A 
HETATM   10  H   UNL     1     -41.080  57.662 -49.118  1.00  0.00     0.166 HD
ENDROOT
BRANCH   4  11
HETATM   11  S   UNL     1     -41.040  60.045 -50.444  1.00  0.00    -0.102 SA
BRANCH  11  12
HETATM   12  C   UNL     1     -42.553  60.856 -51.038  1.00  0.00     0.184 C 
BRANCH  12  13
HETATM   13  C   UNL     1     -43.789  60.653 -50.182  1.00  0.00     0.231 C 
HETATM   14  N   UNL     1     -43.915  61.568 -49.152  1.00  0.00    -0.325 N 
HETATM   15  H   UNL     1     -43.114  62.158 -48.955  1.00  0.00     0.169 HD
HETATM   16  O   UNL     1     -44.576  59.744 -50.430  1.00  0.00    -0.272 OA
BRANCH  14  17
HETATM   17  C   UNL     1     -44.966  61.650 -48.203  1.00  0.00     0.056 A 
HETATM   18  C   UNL     1     -46.108  62.406 -48.526  1.00  0.00     0.060 A 
HETATM   19 CL   UNL     1     -46.252  63.185 -50.065  1.00  0.00    -0.082 Cl
HETATM   20  C   UNL     1     -47.155  62.556 -47.611  1.00  0.00     0.026 A 
HETATM   21  C   UNL     1     -47.083  61.936 -46.364  1.00  0.00     0.002 A 
HETATM   22  C   UNL     1     -45.973  61.160 -46.044  1.00  0.00     0.002 A 
HETATM   23  C   UNL     1     -44.925  61.014 -46.959  1.00  0.00     0.031 A 
ENDBRANCH  14  17
ENDBRANCH  12  13
ENDBRANCH  11  12
ENDBRANCH   4  11
BRANCH   8  24
HETATM   24  C   UNL     1     -42.505  56.547 -53.796  1.00  0.00    -0.044 A 
HETATM   25  C   UNL     1     -42.253  56.177 -55.129  1.00  0.00     0.008 A 
HETATM   26  C   UNL     1     -43.281  56.178 -56.073  1.00  0.00     0.001 A 
HETATM   27  C   UNL     1     -44.574  56.535 -55.696  1.00  0.00     0.000 A 
HETATM   28  C   UNL     1     -44.838  56.898 -54.378  1.00  0.00     0.001 A 
HETATM   29  C   UNL     1     -43.811  56.912 -53.436  1.00  0.00     0.008 A 
ENDBRANCH   8  24
BRANCH   9  30
HETATM   30  C   UNL     1     -41.505  54.117 -51.868  1.00  0.00     0.255 C 
HETATM   31  N   UNL     1     -40.314  53.506 -52.166  1.00  0.00    -0.321 N 
HETATM   32  H   UNL     1     -39.432  53.961 -51.969  1.00  0.00     0.169 HD
HETATM   33  O   UNL     1     -42.576  53.517 -51.778  1.00  0.00    -0.268 OA
BRANCH  31  34
HETATM   34  C   UNL     1     -40.128  52.253 -52.800  1.00  0.00     0.068 A 
HETATM   35  C   UNL     1     -39.751  51.164 -51.985  1.00  0.00     0.095 A 
HETATM   36  C   UNL     1     -39.455  49.929 -52.568  1.00  0.00     0.039 A 
HETATM   37  C   UNL     1     -39.528  49.772 -53.953  1.00  0.00     0.003 A 
HETATM   38  C   UNL     1     -39.908  50.844 -54.758  1.00  0.00     0.002 A 
HETATM   39  C   UNL     1     -40.212  52.080 -54.185  1.00  0.00     0.032 A 
BRANCH  35  40
HETATM   40  O   UNL     1     -39.707  51.423 -50.636  1.00  0.00    -0.354 OA
HETATM   41  C   UNL     1     -40.457  50.564 -49.786  1.00  0.00     0.210 C 
ENDBRANCH  35  40
ENDBRANCH  31  34
ENDBRANCH   9  30
TORSDOF 8
ENDMDL
MODEL 7
REMARK VINA RESULT:      -8.2      3.905      8.655
REMARK  8 active torsions:
REMARK  status: ('A' for Active; 'I' for Inactive)
REMARK    1  A    between atoms: C_4  and  S_5 
REMARK    2  A    between atoms: S_5  and  C_6 
REMARK    3  A    between atoms: C_6  and  C_7 
REMARK       I    between atoms: C_7  and  N_8 
REMARK    4  A    between atoms: N_8  and  C_9 
REMARK    5  A    between atoms: C_20  and  C_21 
REMARK    6  A    between atoms: C_27  and  C_28 
REMARK       I    between atoms: C_28  and  N_29 
REMARK    7  A    between atoms: N_29  and  C_30 
REMARK    8  A    between atoms: C_31  and  O_32 
ROOT
HETATM    1  C   UNL     1     -44.098  56.639 -50.989  1.00  0.00     0.069 C 
HETATM    2  C   UNL     1     -43.588  57.409 -52.186  1.00  0.00     0.019 A 
HETATM    3  N   UNL     1     -43.731  58.781 -52.102  1.00  0.00    -0.353 N 
HETATM    4  C   UNL     1     -43.371  59.695 -53.068  1.00  0.00     0.087 A 
HETATM    5  C   UNL     1     -42.769  59.252 -54.194  1.00  0.00     0.055 A 
HETATM    6  C   UNL     1     -42.469  60.157 -55.378  1.00  0.00     0.019 C 
HETATM    7  N   UNL     1     -42.220  60.907 -56.360  1.00  0.00    -0.096 N 
HETATM    8  C   UNL     1     -42.551  57.738 -54.440  1.00  0.00     0.104 A 
HETATM    9  C   UNL     1     -43.036  56.844 -53.292  1.00  0.00     0.046 A 
HETATM   10  H   UNL     1     -44.031  59.174 -51.215  1.00  0.00     0.166 HD
ENDROOT
BRANCH   4  11
HETATM   11  S   UNL     1     -43.698  61.385 -52.776  1.00  0.00    -0.102 SA
BRANCH  11  12
HETATM   12  C   UNL     1     -45.457  61.441 -52.324  1.00  0.00     0.184 C 
BRANCH  12  13
HETATM   13  C   UNL     1     -45.780  61.078 -50.886  1.00  0.00     0.231 C 
HETATM   14  N   UNL     1     -45.476  62.073 -49.975  1.00  0.00    -0.325 N 
HETATM   15  H   UNL     1     -44.922  62.854 -50.308  1.00  0.00     0.169 HD
HETATM   16  O   UNL     1     -46.271  59.986 -50.615  1.00  0.00    -0.272 OA
BRANCH  14  17
HETATM   17  C   UNL     1     -45.681  62.041 -48.571  1.00  0.00     0.056 A 
HETATM   18  C   UNL     1     -46.811  62.690 -48.040  1.00  0.00     0.060 A 
HETATM   19 CL   UNL     1     -47.953  63.478 -49.077  1.00  0.00    -0.082 Cl
HETATM   20  C   UNL     1     -47.039  62.727 -46.661  1.00  0.00     0.026 A 
HETATM   21  C   UNL     1     -46.149  62.096 -45.792  1.00  0.00     0.002 A 
HETATM   22  C   UNL     1     -45.044  61.423 -46.307  1.00  0.00     0.002 A 
HETATM   23  C   UNL     1     -44.816  61.391 -47.687  1.00  0.00     0.031 A 
ENDBRANCH  14  17
ENDBRANCH  12  13
ENDBRANCH  11  12
ENDBRANCH   4  11
BRANCH   8  24
HETATM   24  C   UNL     1     -43.134  57.372 -55.809  1.00  0.00    -0.044 A 
HETATM   25  C   UNL     1     -42.406  56.545 -56.682  1.00  0.00     0.008 A 
HETATM   26  C   UNL     1     -42.893  56.257 -57.958  1.00  0.00     0.001 A 
HETATM   27  C   UNL     1     -44.116  56.780 -58.373  1.00  0.00     0.000 A 
HETATM   28  C   UNL     1     -44.849  57.596 -57.515  1.00  0.00     0.001 A 
HETATM   29  C   UNL     1     -44.359  57.896 -56.246  1.00  0.00     0.008 A 
ENDBRANCH   8  24
BRANCH   9  30
HETATM   30  C   UNL     1     -42.796  55.358 -53.269  1.00  0.00     0.255 C 
HETATM   31  N   UNL     1     -41.596  54.933 -52.757  1.00  0.00    -0.321 N 
HETATM   32  H   UNL     1     -41.033  55.541 -52.178  1.00  0.00     0.169 HD
HETATM   33  O   UNL     1     -43.664  54.596 -53.696  1.00  0.00    -0.268 OA
BRANCH  31  34
HETATM   34  C   UNL     1     -40.964  53.685 -52.977  1.00  0.00     0.068 A 
HETATM   35  C   UNL     1     -40.481  52.995 -51.843  1.00  0.00     0.095 A 
HETATM   36  C   UNL     1     -39.760  51.809 -52.007  1.00  0.00     0.039 A 
HETATM   37  C   UNL     1     -39.514  51.309 -53.286  1.00  0.00     0.003 A 
HETATM   38  C   UNL     1     -39.997  51.984 -54.405  1.00  0.00     0.002 A 
HETATM   39  C   UNL     1     -40.725  53.166 -54.252  1.00  0.00     0.032 A 
BRANCH  35  40
HETATM   40  O   UNL     1     -40.774  53.572 -50.631  1.00  0.00    -0.354 OA
HETATM   41  C   UNL     1     -39.684  54.080 -49.873  1.00  0.00     0.210 C 
ENDBRANCH  35  40
ENDBRANCH  31  34
ENDBRANCH   9  30
TORSDOF 8
ENDMDL
MODEL 8
REMARK VINA RESULT:      -8.1      1.922      2.702
REMARK  8 active torsions:
REMARK  status: ('A' for Active; 'I' for Inactive)
REMARK    1  A    between atoms: C_4  and  S_5 
REMARK    2  A    between atoms: S_5  and  C_6 
REMARK    3  A    between atoms: C_6  and  C_7 
REMARK       I    between atoms: C_7  and  N_8 
REMARK    4  A    between atoms: N_8  and  C_9 
REMARK    5  A    between atoms: C_20  and  C_21 
REMARK    6  A    between atoms: C_27  and  C_28 
REMARK       I    between atoms: C_28  and  N_29 
REMARK    7  A    between atoms: N_29  and  C_30 
REMARK    8  A    between atoms: C_31  and  O_32 
ROOT
HETATM    1  C   UNL     1     -42.453  57.133 -56.278  1.00  0.00     0.069 C 
HETATM    2  C   UNL     1     -42.367  58.099 -55.118  1.00  0.00     0.019 A 
HETATM    3  N   UNL     1     -42.059  57.524 -53.900  1.00  0.00    -0.353 N 
HETATM    4  C   UNL     1     -41.949  58.184 -52.696  1.00  0.00     0.087 A 
HETATM    5  C   UNL     1     -42.096  59.527 -52.671  1.00  0.00     0.055 A 
HETATM    6  C   UNL     1     -42.141  60.327 -51.379  1.00  0.00     0.019 C 
HETATM    7  N   UNL     1     -42.178  60.991 -50.308  1.00  0.00    -0.096 N 
HETATM    8  C   UNL     1     -42.457  60.314 -53.955  1.00  0.00     0.104 A 
HETATM    9  C   UNL     1     -42.581  59.438 -55.209  1.00  0.00     0.046 A 
HETATM   10  H   UNL     1     -41.785  56.546 -53.893  1.00  0.00     0.166 HD
ENDROOT
BRANCH   4  11
HETATM   11  S   UNL     1     -41.608  57.246 -51.263  1.00  0.00    -0.102 SA
BRANCH  11  12
HETATM   12  C   UNL     1     -42.975  56.055 -51.158  1.00  0.00     0.184 C 
BRANCH  12  13
HETATM   13  C   UNL     1     -42.637  54.627 -51.544  1.00  0.00     0.231 C 
HETATM   14  N   UNL     1     -41.346  54.464 -52.014  1.00  0.00    -0.325 N 
HETATM   15  H   UNL     1     -40.818  55.304 -52.222  1.00  0.00     0.169 HD
HETATM   16  O   UNL     1     -43.471  53.734 -51.423  1.00  0.00    -0.272 OA
BRANCH  14  17
HETATM   17  C   UNL     1     -40.732  53.254 -52.430  1.00  0.00     0.056 A 
HETATM   18  C   UNL     1     -40.825  52.882 -53.783  1.00  0.00     0.060 A 
HETATM   19 CL   UNL     1     -41.633  53.897 -54.931  1.00  0.00    -0.082 Cl
HETATM   20  C   UNL     1     -40.276  51.680 -54.240  1.00  0.00     0.026 A 
HETATM   21  C   UNL     1     -39.609  50.839 -53.350  1.00  0.00     0.002 A 
HETATM   22  C   UNL     1     -39.482  51.209 -52.014  1.00  0.00     0.002 A 
HETATM   23  C   UNL     1     -40.035  52.411 -51.559  1.00  0.00     0.031 A 
ENDBRANCH  14  17
ENDBRANCH  12  13
ENDBRANCH  11  12
ENDBRANCH   4  11
BRANCH   8  24
HETATM   24  C   UNL     1     -43.688  61.181 -53.673  1.00  0.00    -0.044 A 
HETATM   25  C   UNL     1     -43.559  62.579 -53.595  1.00  0.00     0.008 A 
HETATM   26  C   UNL     1     -44.658  63.377 -53.273  1.00  0.00     0.001 A 
HETATM   27  C   UNL     1     -45.900  62.792 -53.036  1.00  0.00     0.000 A 
HETATM   28  C   UNL     1     -46.043  61.409 -53.115  1.00  0.00     0.001 A 
HETATM   29  C   UNL     1     -44.945  60.608 -53.424  1.00  0.00     0.008 A 
ENDBRANCH   8  24
BRANCH   9  30
HETATM   30  C   UNL     1     -42.790  60.020 -56.582  1.00  0.00     0.255 C 
HETATM   31  N   UNL     1     -41.720  59.980 -57.440  1.00  0.00    -0.321 N 
HETATM   32  H   UNL     1     -40.941  59.359 -57.271  1.00  0.00     0.169 HD
HETATM   33  O   UNL     1     -43.887  60.492 -56.880  1.00  0.00    -0.268 OA
BRANCH  31  34
HETATM   34  C   UNL     1     -41.515  60.780 -58.591  1.00  0.00     0.068 A 
HETATM   35  C   UNL     1     -41.944  60.254 -59.829  1.00  0.00     0.095 A 
HETATM   36  C   UNL     1     -41.677  60.952 -61.011  1.00  0.00     0.039 A 
HETATM   37  C   UNL     1     -40.985  62.163 -60.968  1.00  0.00     0.003 A 
HETATM   38  C   UNL     1     -40.569  62.687 -59.745  1.00  0.00     0.002 A 
HETATM   39  C   UNL     1     -40.836  62.001 -58.559  1.00  0.00     0.032 A 
BRANCH  35  40
HETATM   40  O   UNL     1     -42.614  59.056 -59.763  1.00  0.00    -0.354 OA
HETATM   41  C   UNL     1     -41.977  57.924 -60.340  1.00  0.00     0.210 C 
ENDBRANCH  35  40
ENDBRANCH  31  34
ENDBRANCH   9  30
TORSDOF 8
ENDMDL
MODEL 9
REMARK VINA RESULT:      -7.9      4.029      9.370
REMARK  8 active torsions:
REMARK  status: ('A' for Active; 'I' for Inactive)
REMARK    1  A    between atoms: C_4  and  S_5 
REMARK    2  A    between atoms: S_5  and  C_6 
REMARK    3  A    between atoms: C_6  and  C_7 
REMARK       I    between atoms: C_7  and  N_8 
REMARK    4  A    between atoms: N_8  and  C_9 
REMARK    5  A    between atoms: C_20  and  C_21 
REMARK    6  A    between atoms: C_27  and  C_28 
REMARK       I    between atoms: C_28  and  N_29 
REMARK    7  A    between atoms: N_29  and  C_30 
REMARK    8  A    between atoms: C_31  and  O_32 
ROOT
HETATM    1  C   UNL     1     -42.599  59.303 -53.997  1.00  0.00     0.069 C 
HETATM    2  C   UNL     1     -42.407  59.142 -55.489  1.00  0.00     0.019 A 
HETATM    3  N   UNL     1     -42.225  60.321 -56.185  1.00  0.00    -0.353 N 
HETATM    4  C   UNL     1     -42.056  60.442 -57.547  1.00  0.00     0.087 A 
HETATM    5  C   UNL     1     -42.005  59.322 -58.301  1.00  0.00     0.055 A 
HETATM    6  C   UNL     1     -41.971  59.352 -59.820  1.00  0.00     0.019 C 
HETATM    7  N   UNL     1     -41.943  59.376 -61.080  1.00  0.00    -0.096 N 
HETATM    8  C   UNL     1     -42.207  57.923 -57.666  1.00  0.00     0.104 A 
HETATM    9  C   UNL     1     -42.419  57.953 -56.146  1.00  0.00     0.046 A 
HETATM   10  H   UNL     1     -42.098  61.175 -55.648  1.00  0.00     0.166 HD
ENDROOT
BRANCH   4  11
HETATM   11  S   UNL     1     -41.901  62.043 -58.226  1.00  0.00    -0.102 SA
BRANCH  11  12
HETATM   12  C   UNL     1     -43.464  62.872 -57.811  1.00  0.00     0.184 C 
BRANCH  12  13
HETATM   13  C   UNL     1     -44.621  62.607 -58.757  1.00  0.00     0.231 C 
HETATM   14  N   UNL     1     -44.993  61.277 -58.830  1.00  0.00    -0.325 N 
HETATM   15  H   UNL     1     -44.372  60.597 -58.405  1.00  0.00     0.169 HD
HETATM   16  O   UNL     1     -45.147  63.531 -59.371  1.00  0.00    -0.272 OA
BRANCH  14  17
HETATM   17  C   UNL     1     -46.045  60.723 -59.604  1.00  0.00     0.056 A 
HETATM   18  C   UNL     1     -47.304  60.546 -59.001  1.00  0.00     0.060 A 
HETATM   19 CL   UNL     1     -47.580  61.031 -57.361  1.00  0.00    -0.082 Cl
HETATM   20  C   UNL     1     -48.365  59.966 -59.703  1.00  0.00     0.026 A 
HETATM   21  C   UNL     1     -48.187  59.570 -61.028  1.00  0.00     0.002 A 
HETATM   22  C   UNL     1     -46.956  59.768 -61.647  1.00  0.00     0.002 A 
HETATM   23  C   UNL     1     -45.895  60.346 -60.942  1.00  0.00     0.031 A 
ENDBRANCH  14  17
ENDBRANCH  12  13
ENDBRANCH  11  12
ENDBRANCH   4  11
BRANCH   8  24
HETATM   24  C   UNL     1     -43.305  57.184 -58.438  1.00  0.00    -0.044 A 
HETATM   25  C   UNL     1     -42.984  56.045 -59.196  1.00  0.00     0.008 A 
HETATM   26  C   UNL     1     -43.960  55.402 -59.958  1.00  0.00     0.001 A 
HETATM   27  C   UNL     1     -45.269  55.879 -59.962  1.00  0.00     0.000 A 
HETATM   28  C   UNL     1     -45.601  57.002 -59.211  1.00  0.00     0.001 A 
HETATM   29  C   UNL     1     -44.626  57.656 -58.460  1.00  0.00     0.008 A 
ENDBRANCH   8  24
BRANCH   9  30
HETATM   30  C   UNL     1     -42.499  56.698 -55.318  1.00  0.00     0.255 C 
HETATM   31  N   UNL     1     -41.336  56.274 -54.725  1.00  0.00    -0.321 N 
HETATM   32  H   UNL     1     -40.550  56.900 -54.614  1.00  0.00     0.169 HD
HETATM   33  O   UNL     1     -43.576  56.116 -55.200  1.00  0.00    -0.268 OA
BRANCH  31  34
HETATM   34  C   UNL     1     -41.041  54.972 -54.252  1.00  0.00     0.068 A 
HETATM   35  C   UNL     1     -41.095  54.763 -52.857  1.00  0.00     0.095 A 
HETATM   36  C   UNL     1     -40.715  53.527 -52.324  1.00  0.00     0.039 A 
HETATM   37  C   UNL     1     -40.281  52.504 -53.168  1.00  0.00     0.003 A 
HETATM   38  C   UNL     1     -40.235  52.707 -54.546  1.00  0.00     0.002 A 
HETATM   39  C   UNL     1     -40.619  53.935 -55.088  1.00  0.00     0.032 A 
BRANCH  35  40
HETATM   40  O   UNL     1     -41.533  55.833 -52.115  1.00  0.00    -0.354 OA
HETATM   41  C   UNL     1     -41.222  55.832 -50.728  1.00  0.00     0.210 C 
ENDBRANCH  35  40
ENDBRANCH  31  34
ENDBRANCH   9  30
TORSDOF 8
ENDMDL
MODEL 10
REMARK VINA RESULT:      -7.7      3.516      5.285
REMARK  8 active torsions:
REMARK  status: ('A' for Active; 'I' for Inactive)
REMARK    1  A    between atoms: C_4  and  S_5 
REMARK    2  A    between atoms: S_5  and  C_6 
REMARK    3  A    between atoms: C_6  and  C_7 
REMARK       I    between atoms: C_7  and  N_8 
REMARK    4  A    between atoms: N_8  and  C_9 
REMARK    5  A    between atoms: C_20  and  C_21 
REMARK    6  A    between atoms: C_27  and  C_28 
REMARK       I    between atoms: C_28  and  N_29 
REMARK    7  A    between atoms: N_29  and  C_30 
REMARK    8  A    between atoms: C_31  and  O_32 
ROOT
HETATM    1  C   UNL     1     -45.332  61.093 -54.994  1.00  0.00     0.069 C 
HETATM    2  C   UNL     1     -44.978  59.654 -55.297  1.00  0.00     0.019 A 
HETATM    3  N   UNL     1     -44.478  58.938 -54.226  1.00  0.00    -0.353 N 
HETATM    4  C   UNL     1     -44.061  57.625 -54.253  1.00  0.00     0.087 A 
HETATM    5  C   UNL     1     -44.187  56.922 -55.400  1.00  0.00     0.055 A 
HETATM    6  C   UNL     1     -43.623  55.522 -55.573  1.00  0.00     0.019 C 
HETATM    7  N   UNL     1     -43.155  54.360 -55.718  1.00  0.00    -0.096 N 
HETATM    8  C   UNL     1     -44.718  57.592 -56.691  1.00  0.00     0.104 A 
HETATM    9  C   UNL     1     -45.108  59.065 -56.514  1.00  0.00     0.046 A 
HETATM   10  H   UNL     1     -44.511  59.371 -53.308  1.00  0.00     0.166 HD
ENDROOT
BRANCH   4  11
HETATM   11  S   UNL     1     -43.405  56.933 -52.789  1.00  0.00    -0.102 SA
BRANCH  11  12
HETATM   12  C   UNL     1     -41.603  57.046 -52.996  1.00  0.00     0.184 C 
BRANCH  12  13
HETATM   13  C   UNL     1     -40.912  55.778 -53.462  1.00  0.00     0.231 C 
HETATM   14  N   UNL     1     -41.136  54.684 -52.645  1.00  0.00    -0.325 N 
HETATM   15  H   UNL     1     -41.575  54.857 -51.747  1.00  0.00     0.169 HD
HETATM   16  O   UNL     1     -40.232  55.779 -54.484  1.00  0.00    -0.272 OA
BRANCH  14  17
HETATM   17  C   UNL     1     -40.647  53.365 -52.827  1.00  0.00     0.056 A 
HETATM   18  C   UNL     1     -40.006  52.729 -51.748  1.00  0.00     0.060 A 
HETATM   19 CL   UNL     1     -39.854  53.519 -50.214  1.00  0.00    -0.082 Cl
HETATM   20  C   UNL     1     -39.467  51.446 -51.884  1.00  0.00     0.026 A 
HETATM   21  C   UNL     1     -39.578  50.771 -53.099  1.00  0.00     0.002 A 
HETATM   22  C   UNL     1     -40.236  51.376 -54.166  1.00  0.00     0.002 A 
HETATM   23  C   UNL     1     -40.772  52.662 -54.028  1.00  0.00     0.031 A 
ENDBRANCH  14  17
ENDBRANCH  12  13
ENDBRANCH  11  12
ENDBRANCH   4  11
BRANCH   8  24
HETATM   24  C   UNL     1     -43.720  57.340 -57.825  1.00  0.00    -0.044 A 
HETATM   25  C   UNL     1     -42.603  58.181 -57.977  1.00  0.00     0.008 A 
HETATM   26  C   UNL     1     -41.722  58.005 -59.044  1.00  0.00     0.001 A 
HETATM   27  C   UNL     1     -41.936  56.982 -59.965  1.00  0.00     0.000 A 
HETATM   28  C   UNL     1     -43.035  56.139 -59.824  1.00  0.00     0.001 A 
HETATM   29  C   UNL     1     -43.925  56.320 -58.766  1.00  0.00     0.008 A 
ENDBRANCH   8  24
BRANCH   9  30
HETATM   30  C   UNL     1     -45.773  59.861 -57.607  1.00  0.00     0.255 C 
HETATM   31  N   UNL     1     -47.033  59.468 -57.979  1.00  0.00    -0.321 N 
HETATM   32  H   UNL     1     -47.591  58.873 -57.380  1.00  0.00     0.169 HD
HETATM   33  O   UNL     1     -45.180  60.815 -58.109  1.00  0.00    -0.268 OA
BRANCH  31  34
HETATM   34  C   UNL     1     -47.699  59.760 -59.195  1.00  0.00     0.068 A 
HETATM   35  C   UNL     1     -47.625  58.793 -60.221  1.00  0.00     0.095 A 
HETATM   36  C   UNL     1     -48.176  59.069 -61.477  1.00  0.00     0.039 A 
HETATM   37  C   UNL     1     -48.793  60.297 -61.716  1.00  0.00     0.003 A 
HETATM   38  C   UNL     1     -48.874  61.248 -60.701  1.00  0.00     0.002 A 
HETATM   39  C   UNL     1     -48.333  60.980 -59.442  1.00  0.00     0.032 A 
BRANCH  35  40
HETATM   40  O   UNL     1     -46.995  57.619 -59.885  1.00  0.00    -0.354 OA
HETATM   41  C   UNL     1     -47.010  56.575 -60.849  1.00  0.00     0.210 C 
ENDBRANCH  35  40
ENDBRANCH  31  34
ENDBRANCH   9  30
TORSDOF 8
ENDMDL
