MODEL 1
REMARK VINA RESULT:      -8.9      0.000      0.000
REMARK  4 active torsions:
REMARK  status: ('A' for Active; 'I' for Inactive)
REMARK    1  A    between atoms: C_2  and  C_3 
REMARK    2  A    between atoms: C_8  and  N_9 
REMARK       I    between atoms: N_9  and  C_10 
REMARK       I    between atoms: C_10  and  N_11 
REMARK    3  A    between atoms: N_11  and  C_12 
REMARK    4  A    between atoms: C_12  and  C_13 
ROOT
HETATM    1  N   UNL     1     -42.397  55.781 -57.920  1.00  0.00    -0.305 N 
HETATM    2  C   UNL     1     -42.533  55.937 -56.564  1.00  0.00     0.321 C 
HETATM    3  N   UNL     1     -41.436  55.443 -55.884  1.00  0.00    -0.339 N 
HETATM    4  O   UNL     1     -43.487  56.427 -55.977  1.00  0.00    -0.247 OA
HETATM    5  H   UNL     1     -41.652  55.175 -58.227  1.00  0.00     0.171 HD
HETATM    6  H   UNL     1     -40.550  55.500 -56.362  1.00  0.00     0.164 HD
ENDROOT
BRANCH   3   7
HETATM    7  C   UNL     1     -41.386  55.634 -54.449  1.00  0.00     0.162 C 
BRANCH   7   8
HETATM    8  C   UNL     1     -40.858  54.428 -53.720  1.00  0.00    -0.040 A 
HETATM    9  C   UNL     1     -40.635  53.219 -54.399  1.00  0.00     0.021 A 
HETATM   10  C   UNL     1     -40.235  52.060 -53.715  1.00  0.00    -0.025 A 
HETATM   11  C   UNL     1     -40.053  52.110 -52.315  1.00  0.00    -0.026 A 
HETATM   12  C   UNL     1     -40.029  50.844 -54.388  1.00  0.00     0.012 A 
HETATM   13  C   UNL     1     -40.263  53.322 -51.640  1.00  0.00     0.013 A 
HETATM   14  C   UNL     1     -39.678  50.945 -51.625  1.00  0.00     0.012 A 
HETATM   15  C   UNL     1     -40.663  54.467 -52.334  1.00  0.00     0.010 A 
HETATM   16  C   UNL     1     -39.485  49.744 -52.309  1.00  0.00     0.001 A 
HETATM   17  C   UNL     1     -39.657  49.694 -53.689  1.00  0.00     0.001 A 
ENDBRANCH   7   8
ENDBRANCH   3   7
BRANCH   1  18
HETATM   18  C   UNL     1     -43.269  56.244 -58.901  1.00  0.00     0.095 A 
HETATM   19  C   UNL     1     -43.311  57.565 -59.308  1.00  0.00     0.107 A 
HETATM   20  O   UNL     1     -44.269  57.720 -60.256  1.00  0.00    -0.215 OA
HETATM   21  N   UNL     1     -44.875  56.514 -60.504  1.00  0.00    -0.131 NA
HETATM   22  C   UNL     1     -44.284  55.623 -59.694  1.00  0.00     0.087 A 
HETATM   23  C   UNL     1     -44.767  54.223 -59.747  1.00  0.00     0.075 C 
BRANCH  19  24
HETATM   24  C   UNL     1     -42.578  58.803 -58.948  1.00  0.00     0.065 C 
HETATM   25  C   UNL     1     -42.147  59.580 -60.182  1.00  0.00     0.012 C 
ENDBRANCH  19  24
ENDBRANCH   1  18
TORSDOF 4
ENDMDL
MODEL 2
REMARK VINA RESULT:      -8.8      0.821      2.151
REMARK  4 active torsions:
REMARK  status: ('A' for Active; 'I' for Inactive)
REMARK    1  A    between atoms: C_2  and  C_3 
REMARK    2  A    between atoms: C_8  and  N_9 
REMARK       I    between atoms: N_9  and  C_10 
REMARK       I    between atoms: C_10  and  N_11 
REMARK    3  A    between atoms: N_11  and  C_12 
REMARK    4  A    between atoms: C_12  and  C_13 
ROOT
HETATM    1  N   UNL     1     -42.185  56.459 -57.494  1.00  0.00    -0.305 N 
HETATM    2  C   UNL     1     -42.472  56.403 -56.154  1.00  0.00     0.321 C 
HETATM    3  N   UNL     1     -41.470  55.766 -55.446  1.00  0.00    -0.339 N 
HETATM    4  O   UNL     1     -43.477  56.830 -55.604  1.00  0.00    -0.247 OA
HETATM    5  H   UNL     1     -41.423  55.881 -57.811  1.00  0.00     0.171 HD
HETATM    6  H   UNL     1     -40.534  55.864 -55.809  1.00  0.00     0.164 HD
ENDROOT
BRANCH   3   7
HETATM    7  C   UNL     1     -41.580  55.726 -54.002  1.00  0.00     0.162 C 
BRANCH   7   8
HETATM    8  C   UNL     1     -40.978  54.481 -53.408  1.00  0.00    -0.040 A 
HETATM    9  C   UNL     1     -40.796  53.329 -54.190  1.00  0.00     0.021 A 
HETATM   10  C   UNL     1     -40.325  52.131 -53.626  1.00  0.00    -0.025 A 
HETATM   11  C   UNL     1     -40.029  52.085 -52.245  1.00  0.00    -0.026 A 
HETATM   12  C   UNL     1     -40.158  50.971 -54.401  1.00  0.00     0.012 A 
HETATM   13  C   UNL     1     -40.200  53.241 -51.470  1.00  0.00     0.013 A 
HETATM   14  C   UNL     1     -39.584  50.881 -51.675  1.00  0.00     0.012 A 
HETATM   15  C   UNL     1     -40.672  54.425 -52.043  1.00  0.00     0.010 A 
HETATM   16  C   UNL     1     -39.431  49.736 -52.457  1.00  0.00     0.001 A 
HETATM   17  C   UNL     1     -39.714  49.781 -53.819  1.00  0.00     0.001 A 
ENDBRANCH   7   8
ENDBRANCH   3   7
BRANCH   1  18
HETATM   18  C   UNL     1     -42.929  57.104 -58.477  1.00  0.00     0.095 A 
HETATM   19  C   UNL     1     -43.704  56.426 -59.401  1.00  0.00     0.107 A 
HETATM   20  O   UNL     1     -44.292  57.313 -60.242  1.00  0.00    -0.215 OA
HETATM   21  N   UNL     1     -43.931  58.591 -59.895  1.00  0.00    -0.131 NA
HETATM   22  C   UNL     1     -43.111  58.474 -58.839  1.00  0.00     0.087 A 
HETATM   23  C   UNL     1     -42.552  59.722 -58.267  1.00  0.00     0.075 C 
BRANCH  19  24
HETATM   24  C   UNL     1     -44.017  55.002 -59.671  1.00  0.00     0.065 C 
HETATM   25  C   UNL     1     -45.067  54.854 -60.761  1.00  0.00     0.012 C 
ENDBRANCH  19  24
ENDBRANCH   1  18
TORSDOF 4
ENDMDL
MODEL 3
REMARK VINA RESULT:      -8.7      1.355      2.670
REMARK  4 active torsions:
REMARK  status: ('A' for Active; 'I' for Inactive)
REMARK    1  A    between atoms: C_2  and  C_3 
REMARK    2  A    between atoms: C_8  and  N_9 
REMARK       I    between atoms: N_9  and  C_10 
REMARK       I    between atoms: C_10  and  N_11 
REMARK    3  A    between atoms: N_11  and  C_12 
REMARK    4  A    between atoms: C_12  and  C_13 
ROOT
HETATM    1  N   UNL     1     -42.459  56.444 -57.129  1.00  0.00    -0.305 N 
HETATM    2  C   UNL     1     -42.375  56.164 -55.789  1.00  0.00     0.321 C 
HETATM    3  N   UNL     1     -41.106  55.751 -55.434  1.00  0.00    -0.339 N 
HETATM    4  O   UNL     1     -43.281  56.238 -54.970  1.00  0.00    -0.247 OA
HETATM    5  H   UNL     1     -41.685  56.134 -57.697  1.00  0.00     0.171 HD
HETATM    6  H   UNL     1     -40.343  56.140 -55.967  1.00  0.00     0.164 HD
ENDROOT
BRANCH   3   7
HETATM    7  C   UNL     1     -40.835  55.523 -54.029  1.00  0.00     0.162 C 
BRANCH   7   8
HETATM    8  C   UNL     1     -40.601  54.071 -53.710  1.00  0.00    -0.040 A 
HETATM    9  C   UNL     1     -40.574  53.624 -52.379  1.00  0.00     0.021 A 
HETATM   10  C   UNL     1     -40.263  52.291 -52.062  1.00  0.00    -0.025 A 
HETATM   11  C   UNL     1     -39.970  51.383 -53.103  1.00  0.00    -0.026 A 
HETATM   12  C   UNL     1     -40.217  51.844 -50.731  1.00  0.00     0.012 A 
HETATM   13  C   UNL     1     -40.010  51.829 -54.433  1.00  0.00     0.013 A 
HETATM   14  C   UNL     1     -39.631  50.057 -52.787  1.00  0.00     0.012 A 
HETATM   15  C   UNL     1     -40.319  53.158 -54.733  1.00  0.00     0.010 A 
HETATM   16  C   UNL     1     -39.584  49.631 -51.459  1.00  0.00     0.001 A 
HETATM   17  C   UNL     1     -39.879  50.523 -50.433  1.00  0.00     0.001 A 
ENDBRANCH   7   8
ENDBRANCH   3   7
BRANCH   1  18
HETATM   18  C   UNL     1     -43.559  56.966 -57.803  1.00  0.00     0.095 A 
HETATM   19  C   UNL     1     -44.168  56.319 -58.862  1.00  0.00     0.107 A 
HETATM   20  O   UNL     1     -45.194  57.074 -59.329  1.00  0.00    -0.215 OA
HETATM   21  N   UNL     1     -45.293  58.228 -58.593  1.00  0.00    -0.131 NA
HETATM   22  C   UNL     1     -44.313  58.172 -57.677  1.00  0.00     0.087 A 
HETATM   23  C   UNL     1     -44.181  59.319 -56.747  1.00  0.00     0.075 C 
BRANCH  19  24
HETATM   24  C   UNL     1     -43.956  55.037 -59.578  1.00  0.00     0.065 C 
HETATM   25  C   UNL     1     -44.903  54.888 -60.758  1.00  0.00     0.012 C 
ENDBRANCH  19  24
ENDBRANCH   1  18
TORSDOF 4
ENDMDL
MODEL 4
REMARK VINA RESULT:      -8.3      1.435      2.173
REMARK  4 active torsions:
REMARK  status: ('A' for Active; 'I' for Inactive)
REMARK    1  A    between atoms: C_2  and  C_3 
REMARK    2  A    between atoms: C_8  and  N_9 
REMARK       I    between atoms: N_9  and  C_10 
REMARK       I    between atoms: C_10  and  N_11 
REMARK    3  A    between atoms: N_11  and  C_12 
REMARK    4  A    between atoms: C_12  and  C_13 
ROOT
HETATM    1  N   UNL     1     -42.205  56.579 -56.982  1.00  0.00    -0.305 N 
HETATM    2  C   UNL     1     -42.256  56.133 -55.686  1.00  0.00     0.321 C 
HETATM    3  N   UNL     1     -40.993  55.875 -55.187  1.00  0.00    -0.339 N 
HETATM    4  O   UNL     1     -43.262  55.950 -55.016  1.00  0.00    -0.247 OA
HETATM    5  H   UNL     1     -41.320  56.475 -57.454  1.00  0.00     0.171 HD
HETATM    6  H   UNL     1     -40.245  56.448 -55.546  1.00  0.00     0.164 HD
ENDROOT
BRANCH   3   7
HETATM    7  C   UNL     1     -40.879  55.500 -53.792  1.00  0.00     0.162 C 
BRANCH   7   8
HETATM    8  C   UNL     1     -40.640  54.025 -53.605  1.00  0.00    -0.040 A 
HETATM    9  C   UNL     1     -40.526  53.474 -52.318  1.00  0.00     0.021 A 
HETATM   10  C   UNL     1     -40.209  52.119 -52.130  1.00  0.00    -0.025 A 
HETATM   11  C   UNL     1     -40.000  51.294 -53.258  1.00  0.00    -0.026 A 
HETATM   12  C   UNL     1     -40.075  51.568 -50.845  1.00  0.00     0.012 A 
HETATM   13  C   UNL     1     -40.128  51.843 -54.542  1.00  0.00     0.013 A 
HETATM   14  C   UNL     1     -39.656  49.945 -53.071  1.00  0.00     0.012 A 
HETATM   15  C   UNL     1     -40.442  53.194 -54.714  1.00  0.00     0.010 A 
HETATM   16  C   UNL     1     -39.521  49.415 -51.787  1.00  0.00     0.001 A 
HETATM   17  C   UNL     1     -39.733  50.225 -50.675  1.00  0.00     0.001 A 
ENDBRANCH   7   8
ENDBRANCH   3   7
BRANCH   1  18
HETATM   18  C   UNL     1     -43.278  57.013 -57.755  1.00  0.00     0.095 A 
HETATM   19  C   UNL     1     -43.893  58.237 -57.567  1.00  0.00     0.107 A 
HETATM   20  O   UNL     1     -44.916  58.373 -58.449  1.00  0.00    -0.215 OA
HETATM   21  N   UNL     1     -44.998  57.254 -59.240  1.00  0.00    -0.131 NA
HETATM   22  C   UNL     1     -44.021  56.432 -58.828  1.00  0.00     0.087 A 
HETATM   23  C   UNL     1     -43.894  55.124 -59.513  1.00  0.00     0.075 C 
BRANCH  19  24
HETATM   24  C   UNL     1     -43.698  59.386 -56.651  1.00  0.00     0.065 C 
HETATM   25  C   UNL     1     -44.527  59.242 -55.384  1.00  0.00     0.012 C 
ENDBRANCH  19  24
ENDBRANCH   1  18
TORSDOF 4
ENDMDL
MODEL 5
REMARK VINA RESULT:      -8.1      4.936      6.251
REMARK  4 active torsions:
REMARK  status: ('A' for Active; 'I' for Inactive)
REMARK    1  A    between atoms: C_2  and  C_3 
REMARK    2  A    between atoms: C_8  and  N_9 
REMARK       I    between atoms: N_9  and  C_10 
REMARK       I    between atoms: C_10  and  N_11 
REMARK    3  A    between atoms: N_11  and  C_12 
REMARK    4  A    between atoms: C_12  and  C_13 
ROOT
HETATM    1  N   UNL     1     -42.676  58.440 -51.084  1.00  0.00    -0.305 N 
HETATM    2  C   UNL     1     -41.548  57.701 -50.832  1.00  0.00     0.321 C 
HETATM    3  N   UNL     1     -41.860  56.453 -50.329  1.00  0.00    -0.339 N 
HETATM    4  O   UNL     1     -40.390  58.059 -50.996  1.00  0.00    -0.247 OA
HETATM    5  H   UNL     1     -43.538  58.082 -50.701  1.00  0.00     0.171 HD
HETATM    6  H   UNL     1     -42.728  56.047 -50.644  1.00  0.00     0.164 HD
ENDROOT
BRANCH   3   7
HETATM    7  C   UNL     1     -40.774  55.517 -50.115  1.00  0.00     0.162 C 
BRANCH   7   8
HETATM    8  C   UNL     1     -40.710  54.450 -51.174  1.00  0.00    -0.040 A 
HETATM    9  C   UNL     1     -40.246  53.161 -50.866  1.00  0.00     0.021 A 
HETATM   10  C   UNL     1     -40.090  52.183 -51.864  1.00  0.00    -0.025 A 
HETATM   11  C   UNL     1     -40.406  52.505 -53.203  1.00  0.00    -0.026 A 
HETATM   12  C   UNL     1     -39.610  50.898 -51.563  1.00  0.00     0.012 A 
HETATM   13  C   UNL     1     -40.881  53.789 -53.505  1.00  0.00     0.013 A 
HETATM   14  C   UNL     1     -40.224  51.537 -54.205  1.00  0.00     0.012 A 
HETATM   15  C   UNL     1     -41.029  54.752 -52.503  1.00  0.00     0.010 A 
HETATM   16  C   UNL     1     -39.740  50.267 -53.890  1.00  0.00     0.001 A 
HETATM   17  C   UNL     1     -39.435  49.947 -52.571  1.00  0.00     0.001 A 
ENDBRANCH   7   8
ENDBRANCH   3   7
BRANCH   1  18
HETATM   18  C   UNL     1     -42.731  59.699 -51.674  1.00  0.00     0.095 A 
HETATM   19  C   UNL     1     -43.251  60.808 -51.032  1.00  0.00     0.107 A 
HETATM   20  O   UNL     1     -43.192  61.882 -51.858  1.00  0.00    -0.215 OA
HETATM   21  N   UNL     1     -42.629  61.517 -53.055  1.00  0.00    -0.131 NA
HETATM   22  C   UNL     1     -42.352  60.208 -52.954  1.00  0.00     0.087 A 
HETATM   23  C   UNL     1     -41.744  59.544 -54.132  1.00  0.00     0.075 C 
BRANCH  19  24
HETATM   24  C   UNL     1     -43.843  61.073 -49.698  1.00  0.00     0.065 C 
HETATM   25  C   UNL     1     -45.289  60.607 -49.621  1.00  0.00     0.012 C 
ENDBRANCH  19  24
ENDBRANCH   1  18
TORSDOF 4
ENDMDL
MODEL 6
REMARK VINA RESULT:      -8.1      2.188      3.087
REMARK  4 active torsions:
REMARK  status: ('A' for Active; 'I' for Inactive)
REMARK    1  A    between atoms: C_2  and  C_3 
REMARK    2  A    between atoms: C_8  and  N_9 
REMARK       I    between atoms: N_9  and  C_10 
REMARK       I    between atoms: C_10  and  N_11 
REMARK    3  A    between atoms: N_11  and  C_12 
REMARK    4  A    between atoms: C_12  and  C_13 
ROOT
HETATM    1  N   UNL     1     -43.695  56.690 -54.392  1.00  0.00    -0.305 N 
HETATM    2  C   UNL     1     -42.536  56.738 -53.660  1.00  0.00     0.321 C 
HETATM    3  N   UNL     1     -42.535  55.797 -52.648  1.00  0.00    -0.339 N 
HETATM    4  O   UNL     1     -41.599  57.505 -53.827  1.00  0.00    -0.247 OA
HETATM    5  H   UNL     1     -44.449  56.148 -53.998  1.00  0.00     0.171 HD
HETATM    6  H   UNL     1     -43.041  54.944 -52.830  1.00  0.00     0.164 HD
ENDROOT
BRANCH   3   7
HETATM    7  C   UNL     1     -41.330  55.654 -51.857  1.00  0.00     0.162 C 
BRANCH   7   8
HETATM    8  C   UNL     1     -40.782  54.252 -51.881  1.00  0.00    -0.040 A 
HETATM    9  C   UNL     1     -40.690  53.539 -53.088  1.00  0.00     0.021 A 
HETATM   10  C   UNL     1     -40.272  52.198 -53.113  1.00  0.00    -0.025 A 
HETATM   11  C   UNL     1     -39.937  51.554 -51.901  1.00  0.00    -0.026 A 
HETATM   12  C   UNL     1     -40.196  51.475 -54.315  1.00  0.00     0.012 A 
HETATM   13  C   UNL     1     -40.017  52.273 -50.699  1.00  0.00     0.013 A 
HETATM   14  C   UNL     1     -39.545  50.206 -51.921  1.00  0.00     0.012 A 
HETATM   15  C   UNL     1     -40.437  53.606 -50.689  1.00  0.00     0.010 A 
HETATM   16  C   UNL     1     -39.481  49.501 -53.124  1.00  0.00     0.001 A 
HETATM   17  C   UNL     1     -39.804  50.135 -54.320  1.00  0.00     0.001 A 
ENDBRANCH   7   8
ENDBRANCH   3   7
BRANCH   1  18
HETATM   18  C   UNL     1     -43.990  57.432 -55.532  1.00  0.00     0.095 A 
HETATM   19  C   UNL     1     -43.682  57.002 -56.809  1.00  0.00     0.107 A 
HETATM   20  O   UNL     1     -44.067  57.939 -57.711  1.00  0.00    -0.215 OA
HETATM   21  N   UNL     1     -44.643  59.001 -57.060  1.00  0.00    -0.131 NA
HETATM   22  C   UNL     1     -44.598  58.707 -55.751  1.00  0.00     0.087 A 
HETATM   23  C   UNL     1     -45.145  59.708 -54.805  1.00  0.00     0.075 C 
BRANCH  19  24
HETATM   24  C   UNL     1     -43.043  55.797 -57.391  1.00  0.00     0.065 C 
HETATM   25  C   UNL     1     -43.146  55.781 -58.907  1.00  0.00     0.012 C 
ENDBRANCH  19  24
ENDBRANCH   1  18
TORSDOF 4
ENDMDL
MODEL 7
REMARK VINA RESULT:      -7.8      1.944      2.628
REMARK  4 active torsions:
REMARK  status: ('A' for Active; 'I' for Inactive)
REMARK    1  A    between atoms: C_2  and  C_3 
REMARK    2  A    between atoms: C_8  and  N_9 
REMARK       I    between atoms: N_9  and  C_10 
REMARK       I    between atoms: C_10  and  N_11 
REMARK    3  A    between atoms: N_11  and  C_12 
REMARK    4  A    between atoms: C_12  and  C_13 
ROOT
HETATM    1  N   UNL     1     -44.268  56.726 -57.119  1.00  0.00    -0.305 N 
HETATM    2  C   UNL     1     -43.941  57.152 -55.857  1.00  0.00     0.321 C 
HETATM    3  N   UNL     1     -43.965  56.113 -54.947  1.00  0.00    -0.339 N 
HETATM    4  O   UNL     1     -43.671  58.297 -55.521  1.00  0.00    -0.247 OA
HETATM    5  H   UNL     1     -44.665  55.801 -57.188  1.00  0.00     0.171 HD
HETATM    6  H   UNL     1     -43.723  55.201 -55.303  1.00  0.00     0.164 HD
ENDROOT
BRANCH   3   7
HETATM    7  C   UNL     1     -43.534  56.389 -53.591  1.00  0.00     0.162 C 
BRANCH   7   8
HETATM    8  C   UNL     1     -42.482  55.427 -53.108  1.00  0.00    -0.040 A 
HETATM    9  C   UNL     1     -42.060  54.359 -53.918  1.00  0.00     0.021 A 
HETATM   10  C   UNL     1     -41.150  53.399 -53.444  1.00  0.00    -0.025 A 
HETATM   11  C   UNL     1     -40.650  53.510 -52.128  1.00  0.00    -0.026 A 
HETATM   12  C   UNL     1     -40.739  52.320 -54.244  1.00  0.00     0.012 A 
HETATM   13  C   UNL     1     -41.063  54.584 -51.326  1.00  0.00     0.013 A 
HETATM   14  C   UNL     1     -39.762  52.536 -51.644  1.00  0.00     0.012 A 
HETATM   15  C   UNL     1     -41.971  55.530 -51.809  1.00  0.00     0.010 A 
HETATM   16  C   UNL     1     -39.369  51.466 -52.449  1.00  0.00     0.001 A 
HETATM   17  C   UNL     1     -39.855  51.360 -53.749  1.00  0.00     0.001 A 
ENDBRANCH   7   8
ENDBRANCH   3   7
BRANCH   1  18
HETATM   18  C   UNL     1     -44.256  57.487 -58.284  1.00  0.00     0.095 A 
HETATM   19  C   UNL     1     -45.406  57.817 -58.978  1.00  0.00     0.107 A 
HETATM   20  O   UNL     1     -45.082  58.542 -60.078  1.00  0.00    -0.215 OA
HETATM   21  N   UNL     1     -43.721  58.716 -60.135  1.00  0.00    -0.131 NA
HETATM   22  C   UNL     1     -43.218  58.083 -59.064  1.00  0.00     0.087 A 
HETATM   23  C   UNL     1     -41.747  58.099 -58.889  1.00  0.00     0.075 C 
BRANCH  19  24
HETATM   24  C   UNL     1     -46.855  57.559 -58.802  1.00  0.00     0.065 C 
HETATM   25  C   UNL     1     -47.433  58.362 -57.647  1.00  0.00     0.012 C 
ENDBRANCH  19  24
ENDBRANCH   1  18
TORSDOF 4
ENDMDL
MODEL 8
REMARK VINA RESULT:      -7.8      2.652      8.489
REMARK  4 active torsions:
REMARK  status: ('A' for Active; 'I' for Inactive)
REMARK    1  A    between atoms: C_2  and  C_3 
REMARK    2  A    between atoms: C_8  and  N_9 
REMARK       I    between atoms: N_9  and  C_10 
REMARK       I    between atoms: C_10  and  N_11 
REMARK    3  A    between atoms: N_11  and  C_12 
REMARK    4  A    between atoms: C_12  and  C_13 
ROOT
HETATM    1  N   UNL     1     -41.609  54.236 -53.341  1.00  0.00    -0.305 N 
HETATM    2  C   UNL     1     -41.263  55.056 -54.385  1.00  0.00     0.321 C 
HETATM    3  N   UNL     1     -42.342  55.796 -54.829  1.00  0.00    -0.339 N 
HETATM    4  O   UNL     1     -40.161  55.148 -54.907  1.00  0.00    -0.247 OA
HETATM    5  H   UNL     1     -42.596  54.126 -53.169  1.00  0.00     0.171 HD
HETATM    6  H   UNL     1     -43.030  56.044 -54.134  1.00  0.00     0.164 HD
ENDROOT
BRANCH   3   7
HETATM    7  C   UNL     1     -42.106  56.789 -55.858  1.00  0.00     0.162 C 
BRANCH   7   8
HETATM    8  C   UNL     1     -43.162  56.776 -56.930  1.00  0.00    -0.040 A 
HETATM    9  C   UNL     1     -43.182  55.766 -57.905  1.00  0.00     0.021 A 
HETATM   10  C   UNL     1     -44.101  55.794 -58.967  1.00  0.00    -0.025 A 
HETATM   11  C   UNL     1     -45.024  56.860 -59.056  1.00  0.00    -0.026 A 
HETATM   12  C   UNL     1     -44.113  54.795 -59.955  1.00  0.00     0.012 A 
HETATM   13  C   UNL     1     -45.010  57.861 -58.074  1.00  0.00     0.013 A 
HETATM   14  C   UNL     1     -45.926  56.904 -60.132  1.00  0.00     0.012 A 
HETATM   15  C   UNL     1     -44.088  57.822 -57.024  1.00  0.00     0.010 A 
HETATM   16  C   UNL     1     -45.919  55.907 -61.108  1.00  0.00     0.001 A 
HETATM   17  C   UNL     1     -45.016  54.852 -61.018  1.00  0.00     0.001 A 
ENDBRANCH   7   8
ENDBRANCH   3   7
BRANCH   1  18
HETATM   18  C   UNL     1     -40.753  53.425 -52.602  1.00  0.00     0.095 A 
HETATM   19  C   UNL     1     -40.229  52.242 -53.091  1.00  0.00     0.107 A 
HETATM   20  O   UNL     1     -39.452  51.662 -52.142  1.00  0.00    -0.215 OA
HETATM   21  N   UNL     1     -39.436  52.443 -51.014  1.00  0.00    -0.131 NA
HETATM   22  C   UNL     1     -40.217  53.501 -51.280  1.00  0.00     0.087 A 
HETATM   23  C   UNL     1     -40.391  54.509 -50.208  1.00  0.00     0.075 C 
BRANCH  19  24
HETATM   24  C   UNL     1     -40.328  51.492 -54.366  1.00  0.00     0.065 C 
HETATM   25  C   UNL     1     -39.866  50.052 -54.210  1.00  0.00     0.012 C 
ENDBRANCH  19  24
ENDBRANCH   1  18
TORSDOF 4
ENDMDL
MODEL 9
REMARK VINA RESULT:      -7.7      4.922      8.072
REMARK  4 active torsions:
REMARK  status: ('A' for Active; 'I' for Inactive)
REMARK    1  A    between atoms: C_2  and  C_3 
REMARK    2  A    between atoms: C_8  and  N_9 
REMARK       I    between atoms: N_9  and  C_10 
REMARK       I    between atoms: C_10  and  N_11 
REMARK    3  A    between atoms: N_11  and  C_12 
REMARK    4  A    between atoms: C_12  and  C_13 
ROOT
HETATM    1  N   UNL     1     -39.717  53.067 -51.468  1.00  0.00    -0.305 N 
HETATM    2  C   UNL     1     -40.784  53.770 -50.970  1.00  0.00     0.321 C 
HETATM    3  N   UNL     1     -40.373  54.874 -50.247  1.00  0.00    -0.339 N 
HETATM    4  O   UNL     1     -41.968  53.493 -51.103  1.00  0.00    -0.247 OA
HETATM    5  H   UNL     1     -38.812  53.308 -51.095  1.00  0.00     0.171 HD
HETATM    6  H   UNL     1     -39.513  55.309 -50.545  1.00  0.00     0.164 HD
ENDROOT
BRANCH   3   7
HETATM    7  C   UNL     1     -41.391  55.776 -49.749  1.00  0.00     0.162 C 
BRANCH   7   8
HETATM    8  C   UNL     1     -41.614  56.957 -50.656  1.00  0.00    -0.040 A 
HETATM    9  C   UNL     1     -42.735  57.011 -51.500  1.00  0.00     0.021 A 
HETATM   10  C   UNL     1     -42.906  58.060 -52.419  1.00  0.00    -0.025 A 
HETATM   11  C   UNL     1     -41.931  59.079 -52.497  1.00  0.00    -0.026 A 
HETATM   12  C   UNL     1     -44.017  58.109 -53.278  1.00  0.00     0.012 A 
HETATM   13  C   UNL     1     -40.819  59.029 -51.643  1.00  0.00     0.013 A 
HETATM   14  C   UNL     1     -42.087  60.113 -53.434  1.00  0.00     0.012 A 
HETATM   15  C   UNL     1     -40.660  57.979 -50.735  1.00  0.00     0.010 A 
HETATM   16  C   UNL     1     -43.193  60.143 -54.284  1.00  0.00     0.001 A 
HETATM   17  C   UNL     1     -44.158  59.144 -54.205  1.00  0.00     0.001 A 
ENDBRANCH   7   8
ENDBRANCH   3   7
BRANCH   1  18
HETATM   18  C   UNL     1     -39.771  51.960 -52.310  1.00  0.00     0.095 A 
HETATM   19  C   UNL     1     -39.998  52.060 -53.670  1.00  0.00     0.107 A 
HETATM   20  O   UNL     1     -40.019  50.820 -54.221  1.00  0.00    -0.215 OA
HETATM   21  N   UNL     1     -39.799  49.877 -53.249  1.00  0.00    -0.131 NA
HETATM   22  C   UNL     1     -39.653  50.552 -52.099  1.00  0.00     0.087 A 
HETATM   23  C   UNL     1     -39.419  49.761 -50.867  1.00  0.00     0.075 C 
BRANCH  19  24
HETATM   24  C   UNL     1     -40.224  53.174 -54.622  1.00  0.00     0.065 C 
HETATM   25  C   UNL     1     -41.671  53.641 -54.609  1.00  0.00     0.012 C 
ENDBRANCH  19  24
ENDBRANCH   1  18
TORSDOF 4
ENDMDL
MODEL 10
REMARK VINA RESULT:      -7.6      5.151      6.810
REMARK  4 active torsions:
REMARK  status: ('A' for Active; 'I' for Inactive)
REMARK    1  A    between atoms: C_2  and  C_3 
REMARK    2  A    between atoms: C_8  and  N_9 
REMARK       I    between atoms: N_9  and  C_10 
REMARK       I    between atoms: C_10  and  N_11 
REMARK    3  A    between atoms: N_11  and  C_12 
REMARK    4  A    between atoms: C_12  and  C_13 
ROOT
HETATM    1  N   UNL     1     -42.971  59.179 -50.818  1.00  0.00    -0.305 N 
HETATM    2  C   UNL     1     -43.614  58.054 -51.269  1.00  0.00     0.321 C 
HETATM    3  N   UNL     1     -43.181  56.921 -50.606  1.00  0.00    -0.339 N 
HETATM    4  O   UNL     1     -44.457  58.001 -52.153  1.00  0.00    -0.247 OA
HETATM    5  H   UNL     1     -42.161  59.026 -50.237  1.00  0.00     0.171 HD
HETATM    6  H   UNL     1     -42.891  57.047 -49.648  1.00  0.00     0.164 HD
ENDROOT
BRANCH   3   7
HETATM    7  C   UNL     1     -43.848  55.669 -50.899  1.00  0.00     0.162 C 
BRANCH   7   8
HETATM    8  C   UNL     1     -43.011  54.749 -51.746  1.00  0.00    -0.040 A 
HETATM    9  C   UNL     1     -41.999  53.964 -51.169  1.00  0.00     0.021 A 
HETATM   10  C   UNL     1     -41.148  53.174 -51.959  1.00  0.00    -0.025 A 
HETATM   11  C   UNL     1     -41.312  53.169 -53.362  1.00  0.00    -0.026 A 
HETATM   12  C   UNL     1     -40.123  52.401 -51.388  1.00  0.00     0.012 A 
HETATM   13  C   UNL     1     -42.331  53.944 -53.935  1.00  0.00     0.013 A 
HETATM   14  C   UNL     1     -40.444  52.401 -54.156  1.00  0.00     0.012 A 
HETATM   15  C   UNL     1     -43.169  54.727 -53.137  1.00  0.00     0.010 A 
HETATM   16  C   UNL     1     -39.427  51.645 -53.572  1.00  0.00     0.001 A 
HETATM   17  C   UNL     1     -39.269  51.642 -52.190  1.00  0.00     0.001 A 
ENDBRANCH   7   8
ENDBRANCH   3   7
BRANCH   1  18
HETATM   18  C   UNL     1     -43.225  60.492 -51.202  1.00  0.00     0.095 A 
HETATM   19  C   UNL     1     -43.817  61.419 -50.364  1.00  0.00     0.107 A 
HETATM   20  O   UNL     1     -43.956  62.601 -51.016  1.00  0.00    -0.215 OA
HETATM   21  N   UNL     1     -43.457  62.488 -52.290  1.00  0.00    -0.131 NA
HETATM   22  C   UNL     1     -43.020  61.225 -52.411  1.00  0.00     0.087 A 
HETATM   23  C   UNL     1     -42.440  60.824 -53.714  1.00  0.00     0.075 C 
BRANCH  19  24
HETATM   24  C   UNL     1     -44.320  61.410 -48.969  1.00  0.00     0.065 C 
HETATM   25  C   UNL     1     -44.632  62.814 -48.474  1.00  0.00     0.012 C 
ENDBRANCH  19  24
ENDBRANCH   1  18
TORSDOF 4
ENDMDL
