MODEL 1
REMARK VINA RESULT:      -7.8      0.000      0.000
REMARK  4 active torsions:
REMARK  status: ('A' for Active; 'I' for Inactive)
REMARK    1  A    between atoms: C_2  and  C_3 
REMARK    2  A    between atoms: C_3  and  N_4 
REMARK    3  A    between atoms: C_3  and  C_17 
REMARK       I    between atoms: N_4  and  C_5 
REMARK    4  A    between atoms: C_5  and  C_6 
ROOT
HETATM    1  N   UNL     1     -42.023  55.978 -55.099  1.00  0.00    -0.345 N 
HETATM    2  C   UNL     1     -41.219  56.237 -54.004  1.00  0.00     0.252 C 
HETATM    3  O   UNL     1     -40.721  57.342 -53.812  1.00  0.00    -0.268 OA
HETATM    4  H   UNL     1     -42.576  55.129 -55.059  1.00  0.00     0.163 HD
ENDROOT
BRANCH   1   5
HETATM    5  C   UNL     1     -42.531  57.075 -55.928  1.00  0.00     0.152 C 
BRANCH   5   6
HETATM    6  C   UNL     1     -43.741  57.754 -55.276  1.00  0.00     0.028 C 
HETATM    7  C   UNL     1     -44.598  56.793 -54.463  1.00  0.00     0.007 C 
ENDBRANCH   5   6
BRANCH   5   8
HETATM    8  C   UNL     1     -42.799  56.592 -57.360  1.00  0.00     0.104 A 
HETATM    9  N   UNL     1     -43.677  55.666 -57.784  1.00  0.00    -0.347 N 
HETATM   10  H   UNL     1     -44.290  55.136 -57.170  1.00  0.00     0.167 HD
HETATM   11  C   UNL     1     -43.640  55.524 -59.168  1.00  0.00     0.022 A 
HETATM   12  C   UNL     1     -44.502  54.590 -59.909  1.00  0.00     0.069 C 
HETATM   13  C   UNL     1     -42.674  56.404 -59.592  1.00  0.00     0.114 A 
HETATM   14  N   UNL     1     -42.190  57.025 -58.474  1.00  0.00    -0.352 N 
HETATM   15  H   UNL     1     -41.418  57.705 -58.419  1.00  0.00     0.166 HD
ENDBRANCH   5   8
ENDBRANCH   1   5
BRANCH   2  16
HETATM   16  C   UNL     1     -41.025  55.119 -53.040  1.00  0.00     0.033 A 
HETATM   17  C   UNL     1     -40.526  53.903 -53.543  1.00  0.00     0.031 A 
HETATM   18  C   UNL     1     -40.272  52.854 -52.640  1.00  0.00     0.001 A 
HETATM   19  C   UNL     1     -40.546  53.056 -51.294  1.00  0.00     0.086 A 
HETATM   20  C   UNL     1     -39.758  51.534 -52.734  1.00  0.00     0.046 A 
HETATM   21  O   UNL     1     -40.223  51.949 -50.573  1.00  0.00    -0.315 OA
HETATM   22  C   UNL     1     -41.074  54.233 -50.767  1.00  0.00     0.039 A 
HETATM   23  C   UNL     1     -39.737  51.027 -51.451  1.00  0.00     0.050 A 
HETATM   24  C   UNL     1     -39.298  49.738 -50.879  1.00  0.00     0.077 C 
HETATM   25  C   UNL     1     -41.313  55.272 -51.675  1.00  0.00     0.020 A 
ENDBRANCH   2  16
TORSDOF 4
ENDMDL
MODEL 2
REMARK VINA RESULT:      -7.7      3.937      5.760
REMARK  4 active torsions:
REMARK  status: ('A' for Active; 'I' for Inactive)
REMARK    1  A    between atoms: C_2  and  C_3 
REMARK    2  A    between atoms: C_3  and  N_4 
REMARK    3  A    between atoms: C_3  and  C_17 
REMARK       I    between atoms: N_4  and  C_5 
REMARK    4  A    between atoms: C_5  and  C_6 
ROOT
HETATM    1  N   UNL     1     -41.747  57.434 -51.200  1.00  0.00    -0.345 N 
HETATM    2  C   UNL     1     -41.654  56.758 -52.404  1.00  0.00     0.252 C 
HETATM    3  O   UNL     1     -41.897  57.304 -53.475  1.00  0.00    -0.268 OA
HETATM    4  H   UNL     1     -41.309  56.990 -50.402  1.00  0.00     0.163 HD
ENDROOT
BRANCH   1   5
HETATM    5  C   UNL     1     -41.876  58.894 -51.174  1.00  0.00     0.152 C 
BRANCH   5   6
HETATM    6  C   UNL     1     -40.784  59.537 -50.310  1.00  0.00     0.028 C 
HETATM    7  C   UNL     1     -39.377  59.241 -50.811  1.00  0.00     0.007 C 
ENDBRANCH   5   6
BRANCH   5   8
HETATM    8  C   UNL     1     -43.298  59.304 -50.767  1.00  0.00     0.104 A 
HETATM    9  N   UNL     1     -43.701  60.414 -50.124  1.00  0.00    -0.347 N 
HETATM   10  H   UNL     1     -43.075  61.148 -49.801  1.00  0.00     0.167 HD
HETATM   11  C   UNL     1     -45.083  60.433 -49.956  1.00  0.00     0.022 A 
HETATM   12  C   UNL     1     -45.803  61.534 -49.297  1.00  0.00     0.069 C 
HETATM   13  C   UNL     1     -45.527  59.261 -50.516  1.00  0.00     0.114 A 
HETATM   14  N   UNL     1     -44.423  58.607 -50.990  1.00  0.00    -0.352 N 
HETATM   15  H   UNL     1     -44.383  57.672 -51.421  1.00  0.00     0.166 HD
ENDBRANCH   5   8
ENDBRANCH   1   5
BRANCH   2  16
HETATM   16  C   UNL     1     -41.198  55.342 -52.339  1.00  0.00     0.033 A 
HETATM   17  C   UNL     1     -41.141  54.618 -53.544  1.00  0.00     0.031 A 
HETATM   18  C   UNL     1     -40.651  53.300 -53.517  1.00  0.00     0.001 A 
HETATM   19  C   UNL     1     -40.265  52.761 -52.296  1.00  0.00     0.086 A 
HETATM   20  C   UNL     1     -40.411  52.284 -54.480  1.00  0.00     0.046 A 
HETATM   21  O   UNL     1     -39.803  51.493 -52.464  1.00  0.00    -0.315 OA
HETATM   22  C   UNL     1     -40.343  53.435 -51.080  1.00  0.00     0.039 A 
HETATM   23  C   UNL     1     -39.886  51.208 -53.794  1.00  0.00     0.050 A 
HETATM   24  C   UNL     1     -39.411  49.874 -54.214  1.00  0.00     0.077 C 
HETATM   25  C   UNL     1     -40.823  54.749 -51.123  1.00  0.00     0.020 A 
ENDBRANCH   2  16
TORSDOF 4
ENDMDL
MODEL 3
REMARK VINA RESULT:      -7.6      1.505      2.115
REMARK  4 active torsions:
REMARK  status: ('A' for Active; 'I' for Inactive)
REMARK    1  A    between atoms: C_2  and  C_3 
REMARK    2  A    between atoms: C_3  and  N_4 
REMARK    3  A    between atoms: C_3  and  C_17 
REMARK       I    between atoms: N_4  and  C_5 
REMARK    4  A    between atoms: C_5  and  C_6 
ROOT
HETATM    1  N   UNL     1     -42.145  56.113 -55.188  1.00  0.00    -0.345 N 
HETATM    2  C   UNL     1     -41.257  55.988 -54.134  1.00  0.00     0.252 C 
HETATM    3  O   UNL     1     -40.917  56.951 -53.454  1.00  0.00    -0.268 OA
HETATM    4  H   UNL     1     -42.548  55.252 -55.538  1.00  0.00     0.163 HD
ENDROOT
BRANCH   1   5
HETATM    5  C   UNL     1     -42.919  57.345 -55.367  1.00  0.00     0.152 C 
BRANCH   5   6
HETATM    6  C   UNL     1     -44.284  57.253 -54.673  1.00  0.00     0.028 C 
HETATM    7  C   UNL     1     -44.357  58.074 -53.392  1.00  0.00     0.007 C 
ENDBRANCH   5   6
BRANCH   5   8
HETATM    8  C   UNL     1     -43.013  57.713 -56.854  1.00  0.00     0.104 A 
HETATM    9  N   UNL     1     -42.137  57.453 -57.841  1.00  0.00    -0.347 N 
HETATM   10  H   UNL     1     -41.253  56.969 -57.709  1.00  0.00     0.167 HD
HETATM   11  C   UNL     1     -42.594  57.932 -59.066  1.00  0.00     0.022 A 
HETATM   12  C   UNL     1     -41.846  57.778 -60.324  1.00  0.00     0.069 C 
HETATM   13  C   UNL     1     -43.802  58.524 -58.791  1.00  0.00     0.114 A 
HETATM   14  N   UNL     1     -44.018  58.374 -57.450  1.00  0.00    -0.352 N 
HETATM   15  H   UNL     1     -44.802  58.747 -56.894  1.00  0.00     0.166 HD
ENDBRANCH   5   8
ENDBRANCH   1   5
BRANCH   2  16
HETATM   16  C   UNL     1     -40.769  54.614 -53.834  1.00  0.00     0.033 A 
HETATM   17  C   UNL     1     -40.686  54.231 -52.482  1.00  0.00     0.031 A 
HETATM   18  C   UNL     1     -40.291  52.915 -52.177  1.00  0.00     0.001 A 
HETATM   19  C   UNL     1     -39.976  52.058 -53.223  1.00  0.00     0.086 A 
HETATM   20  C   UNL     1     -40.120  52.155 -50.991  1.00  0.00     0.046 A 
HETATM   21  O   UNL     1     -39.636  50.832 -52.744  1.00  0.00    -0.315 OA
HETATM   22  C   UNL     1     -40.012  52.414 -54.569  1.00  0.00     0.039 A 
HETATM   23  C   UNL     1     -39.732  50.891 -51.386  1.00  0.00     0.050 A 
HETATM   24  C   UNL     1     -39.424  49.649 -50.648  1.00  0.00     0.077 C 
HETATM   25  C   UNL     1     -40.416  53.723 -54.859  1.00  0.00     0.020 A 
ENDBRANCH   2  16
TORSDOF 4
ENDMDL
MODEL 4
REMARK VINA RESULT:      -7.3      1.920      2.555
REMARK  4 active torsions:
REMARK  status: ('A' for Active; 'I' for Inactive)
REMARK    1  A    between atoms: C_2  and  C_3 
REMARK    2  A    between atoms: C_3  and  N_4 
REMARK    3  A    between atoms: C_3  and  C_17 
REMARK       I    between atoms: N_4  and  C_5 
REMARK    4  A    between atoms: C_5  and  C_6 
ROOT
HETATM    1  N   UNL     1     -42.890  56.277 -54.527  1.00  0.00    -0.345 N 
HETATM    2  C   UNL     1     -41.643  56.219 -53.932  1.00  0.00     0.252 C 
HETATM    3  O   UNL     1     -41.055  57.228 -53.554  1.00  0.00    -0.268 OA
HETATM    4  H   UNL     1     -43.398  55.402 -54.590  1.00  0.00     0.163 HD
ENDROOT
BRANCH   1   5
HETATM    5  C   UNL     1     -43.677  57.514 -54.488  1.00  0.00     0.152 C 
BRANCH   5   6
HETATM    6  C   UNL     1     -44.582  57.561 -53.251  1.00  0.00     0.028 C 
HETATM    7  C   UNL     1     -44.104  58.555 -52.200  1.00  0.00     0.007 C 
ENDBRANCH   5   6
BRANCH   5   8
HETATM    8  C   UNL     1     -44.434  57.715 -55.807  1.00  0.00     0.104 A 
HETATM    9  N   UNL     1     -45.717  58.072 -55.994  1.00  0.00    -0.347 N 
HETATM   10  H   UNL     1     -46.378  58.247 -55.242  1.00  0.00     0.167 HD
HETATM   11  C   UNL     1     -46.026  58.173 -57.348  1.00  0.00     0.022 A 
HETATM   12  C   UNL     1     -47.355  58.559 -57.847  1.00  0.00     0.069 C 
HETATM   13  C   UNL     1     -44.867  57.841 -58.005  1.00  0.00     0.114 A 
HETATM   14  N   UNL     1     -43.934  57.568 -57.044  1.00  0.00    -0.352 N 
HETATM   15  H   UNL     1     -42.969  57.234 -57.182  1.00  0.00     0.166 HD
ENDBRANCH   5   8
ENDBRANCH   1   5
BRANCH   2  16
HETATM   16  C   UNL     1     -41.065  54.862 -53.729  1.00  0.00     0.033 A 
HETATM   17  C   UNL     1     -40.895  54.415 -52.405  1.00  0.00     0.031 A 
HETATM   18  C   UNL     1     -40.413  53.111 -52.190  1.00  0.00     0.001 A 
HETATM   19  C   UNL     1     -40.102  52.328 -53.293  1.00  0.00     0.086 A 
HETATM   20  C   UNL     1     -40.143  52.302 -51.054  1.00  0.00     0.046 A 
HETATM   21  O   UNL     1     -39.671  51.101 -52.897  1.00  0.00    -0.315 OA
HETATM   22  C   UNL     1     -40.222  52.750 -54.615  1.00  0.00     0.039 A 
HETATM   23  C   UNL     1     -39.704  51.085 -51.534  1.00  0.00     0.050 A 
HETATM   24  C   UNL     1     -39.293  49.827 -50.879  1.00  0.00     0.077 C 
HETATM   25  C   UNL     1     -40.713  54.046 -54.816  1.00  0.00     0.020 A 
ENDBRANCH   2  16
TORSDOF 4
ENDMDL
MODEL 5
REMARK VINA RESULT:      -7.2      2.701      7.747
REMARK  4 active torsions:
REMARK  status: ('A' for Active; 'I' for Inactive)
REMARK    1  A    between atoms: C_2  and  C_3 
REMARK    2  A    between atoms: C_3  and  N_4 
REMARK    3  A    between atoms: C_3  and  C_17 
REMARK       I    between atoms: N_4  and  C_5 
REMARK    4  A    between atoms: C_5  and  C_6 
ROOT
HETATM    1  N   UNL     1     -41.780  55.207 -54.933  1.00  0.00    -0.345 N 
HETATM    2  C   UNL     1     -42.761  54.860 -55.844  1.00  0.00     0.252 C 
HETATM    3  O   UNL     1     -43.571  53.967 -55.617  1.00  0.00    -0.268 OA
HETATM    4  H   UNL     1     -41.313  56.093 -55.092  1.00  0.00     0.163 HD
ENDROOT
BRANCH   1   5
HETATM    5  C   UNL     1     -41.833  54.710 -53.555  1.00  0.00     0.152 C 
BRANCH   5   6
HETATM    6  C   UNL     1     -41.403  55.789 -52.554  1.00  0.00     0.028 C 
HETATM    7  C   UNL     1     -41.101  57.128 -53.215  1.00  0.00     0.007 C 
ENDBRANCH   5   6
BRANCH   5   8
HETATM    8  C   UNL     1     -41.042  53.402 -53.421  1.00  0.00     0.104 A 
HETATM    9  N   UNL     1     -41.002  52.354 -54.263  1.00  0.00    -0.347 N 
HETATM   10  H   UNL     1     -41.531  52.295 -55.129  1.00  0.00     0.167 HD
HETATM   11  C   UNL     1     -40.143  51.361 -53.799  1.00  0.00     0.022 A 
HETATM   12  C   UNL     1     -39.894  50.105 -54.524  1.00  0.00     0.069 C 
HETATM   13  C   UNL     1     -39.658  51.836 -52.606  1.00  0.00     0.114 A 
HETATM   14  N   UNL     1     -40.224  53.065 -52.412  1.00  0.00    -0.352 N 
HETATM   15  H   UNL     1     -40.123  53.680 -51.591  1.00  0.00     0.166 HD
ENDBRANCH   5   8
ENDBRANCH   1   5
BRANCH   2  16
HETATM   16  C   UNL     1     -42.816  55.658 -57.100  1.00  0.00     0.033 A 
HETATM   17  C   UNL     1     -42.386  56.997 -57.044  1.00  0.00     0.031 A 
HETATM   18  C   UNL     1     -42.366  57.749 -58.232  1.00  0.00     0.001 A 
HETATM   19  C   UNL     1     -42.794  57.146 -59.407  1.00  0.00     0.086 A 
HETATM   20  C   UNL     1     -41.986  59.069 -58.593  1.00  0.00     0.046 A 
HETATM   21  O   UNL     1     -42.689  58.012 -60.450  1.00  0.00    -0.315 OA
HETATM   22  C   UNL     1     -43.260  55.836 -59.493  1.00  0.00     0.039 A 
HETATM   23  C   UNL     1     -42.190  59.179 -59.953  1.00  0.00     0.050 A 
HETATM   24  C   UNL     1     -41.969  60.269 -60.925  1.00  0.00     0.077 C 
HETATM   25  C   UNL     1     -43.265  55.095 -58.305  1.00  0.00     0.020 A 
ENDBRANCH   2  16
TORSDOF 4
ENDMDL
MODEL 6
REMARK VINA RESULT:      -7.2      2.388      2.871
REMARK  4 active torsions:
REMARK  status: ('A' for Active; 'I' for Inactive)
REMARK    1  A    between atoms: C_2  and  C_3 
REMARK    2  A    between atoms: C_3  and  N_4 
REMARK    3  A    between atoms: C_3  and  C_17 
REMARK       I    between atoms: N_4  and  C_5 
REMARK    4  A    between atoms: C_5  and  C_6 
ROOT
HETATM    1  N   UNL     1     -41.873  57.259 -53.558  1.00  0.00    -0.345 N 
HETATM    2  C   UNL     1     -41.429  56.779 -52.338  1.00  0.00     0.252 C 
HETATM    3  O   UNL     1     -41.383  57.489 -51.339  1.00  0.00    -0.268 OA
HETATM    4  H   UNL     1     -42.100  56.562 -54.257  1.00  0.00     0.163 HD
ENDROOT
BRANCH   1   5
HETATM    5  C   UNL     1     -42.557  58.552 -53.645  1.00  0.00     0.152 C 
BRANCH   5   6
HETATM    6  C   UNL     1     -44.032  58.432 -53.245  1.00  0.00     0.028 C 
HETATM    7  C   UNL     1     -44.745  57.277 -53.937  1.00  0.00     0.007 C 
ENDBRANCH   5   6
BRANCH   5   8
HETATM    8  C   UNL     1     -42.348  59.182 -55.029  1.00  0.00     0.104 A 
HETATM    9  N   UNL     1     -42.292  58.576 -56.228  1.00  0.00    -0.347 N 
HETATM   10  H   UNL     1     -42.372  57.572 -56.367  1.00  0.00     0.167 HD
HETATM   11  C   UNL     1     -42.112  59.498 -57.257  1.00  0.00     0.022 A 
HETATM   12  C   UNL     1     -42.028  59.119 -58.676  1.00  0.00     0.069 C 
HETATM   13  C   UNL     1     -42.040  60.719 -56.634  1.00  0.00     0.114 A 
HETATM   14  N   UNL     1     -42.182  60.487 -55.294  1.00  0.00    -0.352 N 
HETATM   15  H   UNL     1     -42.123  61.174 -54.528  1.00  0.00     0.166 HD
ENDBRANCH   5   8
ENDBRANCH   1   5
BRANCH   2  16
HETATM   16  C   UNL     1     -41.052  55.340 -52.286  1.00  0.00     0.033 A 
HETATM   17  C   UNL     1     -40.959  54.643 -53.506  1.00  0.00     0.031 A 
HETATM   18  C   UNL     1     -40.540  53.301 -53.485  1.00  0.00     0.001 A 
HETATM   19  C   UNL     1     -40.258  52.712 -52.260  1.00  0.00     0.086 A 
HETATM   20  C   UNL     1     -40.296  52.298 -54.460  1.00  0.00     0.046 A 
HETATM   21  O   UNL     1     -39.853  51.426 -52.435  1.00  0.00    -0.315 OA
HETATM   22  C   UNL     1     -40.374  53.359 -51.032  1.00  0.00     0.039 A 
HETATM   23  C   UNL     1     -39.869  51.178 -53.775  1.00  0.00     0.050 A 
HETATM   24  C   UNL     1     -39.440  49.831 -54.203  1.00  0.00     0.077 C 
HETATM   25  C   UNL     1     -40.782  54.698 -51.067  1.00  0.00     0.020 A 
ENDBRANCH   2  16
TORSDOF 4
ENDMDL
MODEL 7
REMARK VINA RESULT:      -7.1      2.987      4.137
REMARK  4 active torsions:
REMARK  status: ('A' for Active; 'I' for Inactive)
REMARK    1  A    between atoms: C_2  and  C_3 
REMARK    2  A    between atoms: C_3  and  N_4 
REMARK    3  A    between atoms: C_3  and  C_17 
REMARK       I    between atoms: N_4  and  C_5 
REMARK    4  A    between atoms: C_5  and  C_6 
ROOT
HETATM    1  N   UNL     1     -40.857  57.417 -51.988  1.00  0.00    -0.345 N 
HETATM    2  C   UNL     1     -41.653  56.409 -51.473  1.00  0.00     0.252 C 
HETATM    3  O   UNL     1     -42.736  56.641 -50.946  1.00  0.00    -0.268 OA
HETATM    4  H   UNL     1     -40.108  57.125 -52.605  1.00  0.00     0.163 HD
ENDROOT
BRANCH   1   5
HETATM    5  C   UNL     1     -41.392  58.770 -52.165  1.00  0.00     0.152 C 
BRANCH   5   6
HETATM    6  C   UNL     1     -41.315  59.576 -50.863  1.00  0.00     0.028 C 
HETATM    7  C   UNL     1     -39.937  59.532 -50.216  1.00  0.00     0.007 C 
ENDBRANCH   5   6
BRANCH   5   8
HETATM    8  C   UNL     1     -42.801  58.720 -52.771  1.00  0.00     0.104 A 
HETATM    9  N   UNL     1     -43.202  58.149 -53.921  1.00  0.00    -0.347 N 
HETATM   10  H   UNL     1     -42.583  57.670 -54.568  1.00  0.00     0.167 HD
HETATM   11  C   UNL     1     -44.573  58.299 -54.112  1.00  0.00     0.022 A 
HETATM   12  C   UNL     1     -45.289  57.762 -55.280  1.00  0.00     0.069 C 
HETATM   13  C   UNL     1     -45.011  59.012 -53.024  1.00  0.00     0.114 A 
HETATM   14  N   UNL     1     -43.915  59.249 -52.242  1.00  0.00    -0.352 N 
HETATM   15  H   UNL     1     -43.871  59.805 -51.375  1.00  0.00     0.166 HD
ENDBRANCH   5   8
ENDBRANCH   1   5
BRANCH   2  16
HETATM   16  C   UNL     1     -41.151  55.016 -51.634  1.00  0.00     0.033 A 
HETATM   17  C   UNL     1     -41.243  54.431 -52.910  1.00  0.00     0.031 A 
HETATM   18  C   UNL     1     -40.715  53.141 -53.101  1.00  0.00     0.001 A 
HETATM   19  C   UNL     1     -40.145  52.490 -52.015  1.00  0.00     0.086 A 
HETATM   20  C   UNL     1     -40.584  52.248 -54.197  1.00  0.00     0.046 A 
HETATM   21  O   UNL     1     -39.673  51.271 -52.387  1.00  0.00    -0.315 OA
HETATM   22  C   UNL     1     -40.069  53.024 -50.730  1.00  0.00     0.039 A 
HETATM   23  C   UNL     1     -39.935  51.129 -53.717  1.00  0.00     0.050 A 
HETATM   24  C   UNL     1     -39.485  49.871 -54.348  1.00  0.00     0.077 C 
HETATM   25  C   UNL     1     -40.590  54.312 -50.557  1.00  0.00     0.020 A 
ENDBRANCH   2  16
TORSDOF 4
ENDMDL
MODEL 8
REMARK VINA RESULT:      -7.0      3.239      5.139
REMARK  4 active torsions:
REMARK  status: ('A' for Active; 'I' for Inactive)
REMARK    1  A    between atoms: C_2  and  C_3 
REMARK    2  A    between atoms: C_3  and  N_4 
REMARK    3  A    between atoms: C_3  and  C_17 
REMARK       I    between atoms: N_4  and  C_5 
REMARK    4  A    between atoms: C_5  and  C_6 
ROOT
HETATM    1  N   UNL     1     -42.901  56.849 -52.596  1.00  0.00    -0.345 N 
HETATM    2  C   UNL     1     -42.808  55.939 -51.558  1.00  0.00     0.252 C 
HETATM    3  O   UNL     1     -43.457  56.065 -50.524  1.00  0.00    -0.268 OA
HETATM    4  H   UNL     1     -42.522  56.552 -53.488  1.00  0.00     0.163 HD
ENDROOT
BRANCH   1   5
HETATM    5  C   UNL     1     -43.973  57.849 -52.616  1.00  0.00     0.152 C 
BRANCH   5   6
HETATM    6  C   UNL     1     -44.502  58.073 -54.038  1.00  0.00     0.028 C 
HETATM    7  C   UNL     1     -44.049  56.999 -55.018  1.00  0.00     0.007 C 
ENDBRANCH   5   6
BRANCH   5   8
HETATM    8  C   UNL     1     -43.521  59.141 -51.922  1.00  0.00     0.104 A 
HETATM    9  N   UNL     1     -43.732  60.415 -52.297  1.00  0.00    -0.347 N 
HETATM   10  H   UNL     1     -44.230  60.688 -53.140  1.00  0.00     0.167 HD
HETATM   11  C   UNL     1     -43.180  61.313 -51.387  1.00  0.00     0.022 A 
HETATM   12  C   UNL     1     -43.270  62.773 -51.537  1.00  0.00     0.069 C 
HETATM   13  C   UNL     1     -42.594  60.530 -50.423  1.00  0.00     0.114 A 
HETATM   14  N   UNL     1     -42.818  59.230 -50.782  1.00  0.00    -0.352 N 
HETATM   15  H   UNL     1     -42.470  58.380 -50.314  1.00  0.00     0.166 HD
ENDBRANCH   5   8
ENDBRANCH   1   5
BRANCH   2  16
HETATM   16  C   UNL     1     -41.913  54.770 -51.776  1.00  0.00     0.033 A 
HETATM   17  C   UNL     1     -42.100  54.013 -52.948  1.00  0.00     0.031 A 
HETATM   18  C   UNL     1     -41.223  52.944 -53.207  1.00  0.00     0.001 A 
HETATM   19  C   UNL     1     -40.224  52.666 -52.283  1.00  0.00     0.086 A 
HETATM   20  C   UNL     1     -41.059  51.994 -54.250  1.00  0.00     0.046 A 
HETATM   21  O   UNL     1     -39.466  51.619 -52.706  1.00  0.00    -0.315 OA
HETATM   22  C   UNL     1     -40.033  53.370 -51.097  1.00  0.00     0.039 A 
HETATM   23  C   UNL     1     -39.971  51.217 -53.906  1.00  0.00     0.050 A 
HETATM   24  C   UNL     1     -39.282  50.091 -54.569  1.00  0.00     0.077 C 
HETATM   25  C   UNL     1     -40.906  54.438 -50.856  1.00  0.00     0.020 A 
ENDBRANCH   2  16
TORSDOF 4
ENDMDL
MODEL 9
REMARK VINA RESULT:      -6.8     14.413     17.144
REMARK  4 active torsions:
REMARK  status: ('A' for Active; 'I' for Inactive)
REMARK    1  A    between atoms: C_2  and  C_3 
REMARK    2  A    between atoms: C_3  and  N_4 
REMARK    3  A    between atoms: C_3  and  C_17 
REMARK       I    between atoms: N_4  and  C_5 
REMARK    4  A    between atoms: C_5  and  C_6 
ROOT
HETATM    1  N   UNL     1     -36.767  41.181 -56.919  1.00  0.00    -0.345 N 
HETATM    2  C   UNL     1     -37.164  41.464 -58.214  1.00  0.00     0.252 C 
HETATM    3  O   UNL     1     -37.093  42.596 -58.682  1.00  0.00    -0.268 OA
HETATM    4  H   UNL     1     -36.638  40.201 -56.694  1.00  0.00     0.163 HD
ENDROOT
BRANCH   1   5
HETATM    5  C   UNL     1     -35.999  42.160 -56.145  1.00  0.00     0.152 C 
BRANCH   5   6
HETATM    6  C   UNL     1     -34.533  42.202 -56.595  1.00  0.00     0.028 C 
HETATM    7  C   UNL     1     -33.921  40.817 -56.760  1.00  0.00     0.007 C 
ENDBRANCH   5   6
BRANCH   5   8
HETATM    8  C   UNL     1     -36.169  41.912 -54.639  1.00  0.00     0.104 A 
HETATM    9  N   UNL     1     -35.229  41.908 -53.677  1.00  0.00    -0.347 N 
HETATM   10  H   UNL     1     -34.238  42.061 -53.844  1.00  0.00     0.167 HD
HETATM   11  C   UNL     1     -35.785  41.666 -52.424  1.00  0.00     0.022 A 
HETATM   12  C   UNL     1     -34.993  41.617 -51.184  1.00  0.00     0.069 C 
HETATM   13  C   UNL     1     -37.128  41.501 -52.654  1.00  0.00     0.114 A 
HETATM   14  N   UNL     1     -37.319  41.654 -53.999  1.00  0.00    -0.352 N 
HETATM   15  H   UNL     1     -38.198  41.541 -54.525  1.00  0.00     0.166 HD
ENDBRANCH   5   8
ENDBRANCH   1   5
BRANCH   2  16
HETATM   16  C   UNL     1     -37.641  40.314 -59.031  1.00  0.00     0.033 A 
HETATM   17  C   UNL     1     -37.348  40.325 -60.407  1.00  0.00     0.031 A 
HETATM   18  C   UNL     1     -37.730  39.218 -61.187  1.00  0.00     0.001 A 
HETATM   19  C   UNL     1     -38.401  38.171 -60.569  1.00  0.00     0.086 A 
HETATM   20  C   UNL     1     -37.597  38.840 -62.549  1.00  0.00     0.046 A 
HETATM   21  O   UNL     1     -38.673  37.187 -61.466  1.00  0.00    -0.315 OA
HETATM   22  C   UNL     1     -38.739  38.144 -59.218  1.00  0.00     0.039 A 
HETATM   23  C   UNL     1     -38.176  37.593 -62.669  1.00  0.00     0.050 A 
HETATM   24  C   UNL     1     -38.341  36.658 -63.801  1.00  0.00     0.077 C 
HETATM   25  C   UNL     1     -38.345  39.247 -58.452  1.00  0.00     0.020 A 
ENDBRANCH   2  16
TORSDOF 4
ENDMDL
MODEL 10
REMARK VINA RESULT:      -6.8     14.739     17.262
REMARK  4 active torsions:
REMARK  status: ('A' for Active; 'I' for Inactive)
REMARK    1  A    between atoms: C_2  and  C_3 
REMARK    2  A    between atoms: C_3  and  N_4 
REMARK    3  A    between atoms: C_3  and  C_17 
REMARK       I    between atoms: N_4  and  C_5 
REMARK    4  A    between atoms: C_5  and  C_6 
ROOT
HETATM    1  N   UNL     1     -34.452  40.692 -52.353  1.00  0.00    -0.345 N 
HETATM    2  C   UNL     1     -35.199  41.805 -52.695  1.00  0.00     0.252 C 
HETATM    3  O   UNL     1     -35.179  42.832 -52.024  1.00  0.00    -0.268 OA
HETATM    4  H   UNL     1     -34.343  39.987 -53.073  1.00  0.00     0.163 HD
ENDROOT
BRANCH   1   5
HETATM    5  C   UNL     1     -33.404  40.783 -51.333  1.00  0.00     0.152 C 
BRANCH   5   6
HETATM    6  C   UNL     1     -32.010  40.601 -51.945  1.00  0.00     0.028 C 
HETATM    7  C   UNL     1     -32.052  40.128 -53.392  1.00  0.00     0.007 C 
ENDBRANCH   5   6
BRANCH   5   8
HETATM    8  C   UNL     1     -33.693  39.820 -50.173  1.00  0.00     0.104 A 
HETATM    9  N   UNL     1     -34.873  39.309 -49.779  1.00  0.00    -0.347 N 
HETATM   10  H   UNL     1     -35.765  39.524 -50.218  1.00  0.00     0.167 HD
HETATM   11  C   UNL     1     -34.719  38.449 -48.695  1.00  0.00     0.022 A 
HETATM   12  C   UNL     1     -35.841  37.737 -48.063  1.00  0.00     0.069 C 
HETATM   13  C   UNL     1     -33.375  38.461 -48.417  1.00  0.00     0.114 A 
HETATM   14  N   UNL     1     -32.792  39.300 -49.326  1.00  0.00    -0.352 N 
HETATM   15  H   UNL     1     -31.803  39.584 -49.374  1.00  0.00     0.166 HD
ENDBRANCH   5   8
ENDBRANCH   1   5
BRANCH   2  16
HETATM   16  C   UNL     1     -35.997  41.712 -53.949  1.00  0.00     0.033 A 
HETATM   17  C   UNL     1     -35.382  42.122 -55.147  1.00  0.00     0.031 A 
HETATM   18  C   UNL     1     -36.094  41.981 -56.352  1.00  0.00     0.001 A 
HETATM   19  C   UNL     1     -37.382  41.465 -56.306  1.00  0.00     0.086 A 
HETATM   20  C   UNL     1     -35.829  42.234 -57.724  1.00  0.00     0.046 A 
HETATM   21  O   UNL     1     -37.905  41.385 -57.559  1.00  0.00    -0.315 OA
HETATM   22  C   UNL     1     -38.035  41.085 -55.136  1.00  0.00     0.039 A 
HETATM   23  C   UNL     1     -36.955  41.846 -58.420  1.00  0.00     0.050 A 
HETATM   24  C   UNL     1     -37.302  41.829 -59.856  1.00  0.00     0.077 C 
HETATM   25  C   UNL     1     -37.312  41.221 -53.944  1.00  0.00     0.020 A 
ENDBRANCH   2  16
TORSDOF 4
ENDMDL
