MODEL 1
REMARK VINA RESULT:      -7.9      0.000      0.000
REMARK  5 active torsions:
REMARK  status: ('A' for Active; 'I' for Inactive)
REMARK    1  A    between atoms: C_2  and  O_3 
REMARK    2  A    between atoms: O_3  and  C_4 
REMARK    3  A    between atoms: C_5  and  C_6 
REMARK       I    between atoms: C_6  and  N_7 
REMARK    4  A    between atoms: N_7  and  N_8 
REMARK    5  A    between atoms: C_9  and  C_10 
ROOT
HETATM    1  C   UNL     1     -42.650  56.250 -56.256  1.00  0.00     0.274 C 
HETATM    2  N   UNL     1     -41.327  56.012 -55.924  1.00  0.00    -0.243 N 
HETATM    3  O   UNL     1     -43.602  56.065 -55.501  1.00  0.00    -0.266 OA
HETATM    4  H   UNL     1     -40.594  56.208 -56.601  1.00  0.00     0.192 HD
ENDROOT
BRANCH   2   5
HETATM    5  N   UNL     1     -41.032  55.400 -54.741  1.00  0.00    -0.183 NA
HETATM    6  C   UNL     1     -40.681  54.157 -54.809  1.00  0.00     0.152 C 
BRANCH   6   7
HETATM    7  C   UNL     1     -40.417  53.435 -53.582  1.00  0.00     0.011 A 
HETATM    8  C   UNL     1     -40.105  52.045 -53.426  1.00  0.00     0.004 A 
HETATM    9  C   UNL     1     -39.968  51.800 -52.057  1.00  0.00     0.043 A 
HETATM   10  C   UNL     1     -39.935  50.965 -54.317  1.00  0.00     0.014 A 
HETATM   11  C   UNL     1     -39.675  50.534 -51.536  1.00  0.00     0.030 A 
HETATM   12  N   UNL     1     -40.177  52.993 -51.406  1.00  0.00    -0.364 N 
HETATM   13  C   UNL     1     -39.514  49.482 -52.442  1.00  0.00     0.002 A 
HETATM   14  C   UNL     1     -39.639  49.692 -53.813  1.00  0.00     0.001 A 
HETATM   15  H   UNL     1     -40.144  53.117 -50.404  1.00  0.00     0.165 HD
HETATM   16  C   UNL     1     -40.447  53.981 -52.311  1.00  0.00     0.102 A 
ENDBRANCH   6   7
ENDBRANCH   2   5
BRANCH   1  17
HETATM   17  C   UNL     1     -42.916  56.704 -57.657  1.00  0.00     0.068 A 
HETATM   18  C   UNL     1     -42.443  57.910 -58.208  1.00  0.00     0.084 A 
HETATM   19  C   UNL     1     -42.703  58.196 -59.557  1.00  0.00     0.039 A 
HETATM   20  C   UNL     1     -43.458  57.319 -60.340  1.00  0.00     0.022 A 
HETATM   21  C   UNL     1     -43.954  56.146 -59.781  1.00  0.00     0.012 A 
HETATM   22  C   UNL     1     -43.687  55.836 -58.452  1.00  0.00     0.039 A 
HETATM   23 BR   UNL     1     -44.974  54.960 -60.841  1.00  0.00    -0.051 Br
BRANCH  18  24
HETATM   24  O   UNL     1     -41.707  58.751 -57.409  1.00  0.00    -0.350 OA
BRANCH  24  25
HETATM   25  C   UNL     1     -42.406  59.896 -56.905  1.00  0.00     0.171 C 
HETATM   26  C   UNL     1     -42.261  59.909 -55.394  1.00  0.00     0.034 C 
ENDBRANCH  24  25
ENDBRANCH  18  24
ENDBRANCH   1  17
TORSDOF 5
ENDMDL
MODEL 2
REMARK VINA RESULT:      -7.5      3.405      8.473
REMARK  5 active torsions:
REMARK  status: ('A' for Active; 'I' for Inactive)
REMARK    1  A    between atoms: C_2  and  O_3 
REMARK    2  A    between atoms: O_3  and  C_4 
REMARK    3  A    between atoms: C_5  and  C_6 
REMARK       I    between atoms: C_6  and  N_7 
REMARK    4  A    between atoms: N_7  and  N_8 
REMARK    5  A    between atoms: C_9  and  C_10 
ROOT
HETATM    1  C   UNL     1     -42.508  54.039 -53.715  1.00  0.00     0.274 C 
HETATM    2  N   UNL     1     -42.070  54.097 -55.028  1.00  0.00    -0.243 N 
HETATM    3  O   UNL     1     -43.622  54.394 -53.335  1.00  0.00    -0.266 OA
HETATM    4  H   UNL     1     -41.138  53.767 -55.263  1.00  0.00     0.192 HD
ENDROOT
BRANCH   2   5
HETATM    5  N   UNL     1     -42.846  54.711 -55.967  1.00  0.00    -0.183 NA
HETATM    6  C   UNL     1     -42.378  55.805 -56.473  1.00  0.00     0.152 C 
BRANCH   6   7
HETATM    7  C   UNL     1     -43.185  56.536 -57.429  1.00  0.00     0.011 A 
HETATM    8  C   UNL     1     -43.870  56.025 -58.578  1.00  0.00     0.004 A 
HETATM    9  C   UNL     1     -44.484  57.108 -59.214  1.00  0.00     0.043 A 
HETATM   10  C   UNL     1     -44.022  54.743 -59.149  1.00  0.00     0.014 A 
HETATM   11  C   UNL     1     -45.234  56.975 -60.388  1.00  0.00     0.030 A 
HETATM   12  N   UNL     1     -44.194  58.231 -58.476  1.00  0.00    -0.364 N 
HETATM   13  C   UNL     1     -45.366  55.695 -60.932  1.00  0.00     0.002 A 
HETATM   14  C   UNL     1     -44.771  54.593 -60.323  1.00  0.00     0.001 A 
HETATM   15  H   UNL     1     -44.505  59.165 -58.701  1.00  0.00     0.165 HD
HETATM   16  C   UNL     1     -43.415  57.900 -57.403  1.00  0.00     0.102 A 
ENDBRANCH   6   7
ENDBRANCH   2   5
BRANCH   1  17
HETATM   17  C   UNL     1     -41.515  53.569 -52.700  1.00  0.00     0.068 A 
HETATM   18  C   UNL     1     -40.510  52.613 -52.949  1.00  0.00     0.084 A 
HETATM   19  C   UNL     1     -39.594  52.301 -51.934  1.00  0.00     0.039 A 
HETATM   20  C   UNL     1     -39.695  52.896 -50.673  1.00  0.00     0.022 A 
HETATM   21  C   UNL     1     -40.710  53.812 -50.421  1.00  0.00     0.012 A 
HETATM   22  C   UNL     1     -41.614  54.150 -51.422  1.00  0.00     0.039 A 
HETATM   23 BR   UNL     1     -40.845  54.616 -48.716  1.00  0.00    -0.051 Br
BRANCH  18  24
HETATM   24  O   UNL     1     -40.442  52.046 -54.198  1.00  0.00    -0.350 OA
BRANCH  24  25
HETATM   25  C   UNL     1     -40.769  50.652 -54.264  1.00  0.00     0.171 C 
HETATM   26  C   UNL     1     -39.493  49.881 -54.551  1.00  0.00     0.034 C 
ENDBRANCH  24  25
ENDBRANCH  18  24
ENDBRANCH   1  17
TORSDOF 5
ENDMDL
MODEL 3
REMARK VINA RESULT:      -7.5      2.973      8.094
REMARK  5 active torsions:
REMARK  status: ('A' for Active; 'I' for Inactive)
REMARK    1  A    between atoms: C_2  and  O_3 
REMARK    2  A    between atoms: O_3  and  C_4 
REMARK    3  A    between atoms: C_5  and  C_6 
REMARK       I    between atoms: C_6  and  N_7 
REMARK    4  A    between atoms: N_7  and  N_8 
REMARK    5  A    between atoms: C_9  and  C_10 
ROOT
HETATM    1  C   UNL     1     -41.258  54.596 -53.788  1.00  0.00     0.274 C 
HETATM    2  N   UNL     1     -42.535  54.369 -54.274  1.00  0.00    -0.243 N 
HETATM    3  O   UNL     1     -40.590  55.600 -54.025  1.00  0.00    -0.266 OA
HETATM    4  H   UNL     1     -43.028  53.518 -54.017  1.00  0.00     0.192 HD
ENDROOT
BRANCH   2   5
HETATM    5  N   UNL     1     -43.065  55.228 -55.191  1.00  0.00    -0.183 NA
HETATM    6  C   UNL     1     -42.609  55.135 -56.397  1.00  0.00     0.152 C 
BRANCH   6   7
HETATM    7  C   UNL     1     -43.088  56.063 -57.402  1.00  0.00     0.011 A 
HETATM    8  C   UNL     1     -43.796  55.765 -58.611  1.00  0.00     0.004 A 
HETATM    9  C   UNL     1     -44.014  56.975 -59.274  1.00  0.00     0.043 A 
HETATM   10  C   UNL     1     -44.266  54.579 -59.215  1.00  0.00     0.014 A 
HETATM   11  C   UNL     1     -44.672  57.059 -60.507  1.00  0.00     0.030 A 
HETATM   12  N   UNL     1     -43.472  57.971 -58.497  1.00  0.00    -0.364 N 
HETATM   13  C   UNL     1     -45.125  55.868 -61.083  1.00  0.00     0.002 A 
HETATM   14  C   UNL     1     -44.928  54.646 -60.447  1.00  0.00     0.001 A 
HETATM   15  H   UNL     1     -43.479  58.954 -58.730  1.00  0.00     0.165 HD
HETATM   16  C   UNL     1     -42.914  57.435 -57.370  1.00  0.00     0.102 A 
ENDBRANCH   6   7
ENDBRANCH   2   5
BRANCH   1  17
HETATM   17  C   UNL     1     -40.648  53.498 -52.974  1.00  0.00     0.068 A 
HETATM   18  C   UNL     1     -40.442  53.558 -51.582  1.00  0.00     0.084 A 
HETATM   19  C   UNL     1     -39.921  52.438 -50.917  1.00  0.00     0.039 A 
HETATM   20  C   UNL     1     -39.570  51.286 -51.627  1.00  0.00     0.022 A 
HETATM   21  C   UNL     1     -39.742  51.245 -53.006  1.00  0.00     0.012 A 
HETATM   22  C   UNL     1     -40.277  52.338 -53.679  1.00  0.00     0.039 A 
HETATM   23 BR   UNL     1     -39.268  49.687 -53.965  1.00  0.00    -0.051 Br
BRANCH  18  24
HETATM   24  O   UNL     1     -40.795  54.707 -50.917  1.00  0.00    -0.350 OA
BRANCH  24  25
HETATM   25  C   UNL     1     -41.800  54.554 -49.907  1.00  0.00     0.171 C 
HETATM   26  C   UNL     1     -43.153  54.812 -50.545  1.00  0.00     0.034 C 
ENDBRANCH  24  25
ENDBRANCH  18  24
ENDBRANCH   1  17
TORSDOF 5
ENDMDL
MODEL 4
REMARK VINA RESULT:      -7.5      3.835      8.576
REMARK  5 active torsions:
REMARK  status: ('A' for Active; 'I' for Inactive)
REMARK    1  A    between atoms: C_2  and  O_3 
REMARK    2  A    between atoms: O_3  and  C_4 
REMARK    3  A    between atoms: C_5  and  C_6 
REMARK       I    between atoms: C_6  and  N_7 
REMARK    4  A    between atoms: N_7  and  N_8 
REMARK    5  A    between atoms: C_9  and  C_10 
ROOT
HETATM    1  C   UNL     1     -41.463  54.725 -53.455  1.00  0.00     0.274 C 
HETATM    2  N   UNL     1     -40.691  55.826 -53.784  1.00  0.00    -0.243 N 
HETATM    3  O   UNL     1     -42.689  54.685 -53.530  1.00  0.00    -0.266 OA
HETATM    4  H   UNL     1     -39.679  55.773 -53.710  1.00  0.00     0.192 HD
ENDROOT
BRANCH   2   5
HETATM    5  N   UNL     1     -41.303  57.008 -54.083  1.00  0.00    -0.183 NA
HETATM    6  C   UNL     1     -40.943  58.034 -53.383  1.00  0.00     0.152 C 
BRANCH   6   7
HETATM    7  C   UNL     1     -41.602  59.304 -53.610  1.00  0.00     0.011 A 
HETATM    8  C   UNL     1     -42.103  60.225 -52.634  1.00  0.00     0.004 A 
HETATM    9  C   UNL     1     -42.687  61.289 -53.326  1.00  0.00     0.043 A 
HETATM   10  C   UNL     1     -42.127  60.254 -51.223  1.00  0.00     0.014 A 
HETATM   11  C   UNL     1     -43.294  62.374 -52.681  1.00  0.00     0.030 A 
HETATM   12  N   UNL     1     -42.538  61.034 -54.668  1.00  0.00    -0.364 N 
HETATM   13  C   UNL     1     -43.304  62.375 -51.284  1.00  0.00     0.002 A 
HETATM   14  C   UNL     1     -42.728  61.333 -50.563  1.00  0.00     0.001 A 
HETATM   15  H   UNL     1     -42.869  61.634 -55.410  1.00  0.00     0.165 HD
HETATM   16  C   UNL     1     -41.888  59.845 -54.851  1.00  0.00     0.102 A 
ENDBRANCH   6   7
ENDBRANCH   2   5
BRANCH   1  17
HETATM   17  C   UNL     1     -40.734  53.536 -52.911  1.00  0.00     0.068 A 
HETATM   18  C   UNL     1     -40.239  53.436 -51.597  1.00  0.00     0.084 A 
HETATM   19  C   UNL     1     -39.629  52.242 -51.183  1.00  0.00     0.039 A 
HETATM   20  C   UNL     1     -39.474  51.174 -52.071  1.00  0.00     0.022 A 
HETATM   21  C   UNL     1     -39.932  51.291 -53.378  1.00  0.00     0.012 A 
HETATM   22  C   UNL     1     -40.559  52.459 -53.800  1.00  0.00     0.039 A 
HETATM   23 BR   UNL     1     -39.723  49.847 -54.578  1.00  0.00    -0.051 Br
BRANCH  18  24
HETATM   24  O   UNL     1     -40.405  54.506 -50.751  1.00  0.00    -0.350 OA
BRANCH  24  25
HETATM   25  C   UNL     1     -39.678  54.440 -49.518  1.00  0.00     0.171 C 
HETATM   26  C   UNL     1     -40.676  54.251 -48.391  1.00  0.00     0.034 C 
ENDBRANCH  24  25
ENDBRANCH  18  24
ENDBRANCH   1  17
TORSDOF 5
ENDMDL
MODEL 5
REMARK VINA RESULT:      -7.5      1.841      2.255
REMARK  5 active torsions:
REMARK  status: ('A' for Active; 'I' for Inactive)
REMARK    1  A    between atoms: C_2  and  O_3 
REMARK    2  A    between atoms: O_3  and  C_4 
REMARK    3  A    between atoms: C_5  and  C_6 
REMARK       I    between atoms: C_6  and  N_7 
REMARK    4  A    between atoms: N_7  and  N_8 
REMARK    5  A    between atoms: C_9  and  C_10 
ROOT
HETATM    1  C   UNL     1     -43.174  55.513 -55.609  1.00  0.00     0.274 C 
HETATM    2  N   UNL     1     -42.814  55.786 -54.300  1.00  0.00    -0.243 N 
HETATM    3  O   UNL     1     -43.240  54.385 -56.093  1.00  0.00    -0.266 OA
HETATM    4  H   UNL     1     -42.801  56.748 -53.971  1.00  0.00     0.192 HD
ENDROOT
BRANCH   2   5
HETATM    5  N   UNL     1     -42.362  54.775 -53.504  1.00  0.00    -0.183 NA
HETATM    6  C   UNL     1     -41.081  54.700 -53.342  1.00  0.00     0.152 C 
BRANCH   6   7
HETATM    7  C   UNL     1     -40.536  53.610 -52.560  1.00  0.00     0.011 A 
HETATM    8  C   UNL     1     -40.257  52.271 -52.987  1.00  0.00     0.004 A 
HETATM    9  C   UNL     1     -39.775  51.571 -51.877  1.00  0.00     0.043 A 
HETATM   10  C   UNL     1     -40.377  51.579 -54.211  1.00  0.00     0.014 A 
HETATM   11  C   UNL     1     -39.414  50.220 -51.929  1.00  0.00     0.030 A 
HETATM   12  N   UNL     1     -39.751  52.450 -50.820  1.00  0.00    -0.364 N 
HETATM   13  C   UNL     1     -39.545  49.560 -53.153  1.00  0.00     0.002 A 
HETATM   14  C   UNL     1     -40.017  50.227 -54.280  1.00  0.00     0.001 A 
HETATM   15  H   UNL     1     -39.449  52.219 -49.884  1.00  0.00     0.165 HD
HETATM   16  C   UNL     1     -40.204  53.676 -51.218  1.00  0.00     0.102 A 
ENDBRANCH   6   7
ENDBRANCH   2   5
BRANCH   1  17
HETATM   17  C   UNL     1     -43.433  56.694 -56.491  1.00  0.00     0.068 A 
HETATM   18  C   UNL     1     -44.307  57.751 -56.172  1.00  0.00     0.084 A 
HETATM   19  C   UNL     1     -44.418  58.838 -57.052  1.00  0.00     0.039 A 
HETATM   20  C   UNL     1     -43.703  58.861 -58.253  1.00  0.00     0.022 A 
HETATM   21  C   UNL     1     -42.869  57.798 -58.580  1.00  0.00     0.012 A 
HETATM   22  C   UNL     1     -42.730  56.722 -57.709  1.00  0.00     0.039 A 
HETATM   23 BR   UNL     1     -41.902  57.829 -60.203  1.00  0.00    -0.051 Br
BRANCH  18  24
HETATM   24  O   UNL     1     -44.997  57.695 -54.986  1.00  0.00    -0.350 OA
BRANCH  24  25
HETATM   25  C   UNL     1     -44.799  58.805 -54.100  1.00  0.00     0.171 C 
HETATM   26  C   UNL     1     -44.828  58.282 -52.675  1.00  0.00     0.034 C 
ENDBRANCH  24  25
ENDBRANCH  18  24
ENDBRANCH   1  17
TORSDOF 5
ENDMDL
MODEL 6
REMARK VINA RESULT:      -7.3      2.105      3.041
REMARK  5 active torsions:
REMARK  status: ('A' for Active; 'I' for Inactive)
REMARK    1  A    between atoms: C_2  and  O_3 
REMARK    2  A    between atoms: O_3  and  C_4 
REMARK    3  A    between atoms: C_5  and  C_6 
REMARK       I    between atoms: C_6  and  N_7 
REMARK    4  A    between atoms: N_7  and  N_8 
REMARK    5  A    between atoms: C_9  and  C_10 
ROOT
HETATM    1  C   UNL     1     -43.415  56.480 -55.167  1.00  0.00     0.274 C 
HETATM    2  N   UNL     1     -42.174  55.865 -55.182  1.00  0.00    -0.243 N 
HETATM    3  O   UNL     1     -44.297  56.251 -54.342  1.00  0.00    -0.266 OA
HETATM    4  H   UNL     1     -41.492  56.124 -55.889  1.00  0.00     0.192 HD
ENDROOT
BRANCH   2   5
HETATM    5  N   UNL     1     -41.928  54.832 -54.326  1.00  0.00    -0.183 NA
HETATM    6  C   UNL     1     -40.785  54.847 -53.721  1.00  0.00     0.152 C 
BRANCH   6   7
HETATM    7  C   UNL     1     -40.440  53.744 -52.848  1.00  0.00     0.011 A 
HETATM    8  C   UNL     1     -40.185  52.380 -53.209  1.00  0.00     0.004 A 
HETATM    9  C   UNL     1     -39.928  51.678 -52.028  1.00  0.00     0.043 A 
HETATM   10  C   UNL     1     -40.159  51.669 -54.427  1.00  0.00     0.014 A 
HETATM   11  C   UNL     1     -39.651  50.307 -52.004  1.00  0.00     0.030 A 
HETATM   12  N   UNL     1     -40.011  52.579 -50.992  1.00  0.00    -0.364 N 
HETATM   13  C   UNL     1     -39.633  49.627 -53.225  1.00  0.00     0.002 A 
HETATM   14  C   UNL     1     -39.881  50.296 -54.420  1.00  0.00     0.001 A 
HETATM   15  H   UNL     1     -39.873  52.351 -50.017  1.00  0.00     0.165 HD
HETATM   16  C   UNL     1     -40.317  53.821 -51.473  1.00  0.00     0.102 A 
ENDBRANCH   6   7
ENDBRANCH   2   5
BRANCH   1  17
HETATM   17  C   UNL     1     -43.699  57.439 -56.280  1.00  0.00     0.068 A 
HETATM   18  C   UNL     1     -43.710  57.095 -57.646  1.00  0.00     0.084 A 
HETATM   19  C   UNL     1     -44.056  58.068 -58.595  1.00  0.00     0.039 A 
HETATM   20  C   UNL     1     -44.347  59.378 -58.202  1.00  0.00     0.022 A 
HETATM   21  C   UNL     1     -44.300  59.721 -56.856  1.00  0.00     0.012 A 
HETATM   22  C   UNL     1     -43.980  58.764 -55.899  1.00  0.00     0.039 A 
HETATM   23 BR   UNL     1     -44.694  61.491 -56.325  1.00  0.00    -0.051 Br
BRANCH  18  24
HETATM   24  O   UNL     1     -43.416  55.800 -57.997  1.00  0.00    -0.350 OA
BRANCH  24  25
HETATM   25  C   UNL     1     -43.488  55.507 -59.398  1.00  0.00     0.171 C 
HETATM   26  C   UNL     1     -44.437  54.338 -59.587  1.00  0.00     0.034 C 
ENDBRANCH  24  25
ENDBRANCH  18  24
ENDBRANCH   1  17
TORSDOF 5
ENDMDL
MODEL 7
REMARK VINA RESULT:      -7.3      2.974      8.371
REMARK  5 active torsions:
REMARK  status: ('A' for Active; 'I' for Inactive)
REMARK    1  A    between atoms: C_2  and  O_3 
REMARK    2  A    between atoms: O_3  and  C_4 
REMARK    3  A    between atoms: C_5  and  C_6 
REMARK       I    between atoms: C_6  and  N_7 
REMARK    4  A    between atoms: N_7  and  N_8 
REMARK    5  A    between atoms: C_9  and  C_10 
ROOT
HETATM    1  C   UNL     1     -42.478  54.497 -54.986  1.00  0.00     0.274 C 
HETATM    2  N   UNL     1     -41.897  55.046 -56.116  1.00  0.00    -0.243 N 
HETATM    3  O   UNL     1     -43.663  54.618 -54.682  1.00  0.00    -0.266 OA
HETATM    4  H   UNL     1     -40.912  54.885 -56.306  1.00  0.00     0.192 HD
ENDROOT
BRANCH   2   5
HETATM    5  N   UNL     1     -42.622  55.901 -56.894  1.00  0.00    -0.183 NA
HETATM    6  C   UNL     1     -42.879  55.504 -58.097  1.00  0.00     0.152 C 
BRANCH   6   7
HETATM    7  C   UNL     1     -43.591  56.394 -58.992  1.00  0.00     0.011 A 
HETATM    8  C   UNL     1     -43.226  57.721 -59.390  1.00  0.00     0.004 A 
HETATM    9  C   UNL     1     -44.234  58.195 -60.233  1.00  0.00     0.043 A 
HETATM   10  C   UNL     1     -42.138  58.574 -59.107  1.00  0.00     0.014 A 
HETATM   11  C   UNL     1     -44.212  59.475 -60.801  1.00  0.00     0.030 A 
HETATM   12  N   UNL     1     -45.170  57.195 -60.353  1.00  0.00    -0.364 N 
HETATM   13  C   UNL     1     -43.123  60.298 -60.502  1.00  0.00     0.002 A 
HETATM   14  C   UNL     1     -42.099  59.856 -59.669  1.00  0.00     0.001 A 
HETATM   15  H   UNL     1     -46.015  57.258 -60.902  1.00  0.00     0.165 HD
HETATM   16  C   UNL     1     -44.793  56.109 -59.614  1.00  0.00     0.102 A 
ENDBRANCH   6   7
ENDBRANCH   2   5
BRANCH   1  17
HETATM   17  C   UNL     1     -41.565  53.763 -54.055  1.00  0.00     0.068 A 
HETATM   18  C   UNL     1     -41.146  54.248 -52.801  1.00  0.00     0.084 A 
HETATM   19  C   UNL     1     -40.340  53.438 -51.987  1.00  0.00     0.039 A 
HETATM   20  C   UNL     1     -39.920  52.179 -52.425  1.00  0.00     0.022 A 
HETATM   21  C   UNL     1     -40.307  51.719 -53.678  1.00  0.00     0.012 A 
HETATM   22  C   UNL     1     -41.123  52.500 -54.490  1.00  0.00     0.039 A 
HETATM   23 BR   UNL     1     -39.738  50.017 -54.270  1.00  0.00    -0.051 Br
BRANCH  18  24
HETATM   24  O   UNL     1     -41.575  55.491 -52.403  1.00  0.00    -0.350 OA
BRANCH  24  25
HETATM   25  C   UNL     1     -42.034  55.584 -51.049  1.00  0.00     0.171 C 
HETATM   26  C   UNL     1     -43.463  55.075 -50.999  1.00  0.00     0.034 C 
ENDBRANCH  24  25
ENDBRANCH  18  24
ENDBRANCH   1  17
TORSDOF 5
ENDMDL
MODEL 8
REMARK VINA RESULT:      -7.3      4.846      5.627
REMARK  5 active torsions:
REMARK  status: ('A' for Active; 'I' for Inactive)
REMARK    1  A    between atoms: C_2  and  O_3 
REMARK    2  A    between atoms: O_3  and  C_4 
REMARK    3  A    between atoms: C_5  and  C_6 
REMARK       I    between atoms: C_6  and  N_7 
REMARK    4  A    between atoms: N_7  and  N_8 
REMARK    5  A    between atoms: C_9  and  C_10 
ROOT
HETATM    1  C   UNL     1     -43.500  57.528 -51.946  1.00  0.00     0.274 C 
HETATM    2  N   UNL     1     -42.966  56.938 -50.813  1.00  0.00    -0.243 N 
HETATM    3  O   UNL     1     -43.759  56.930 -52.988  1.00  0.00    -0.266 OA
HETATM    4  H   UNL     1     -42.797  57.499 -49.983  1.00  0.00     0.192 HD
ENDROOT
BRANCH   2   5
HETATM    5  N   UNL     1     -42.556  55.637 -50.865  1.00  0.00    -0.183 NA
HETATM    6  C   UNL     1     -41.280  55.434 -50.813  1.00  0.00     0.152 C 
BRANCH   6   7
HETATM    7  C   UNL     1     -40.781  54.080 -50.927  1.00  0.00     0.011 A 
HETATM    8  C   UNL     1     -40.484  53.347 -52.122  1.00  0.00     0.004 A 
HETATM    9  C   UNL     1     -40.064  52.071 -51.736  1.00  0.00     0.043 A 
HETATM   10  C   UNL     1     -40.541  53.641 -53.501  1.00  0.00     0.014 A 
HETATM   11  C   UNL     1     -39.704  51.078 -52.654  1.00  0.00     0.030 A 
HETATM   12  N   UNL     1     -40.092  52.032 -50.362  1.00  0.00    -0.364 N 
HETATM   13  C   UNL     1     -39.772  51.397 -54.013  1.00  0.00     0.002 A 
HETATM   14  C   UNL     1     -40.183  52.659 -54.433  1.00  0.00     0.001 A 
HETATM   15  H   UNL     1     -39.841  51.229 -49.802  1.00  0.00     0.165 HD
HETATM   16  C   UNL     1     -40.520  53.231 -49.866  1.00  0.00     0.102 A 
ENDBRANCH   6   7
ENDBRANCH   2   5
BRANCH   1  17
HETATM   17  C   UNL     1     -43.708  59.009 -51.892  1.00  0.00     0.068 A 
HETATM   18  C   UNL     1     -42.677  59.954 -51.728  1.00  0.00     0.084 A 
HETATM   19  C   UNL     1     -42.988  61.322 -51.759  1.00  0.00     0.039 A 
HETATM   20  C   UNL     1     -44.310  61.750 -51.911  1.00  0.00     0.022 A 
HETATM   21  C   UNL     1     -45.329  60.812 -52.037  1.00  0.00     0.012 A 
HETATM   22  C   UNL     1     -45.036  59.453 -52.030  1.00  0.00     0.039 A 
HETATM   23 BR   UNL     1     -47.116  61.392 -52.243  1.00  0.00    -0.051 Br
BRANCH  18  24
HETATM   24  O   UNL     1     -41.389  59.499 -51.578  1.00  0.00    -0.350 OA
BRANCH  24  25
HETATM   25  C   UNL     1     -40.802  59.714 -50.288  1.00  0.00     0.171 C 
HETATM   26  C   UNL     1     -39.294  59.621 -50.436  1.00  0.00     0.034 C 
ENDBRANCH  24  25
ENDBRANCH  18  24
ENDBRANCH   1  17
TORSDOF 5
ENDMDL
MODEL 9
REMARK VINA RESULT:      -7.3      4.652      5.906
REMARK  5 active torsions:
REMARK  status: ('A' for Active; 'I' for Inactive)
REMARK    1  A    between atoms: C_2  and  O_3 
REMARK    2  A    between atoms: O_3  and  C_4 
REMARK    3  A    between atoms: C_5  and  C_6 
REMARK       I    between atoms: C_6  and  N_7 
REMARK    4  A    between atoms: N_7  and  N_8 
REMARK    5  A    between atoms: C_9  and  C_10 
ROOT
HETATM    1  C   UNL     1     -44.334  57.694 -50.988  1.00  0.00     0.274 C 
HETATM    2  N   UNL     1     -42.950  57.737 -50.986  1.00  0.00    -0.243 N 
HETATM    3  O   UNL     1     -45.003  56.740 -50.595  1.00  0.00    -0.266 OA
HETATM    4  H   UNL     1     -42.471  58.572 -51.312  1.00  0.00     0.192 HD
ENDROOT
BRANCH   2   5
HETATM    5  N   UNL     1     -42.246  56.614 -50.667  1.00  0.00    -0.183 NA
HETATM    6  C   UNL     1     -41.826  55.897 -51.658  1.00  0.00     0.152 C 
BRANCH   6   7
HETATM    7  C   UNL     1     -41.127  54.659 -51.381  1.00  0.00     0.011 A 
HETATM    8  C   UNL     1     -40.684  53.668 -52.317  1.00  0.00     0.004 A 
HETATM    9  C   UNL     1     -40.092  52.637 -51.583  1.00  0.00     0.043 A 
HETATM   10  C   UNL     1     -40.739  53.541 -53.721  1.00  0.00     0.014 A 
HETATM   11  C   UNL     1     -39.558  51.489 -52.179  1.00  0.00     0.030 A 
HETATM   12  N   UNL     1     -40.160  52.990 -50.256  1.00  0.00    -0.364 N 
HETATM   13  C   UNL     1     -39.628  51.389 -53.571  1.00  0.00     0.002 A 
HETATM   14  C   UNL     1     -40.207  52.399 -54.334  1.00  0.00     0.001 A 
HETATM   15  H   UNL     1     -39.810  52.430 -49.491  1.00  0.00     0.165 HD
HETATM   16  C   UNL     1     -40.778  54.201 -50.123  1.00  0.00     0.102 A 
ENDBRANCH   6   7
ENDBRANCH   2   5
BRANCH   1  17
HETATM   17  C   UNL     1     -45.039  58.878 -51.571  1.00  0.00     0.068 A 
HETATM   18  C   UNL     1     -45.760  59.827 -50.821  1.00  0.00     0.084 A 
HETATM   19  C   UNL     1     -46.324  60.933 -51.475  1.00  0.00     0.039 A 
HETATM   20  C   UNL     1     -46.210  61.078 -52.860  1.00  0.00     0.022 A 
HETATM   21  C   UNL     1     -45.528  60.120 -53.601  1.00  0.00     0.012 A 
HETATM   22  C   UNL     1     -44.944  59.028 -52.967  1.00  0.00     0.039 A 
HETATM   23 BR   UNL     1     -45.374  60.317 -55.474  1.00  0.00    -0.051 Br
BRANCH  18  24
HETATM   24  O   UNL     1     -45.855  59.652 -49.462  1.00  0.00    -0.350 OA
BRANCH  24  25
HETATM   25  C   UNL     1     -45.448  60.770 -48.663  1.00  0.00     0.171 C 
HETATM   26  C   UNL     1     -45.821  60.480 -47.221  1.00  0.00     0.034 C 
ENDBRANCH  24  25
ENDBRANCH  18  24
ENDBRANCH   1  17
TORSDOF 5
ENDMDL
MODEL 10
REMARK VINA RESULT:      -7.3      2.067      3.616
REMARK  5 active torsions:
REMARK  status: ('A' for Active; 'I' for Inactive)
REMARK    1  A    between atoms: C_2  and  O_3 
REMARK    2  A    between atoms: O_3  and  C_4 
REMARK    3  A    between atoms: C_5  and  C_6 
REMARK       I    between atoms: C_6  and  N_7 
REMARK    4  A    between atoms: N_7  and  N_8 
REMARK    5  A    between atoms: C_9  and  C_10 
ROOT
HETATM    1  C   UNL     1     -42.370  56.627 -56.378  1.00  0.00     0.274 C 
HETATM    2  N   UNL     1     -41.728  55.401 -56.434  1.00  0.00    -0.243 N 
HETATM    3  O   UNL     1     -42.773  57.157 -55.346  1.00  0.00    -0.266 OA
HETATM    4  H   UNL     1     -41.408  55.039 -57.328  1.00  0.00     0.192 HD
ENDROOT
BRANCH   2   5
HETATM    5  N   UNL     1     -41.643  54.638 -55.306  1.00  0.00    -0.183 NA
HETATM    6  C   UNL     1     -40.468  54.192 -55.001  1.00  0.00     0.152 C 
BRANCH   6   7
HETATM    7  C   UNL     1     -40.324  53.324 -53.851  1.00  0.00     0.011 A 
HETATM    8  C   UNL     1     -40.551  53.642 -52.472  1.00  0.00     0.004 A 
HETATM    9  C   UNL     1     -40.249  52.499 -51.726  1.00  0.00     0.043 A 
HETATM   10  C   UNL     1     -40.974  54.797 -51.781  1.00  0.00     0.014 A 
HETATM   11  C   UNL     1     -40.346  52.455 -50.330  1.00  0.00     0.030 A 
HETATM   12  N   UNL     1     -39.866  51.522 -52.614  1.00  0.00    -0.364 N 
HETATM   13  C   UNL     1     -40.766  53.614 -49.672  1.00  0.00     0.002 A 
HETATM   14  C   UNL     1     -41.078  54.769 -50.385  1.00  0.00     0.001 A 
HETATM   15  H   UNL     1     -39.587  50.586 -52.356  1.00  0.00     0.165 HD
HETATM   16  C   UNL     1     -39.908  52.005 -53.891  1.00  0.00     0.102 A 
ENDBRANCH   6   7
ENDBRANCH   2   5
BRANCH   1  17
HETATM   17  C   UNL     1     -42.635  57.302 -57.687  1.00  0.00     0.068 A 
HETATM   18  C   UNL     1     -43.286  56.696 -58.780  1.00  0.00     0.084 A 
HETATM   19  C   UNL     1     -43.537  57.453 -59.934  1.00  0.00     0.039 A 
HETATM   20  C   UNL     1     -43.111  58.781 -60.024  1.00  0.00     0.022 A 
HETATM   21  C   UNL     1     -42.436  59.363 -58.956  1.00  0.00     0.012 A 
HETATM   22  C   UNL     1     -42.199  58.635 -57.796  1.00  0.00     0.039 A 
HETATM   23 BR   UNL     1     -41.862  61.160 -59.078  1.00  0.00    -0.051 Br
BRANCH  18  24
HETATM   24  O   UNL     1     -43.688  55.388 -58.659  1.00  0.00    -0.350 OA
BRANCH  24  25
HETATM   25  C   UNL     1     -44.528  54.898 -59.712  1.00  0.00     0.171 C 
HETATM   26  C   UNL     1     -44.758  53.416 -59.481  1.00  0.00     0.034 C 
ENDBRANCH  24  25
ENDBRANCH  18  24
ENDBRANCH   1  17
TORSDOF 5
ENDMDL
