MODEL 1
REMARK VINA RESULT:      -9.0      0.000      0.000
REMARK  8 active torsions:
REMARK  status: ('A' for Active; 'I' for Inactive)
REMARK    1  A    between atoms: C_2  and  O_3 
REMARK    2  A    between atoms: O_3  and  C_4 
REMARK    3  A    between atoms: C_5  and  C_6 
REMARK    4  A    between atoms: C_6  and  N_7 
REMARK    5  A    between atoms: C_9  and  C_10 
REMARK    6  A    between atoms: C_10  and  C_11 
REMARK       I    between atoms: C_11  and  N_12 
REMARK    7  A    between atoms: N_12  and  C_13 
REMARK    8  A    between atoms: C_13  and  C_14 
ROOT
HETATM    1  N   UNL     1     -41.554  54.348 -53.790  1.00  0.00    -0.052 N 
HETATM    2  H   UNL     1     -41.996  53.687 -53.136  1.00  0.00     0.281 HD
HETATM    3  C   UNL     1     -41.501  55.601 -52.891  1.00  0.00     0.288 C 
HETATM    4  C   UNL     1     -42.907  55.986 -52.382  1.00  0.00     0.249 C 
HETATM    5  O   UNL     1     -43.074  56.787 -51.468  1.00  0.00    -0.271 OA
HETATM    6  N   UNL     1     -43.976  55.330 -52.938  1.00  0.00    -0.358 N 
HETATM    7  C   UNL     1     -43.982  54.709 -54.259  1.00  0.00     0.150 C 
HETATM    8  C   UNL     1     -42.603  54.396 -54.870  1.00  0.00     0.256 C 
HETATM    9  H   UNL     1     -44.868  55.659 -52.576  1.00  0.00     0.162 HD
ENDROOT
BRANCH   3  10
HETATM   10  C   UNL     1     -40.742  56.828 -53.399  1.00  0.00     0.145 C 
BRANCH  10  11
HETATM   11  C   UNL     1     -41.614  57.903 -53.999  1.00  0.00     0.220 C 
HETATM   12  N   UNL     1     -42.081  57.616 -55.255  1.00  0.00    -0.355 N 
HETATM   13  H   UNL     1     -41.713  56.828 -55.776  1.00  0.00     0.162 HD
HETATM   14  O   UNL     1     -41.896  58.935 -53.399  1.00  0.00    -0.274 OA
BRANCH  12  15
HETATM   15  C   UNL     1     -43.016  58.472 -55.947  1.00  0.00     0.179 C 
BRANCH  15  16
HETATM   16  C   UNL     1     -43.501  57.767 -57.153  1.00  0.00     0.028 A 
HETATM   17  N   UNL     1     -44.756  57.984 -57.673  1.00  0.00    -0.357 N 
HETATM   18  H   UNL     1     -45.431  58.644 -57.307  1.00  0.00     0.166 HD
HETATM   19  C   UNL     1     -44.982  57.157 -58.750  1.00  0.00     0.043 A 
HETATM   20  C   UNL     1     -43.832  56.385 -58.922  1.00  0.00    -0.005 A 
HETATM   21  C   UNL     1     -46.112  57.025 -59.567  1.00  0.00     0.033 A 
HETATM   22  C   UNL     1     -42.905  56.786 -57.921  1.00  0.00     0.040 A 
HETATM   23  C   UNL     1     -43.803  55.429 -59.952  1.00  0.00     0.056 A 
HETATM   24  C   UNL     1     -44.926  55.289 -60.766  1.00  0.00     0.117 A 
HETATM   25  C   UNL     1     -46.061  56.070 -60.586  1.00  0.00     0.044 A 
HETATM   26  F   UNL     1     -44.911  54.375 -61.746  1.00  0.00    -0.206 F 
ENDBRANCH  15  16
ENDBRANCH  12  15
ENDBRANCH  10  11
ENDBRANCH   3  10
BRANCH   1  27
HETATM   27  C   UNL     1     -40.272  53.614 -54.105  1.00  0.00     0.277 C 
BRANCH  27  28
HETATM   28  C   UNL     1     -40.049  52.203 -53.628  1.00  0.00     0.001 A 
HETATM   29  C   UNL     1     -39.742  51.991 -52.266  1.00  0.00     0.076 A 
HETATM   30  C   UNL     1     -39.476  50.707 -51.781  1.00  0.00     0.037 A 
HETATM   31  C   UNL     1     -39.591  49.606 -52.624  1.00  0.00     0.003 A 
HETATM   32  C   UNL     1     -39.992  49.786 -53.943  1.00  0.00     0.001 A 
HETATM   33  C   UNL     1     -40.234  51.072 -54.437  1.00  0.00     0.012 A 
BRANCH  29  34
HETATM   34  O   UNL     1     -39.709  53.107 -51.466  1.00  0.00    -0.351 OA
BRANCH  34  35
HETATM   35  C   UNL     1     -40.330  52.955 -50.181  1.00  0.00     0.171 C 
HETATM   36  C   UNL     1     -40.201  54.274 -49.443  1.00  0.00     0.034 C 
ENDBRANCH  34  35
ENDBRANCH  29  34
ENDBRANCH  27  28
ENDBRANCH   1  27
TORSDOF 8
ENDMDL
MODEL 2
REMARK VINA RESULT:      -8.8      1.673      2.262
REMARK  8 active torsions:
REMARK  status: ('A' for Active; 'I' for Inactive)
REMARK    1  A    between atoms: C_2  and  O_3 
REMARK    2  A    between atoms: O_3  and  C_4 
REMARK    3  A    between atoms: C_5  and  C_6 
REMARK    4  A    between atoms: C_6  and  N_7 
REMARK    5  A    between atoms: C_9  and  C_10 
REMARK    6  A    between atoms: C_10  and  C_11 
REMARK       I    between atoms: C_11  and  N_12 
REMARK    7  A    between atoms: N_12  and  C_13 
REMARK    8  A    between atoms: C_13  and  C_14 
ROOT
HETATM    1  N   UNL     1     -42.367  55.079 -52.504  1.00  0.00    -0.052 N 
HETATM    2  H   UNL     1     -41.927  55.552 -51.703  1.00  0.00     0.281 HD
HETATM    3  C   UNL     1     -43.253  56.231 -53.025  1.00  0.00     0.288 C 
HETATM    4  C   UNL     1     -44.211  56.742 -51.928  1.00  0.00     0.249 C 
HETATM    5  O   UNL     1     -44.825  57.799 -52.036  1.00  0.00    -0.271 OA
HETATM    6  N   UNL     1     -44.292  56.005 -50.773  1.00  0.00    -0.358 N 
HETATM    7  C   UNL     1     -43.985  54.582 -50.665  1.00  0.00     0.150 C 
HETATM    8  C   UNL     1     -43.118  53.986 -51.790  1.00  0.00     0.256 C 
HETATM    9  H   UNL     1     -44.964  56.386 -50.112  1.00  0.00     0.162 HD
ENDROOT
BRANCH   3  10
HETATM   10  C   UNL     1     -43.987  56.039 -54.353  1.00  0.00     0.145 C 
BRANCH  10  11
HETATM   11  C   UNL     1     -43.425  56.838 -55.504  1.00  0.00     0.220 C 
HETATM   12  N   UNL     1     -43.258  56.122 -56.660  1.00  0.00    -0.355 N 
HETATM   13  H   UNL     1     -43.344  55.112 -56.660  1.00  0.00     0.162 HD
HETATM   14  O   UNL     1     -43.164  58.033 -55.412  1.00  0.00    -0.274 OA
BRANCH  12  15
HETATM   15  C   UNL     1     -42.835  56.737 -57.897  1.00  0.00     0.179 C 
BRANCH  15  16
HETATM   16  C   UNL     1     -44.003  56.840 -58.799  1.00  0.00     0.028 A 
HETATM   17  N   UNL     1     -44.650  58.033 -59.024  1.00  0.00    -0.357 N 
HETATM   18  H   UNL     1     -44.379  58.925 -58.629  1.00  0.00     0.166 HD
HETATM   19  C   UNL     1     -45.739  57.844 -59.844  1.00  0.00     0.043 A 
HETATM   20  C   UNL     1     -45.789  56.483 -60.152  1.00  0.00    -0.005 A 
HETATM   21  C   UNL     1     -46.682  58.763 -60.320  1.00  0.00     0.033 A 
HETATM   22  C   UNL     1     -44.687  55.866 -59.499  1.00  0.00     0.040 A 
HETATM   23  C   UNL     1     -46.831  56.008 -60.966  1.00  0.00     0.056 A 
HETATM   24  C   UNL     1     -47.776  56.917 -61.440  1.00  0.00     0.117 A 
HETATM   25  C   UNL     1     -47.709  58.270 -61.130  1.00  0.00     0.044 A 
HETATM   26  F   UNL     1     -48.778  56.472 -62.211  1.00  0.00    -0.206 F 
ENDBRANCH  15  16
ENDBRANCH  12  15
ENDBRANCH  10  11
ENDBRANCH   3  10
BRANCH   1  27
HETATM   27  C   UNL     1     -41.146  54.676 -53.296  1.00  0.00     0.277 C 
BRANCH  27  28
HETATM   28  C   UNL     1     -40.639  53.258 -53.272  1.00  0.00     0.001 A 
HETATM   29  C   UNL     1     -39.971  52.800 -52.115  1.00  0.00     0.076 A 
HETATM   30  C   UNL     1     -39.435  51.510 -52.058  1.00  0.00     0.037 A 
HETATM   31  C   UNL     1     -39.628  50.629 -53.119  1.00  0.00     0.003 A 
HETATM   32  C   UNL     1     -40.370  51.030 -54.223  1.00  0.00     0.001 A 
HETATM   33  C   UNL     1     -40.885  52.328 -54.292  1.00  0.00     0.012 A 
BRANCH  29  34
HETATM   34  O   UNL     1     -39.870  53.690 -51.074  1.00  0.00    -0.351 OA
BRANCH  34  35
HETATM   35  C   UNL     1     -40.267  53.178 -49.794  1.00  0.00     0.171 C 
HETATM   36  C   UNL     1     -40.608  54.360 -48.905  1.00  0.00     0.034 C 
ENDBRANCH  34  35
ENDBRANCH  29  34
ENDBRANCH  27  28
ENDBRANCH   1  27
TORSDOF 8
ENDMDL
MODEL 3
REMARK VINA RESULT:      -8.8      1.816      2.682
REMARK  8 active torsions:
REMARK  status: ('A' for Active; 'I' for Inactive)
REMARK    1  A    between atoms: C_2  and  O_3 
REMARK    2  A    between atoms: O_3  and  C_4 
REMARK    3  A    between atoms: C_5  and  C_6 
REMARK    4  A    between atoms: C_6  and  N_7 
REMARK    5  A    between atoms: C_9  and  C_10 
REMARK    6  A    between atoms: C_10  and  C_11 
REMARK       I    between atoms: C_11  and  N_12 
REMARK    7  A    between atoms: N_12  and  C_13 
REMARK    8  A    between atoms: C_13  and  C_14 
ROOT
HETATM    1  N   UNL     1     -41.707  56.118 -52.181  1.00  0.00    -0.052 N 
HETATM    2  H   UNL     1     -40.751  55.864 -51.895  1.00  0.00     0.281 HD
HETATM    3  C   UNL     1     -41.382  57.220 -53.211  1.00  0.00     0.288 C 
HETATM    4  C   UNL     1     -40.540  58.349 -52.578  1.00  0.00     0.249 C 
HETATM    5  O   UNL     1     -39.963  59.193 -53.256  1.00  0.00    -0.271 OA
HETATM    6  N   UNL     1     -40.386  58.327 -51.215  1.00  0.00    -0.358 N 
HETATM    7  C   UNL     1     -41.306  57.689 -50.279  1.00  0.00     0.150 C 
HETATM    8  C   UNL     1     -42.251  56.626 -50.871  1.00  0.00     0.256 C 
HETATM    9  H   UNL     1     -39.846  59.117 -50.869  1.00  0.00     0.162 HD
ENDROOT
BRANCH   3  10
HETATM   10  C   UNL     1     -42.526  57.790 -54.051  1.00  0.00     0.145 C 
BRANCH  10  11
HETATM   11  C   UNL     1     -42.340  57.654 -55.542  1.00  0.00     0.220 C 
HETATM   12  N   UNL     1     -42.415  58.837 -56.230  1.00  0.00    -0.355 N 
HETATM   13  H   UNL     1     -42.744  59.681 -55.774  1.00  0.00     0.162 HD
HETATM   14  O   UNL     1     -42.116  56.577 -56.085  1.00  0.00    -0.274 OA
BRANCH  12  15
HETATM   15  C   UNL     1     -42.155  58.926 -57.648  1.00  0.00     0.179 C 
BRANCH  15  16
HETATM   16  C   UNL     1     -43.240  58.232 -58.374  1.00  0.00     0.028 A 
HETATM   17  N   UNL     1     -43.040  57.031 -59.015  1.00  0.00    -0.357 N 
HETATM   18  H   UNL     1     -42.169  56.516 -59.026  1.00  0.00     0.166 HD
HETATM   19  C   UNL     1     -44.186  56.635 -59.667  1.00  0.00     0.043 A 
HETATM   20  C   UNL     1     -45.150  57.618 -59.434  1.00  0.00    -0.005 A 
HETATM   21  C   UNL     1     -44.436  55.500 -60.448  1.00  0.00     0.033 A 
HETATM   22  C   UNL     1     -44.547  58.609 -58.612  1.00  0.00     0.040 A 
HETATM   23  C   UNL     1     -46.423  57.472 -60.012  1.00  0.00     0.056 A 
HETATM   24  C   UNL     1     -46.676  56.347 -60.795  1.00  0.00     0.117 A 
HETATM   25  C   UNL     1     -45.708  55.374 -61.012  1.00  0.00     0.044 A 
HETATM   26  F   UNL     1     -47.884  56.203 -61.357  1.00  0.00    -0.206 F 
ENDBRANCH  15  16
ENDBRANCH  12  15
ENDBRANCH  10  11
ENDBRANCH   3  10
BRANCH   1  27
HETATM   27  C   UNL     1     -42.216  54.782 -52.669  1.00  0.00     0.277 C 
BRANCH  27  28
HETATM   28  C   UNL     1     -41.278  53.622 -52.874  1.00  0.00     0.001 A 
HETATM   29  C   UNL     1     -40.630  53.071 -51.747  1.00  0.00     0.076 A 
HETATM   30  C   UNL     1     -39.710  52.027 -51.886  1.00  0.00     0.037 A 
HETATM   31  C   UNL     1     -39.484  51.461 -53.137  1.00  0.00     0.003 A 
HETATM   32  C   UNL     1     -40.189  51.923 -54.242  1.00  0.00     0.001 A 
HETATM   33  C   UNL     1     -41.090  52.984 -54.109  1.00  0.00     0.012 A 
BRANCH  29  34
HETATM   34  O   UNL     1     -40.943  53.625 -50.530  1.00  0.00    -0.351 OA
BRANCH  34  35
HETATM   35  C   UNL     1     -39.818  54.015 -49.730  1.00  0.00     0.171 C 
HETATM   36  C   UNL     1     -40.283  54.114 -48.289  1.00  0.00     0.034 C 
ENDBRANCH  34  35
ENDBRANCH  29  34
ENDBRANCH  27  28
ENDBRANCH   1  27
TORSDOF 8
ENDMDL
MODEL 4
REMARK VINA RESULT:      -8.8      3.792      7.032
REMARK  8 active torsions:
REMARK  status: ('A' for Active; 'I' for Inactive)
REMARK    1  A    between atoms: C_2  and  O_3 
REMARK    2  A    between atoms: O_3  and  C_4 
REMARK    3  A    between atoms: C_5  and  C_6 
REMARK    4  A    between atoms: C_6  and  N_7 
REMARK    5  A    between atoms: C_9  and  C_10 
REMARK    6  A    between atoms: C_10  and  C_11 
REMARK       I    between atoms: C_11  and  N_12 
REMARK    7  A    between atoms: N_12  and  C_13 
REMARK    8  A    between atoms: C_13  and  C_14 
ROOT
HETATM    1  N   UNL     1     -44.057  58.143 -52.526  1.00  0.00    -0.052 N 
HETATM    2  H   UNL     1     -43.339  58.775 -52.144  1.00  0.00     0.281 HD
HETATM    3  C   UNL     1     -43.288  57.593 -53.746  1.00  0.00     0.288 C 
HETATM    4  C   UNL     1     -42.823  58.734 -54.677  1.00  0.00     0.249 C 
HETATM    5  O   UNL     1     -41.995  58.557 -55.564  1.00  0.00    -0.271 OA
HETATM    6  N   UNL     1     -43.312  59.990 -54.421  1.00  0.00    -0.358 N 
HETATM    7  C   UNL     1     -44.563  60.276 -53.726  1.00  0.00     0.150 C 
HETATM    8  C   UNL     1     -45.137  59.137 -52.862  1.00  0.00     0.256 C 
HETATM    9  H   UNL     1     -42.986  60.681 -55.093  1.00  0.00     0.162 HD
ENDROOT
BRANCH   3  10
HETATM   10  C   UNL     1     -43.917  56.450 -54.545  1.00  0.00     0.145 C 
BRANCH  10  11
HETATM   11  C   UNL     1     -42.946  55.669 -55.396  1.00  0.00     0.220 C 
HETATM   12  N   UNL     1     -41.765  55.365 -54.771  1.00  0.00    -0.355 N 
HETATM   13  H   UNL     1     -41.525  55.792 -53.883  1.00  0.00     0.162 HD
HETATM   14  O   UNL     1     -43.207  55.318 -56.542  1.00  0.00    -0.274 OA
BRANCH  12  15
HETATM   15  C   UNL     1     -40.757  54.531 -55.383  1.00  0.00     0.179 C 
BRANCH  15  16
HETATM   16  C   UNL     1     -40.401  53.447 -54.442  1.00  0.00     0.028 A 
HETATM   17  N   UNL     1     -40.232  52.146 -54.855  1.00  0.00    -0.357 N 
HETATM   18  H   UNL     1     -40.305  51.826 -55.813  1.00  0.00     0.166 HD
HETATM   19  C   UNL     1     -39.974  51.328 -53.779  1.00  0.00     0.043 A 
HETATM   20  C   UNL     1     -39.980  52.135 -52.640  1.00  0.00    -0.005 A 
HETATM   21  C   UNL     1     -39.752  49.946 -53.726  1.00  0.00     0.033 A 
HETATM   22  C   UNL     1     -40.237  53.465 -53.071  1.00  0.00     0.040 A 
HETATM   23  C   UNL     1     -39.762  51.541 -51.385  1.00  0.00     0.056 A 
HETATM   24  C   UNL     1     -39.546  50.166 -51.325  1.00  0.00     0.117 A 
HETATM   25  C   UNL     1     -39.536  49.377 -52.468  1.00  0.00     0.044 A 
HETATM   26  F   UNL     1     -39.345  49.589 -50.132  1.00  0.00    -0.206 F 
ENDBRANCH  15  16
ENDBRANCH  12  15
ENDBRANCH  10  11
ENDBRANCH   3  10
BRANCH   1  27
HETATM   27  C   UNL     1     -44.293  57.240 -51.338  1.00  0.00     0.277 C 
BRANCH  27  28
HETATM   28  C   UNL     1     -43.214  56.315 -50.840  1.00  0.00     0.001 A 
HETATM   29  C   UNL     1     -41.944  56.857 -50.545  1.00  0.00     0.076 A 
HETATM   30  C   UNL     1     -40.892  56.037 -50.128  1.00  0.00     0.037 A 
HETATM   31  C   UNL     1     -41.109  54.678 -49.919  1.00  0.00     0.003 A 
HETATM   32  C   UNL     1     -42.379  54.145 -50.106  1.00  0.00     0.001 A 
HETATM   33  C   UNL     1     -43.426  54.960 -50.548  1.00  0.00     0.012 A 
BRANCH  29  34
HETATM   34  O   UNL     1     -41.806  58.214 -50.704  1.00  0.00    -0.351 OA
BRANCH  34  35
HETATM   35  C   UNL     1     -40.453  58.683 -50.797  1.00  0.00     0.171 C 
HETATM   36  C   UNL     1     -40.177  59.024 -52.250  1.00  0.00     0.034 C 
ENDBRANCH  34  35
ENDBRANCH  29  34
ENDBRANCH  27  28
ENDBRANCH   1  27
TORSDOF 8
ENDMDL
MODEL 5
REMARK VINA RESULT:      -8.7      2.958      8.039
REMARK  8 active torsions:
REMARK  status: ('A' for Active; 'I' for Inactive)
REMARK    1  A    between atoms: C_2  and  O_3 
REMARK    2  A    between atoms: O_3  and  C_4 
REMARK    3  A    between atoms: C_5  and  C_6 
REMARK    4  A    between atoms: C_6  and  N_7 
REMARK    5  A    between atoms: C_9  and  C_10 
REMARK    6  A    between atoms: C_10  and  C_11 
REMARK       I    between atoms: C_11  and  N_12 
REMARK    7  A    between atoms: N_12  and  C_13 
REMARK    8  A    between atoms: C_13  and  C_14 
ROOT
HETATM    1  N   UNL     1     -43.137  58.471 -55.164  1.00  0.00    -0.052 N 
HETATM    2  H   UNL     1     -43.103  57.743 -55.892  1.00  0.00     0.281 HD
HETATM    3  C   UNL     1     -42.865  57.600 -53.920  1.00  0.00     0.288 C 
HETATM    4  C   UNL     1     -43.901  56.463 -53.792  1.00  0.00     0.249 C 
HETATM    5  O   UNL     1     -43.740  55.513 -53.033  1.00  0.00    -0.271 OA
HETATM    6  N   UNL     1     -44.986  56.506 -54.632  1.00  0.00    -0.358 N 
HETATM    7  C   UNL     1     -45.519  57.718 -55.248  1.00  0.00     0.150 C 
HETATM    8  C   UNL     1     -44.566  58.927 -55.309  1.00  0.00     0.256 C 
HETATM    9  H   UNL     1     -45.638  55.743 -54.468  1.00  0.00     0.162 HD
ENDROOT
BRANCH   3  10
HETATM   10  C   UNL     1     -42.645  58.300 -52.578  1.00  0.00     0.145 C 
BRANCH  10  11
HETATM   11  C   UNL     1     -41.563  57.691 -51.720  1.00  0.00     0.220 C 
HETATM   12  N   UNL     1     -41.933  56.538 -51.079  1.00  0.00    -0.355 N 
HETATM   13  H   UNL     1     -42.904  56.245 -51.060  1.00  0.00     0.162 HD
HETATM   14  O   UNL     1     -40.441  58.178 -51.628  1.00  0.00    -0.274 OA
BRANCH  12  15
HETATM   15  C   UNL     1     -41.004  55.752 -50.301  1.00  0.00     0.179 C 
BRANCH  15  16
HETATM   16  C   UNL     1     -40.638  54.546 -51.075  1.00  0.00     0.028 A 
HETATM   17  N   UNL     1     -40.989  54.391 -52.396  1.00  0.00    -0.357 N 
HETATM   18  H   UNL     1     -41.489  55.077 -52.950  1.00  0.00     0.166 HD
HETATM   19  C   UNL     1     -40.590  53.159 -52.861  1.00  0.00     0.043 A 
HETATM   20  C   UNL     1     -39.963  52.505 -51.799  1.00  0.00    -0.005 A 
HETATM   21  C   UNL     1     -40.746  52.574 -54.124  1.00  0.00     0.033 A 
HETATM   22  C   UNL     1     -39.990  53.390 -50.687  1.00  0.00     0.040 A 
HETATM   23  C   UNL     1     -39.474  51.201 -51.997  1.00  0.00     0.056 A 
HETATM   24  C   UNL     1     -39.631  50.612 -53.250  1.00  0.00     0.117 A 
HETATM   25  C   UNL     1     -40.251  51.279 -54.299  1.00  0.00     0.044 A 
HETATM   26  F   UNL     1     -39.175  49.367 -53.446  1.00  0.00    -0.206 F 
ENDBRANCH  15  16
ENDBRANCH  12  15
ENDBRANCH  10  11
ENDBRANCH   3  10
BRANCH   1  27
HETATM   27  C   UNL     1     -42.060  59.408 -55.656  1.00  0.00     0.277 C 
BRANCH  27  28
HETATM   28  C   UNL     1     -42.042  59.889 -57.083  1.00  0.00     0.001 A 
HETATM   29  C   UNL     1     -42.175  58.937 -58.118  1.00  0.00     0.076 A 
HETATM   30  C   UNL     1     -42.114  59.322 -59.460  1.00  0.00     0.037 A 
HETATM   31  C   UNL     1     -42.002  60.669 -59.794  1.00  0.00     0.003 A 
HETATM   32  C   UNL     1     -41.972  61.629 -58.790  1.00  0.00     0.001 A 
HETATM   33  C   UNL     1     -42.007  61.243 -57.446  1.00  0.00     0.012 A 
BRANCH  29  34
HETATM   34  O   UNL     1     -42.350  57.632 -57.729  1.00  0.00    -0.351 OA
BRANCH  34  35
HETATM   35  C   UNL     1     -43.464  56.960 -58.336  1.00  0.00     0.171 C 
HETATM   36  C   UNL     1     -42.918  55.820 -59.177  1.00  0.00     0.034 C 
ENDBRANCH  34  35
ENDBRANCH  29  34
ENDBRANCH  27  28
ENDBRANCH   1  27
TORSDOF 8
ENDMDL
MODEL 6
REMARK VINA RESULT:      -8.5      1.977      3.065
REMARK  8 active torsions:
REMARK  status: ('A' for Active; 'I' for Inactive)
REMARK    1  A    between atoms: C_2  and  O_3 
REMARK    2  A    between atoms: O_3  and  C_4 
REMARK    3  A    between atoms: C_5  and  C_6 
REMARK    4  A    between atoms: C_6  and  N_7 
REMARK    5  A    between atoms: C_9  and  C_10 
REMARK    6  A    between atoms: C_10  and  C_11 
REMARK       I    between atoms: C_11  and  N_12 
REMARK    7  A    between atoms: N_12  and  C_13 
REMARK    8  A    between atoms: C_13  and  C_14 
ROOT
HETATM    1  N   UNL     1     -43.195  57.149 -51.118  1.00  0.00    -0.052 N 
HETATM    2  H   UNL     1     -43.469  57.310 -50.139  1.00  0.00     0.281 HD
HETATM    3  C   UNL     1     -41.715  57.582 -51.044  1.00  0.00     0.288 C 
HETATM    4  C   UNL     1     -41.579  59.032 -50.531  1.00  0.00     0.249 C 
HETATM    5  O   UNL     1     -40.506  59.497 -50.161  1.00  0.00    -0.271 OA
HETATM    6  N   UNL     1     -42.732  59.768 -50.421  1.00  0.00    -0.358 N 
HETATM    7  C   UNL     1     -43.953  59.530 -51.184  1.00  0.00     0.150 C 
HETATM    8  C   UNL     1     -44.100  58.131 -51.814  1.00  0.00     0.256 C 
HETATM    9  H   UNL     1     -42.560  60.720 -50.107  1.00  0.00     0.162 HD
ENDROOT
BRANCH   3  10
HETATM   10  C   UNL     1     -40.826  57.344 -52.266  1.00  0.00     0.145 C 
BRANCH  10  11
HETATM   11  C   UNL     1     -40.972  58.373 -53.360  1.00  0.00     0.220 C 
HETATM   12  N   UNL     1     -41.940  58.081 -54.285  1.00  0.00    -0.355 N 
HETATM   13  H   UNL     1     -42.377  57.166 -54.305  1.00  0.00     0.162 HD
HETATM   14  O   UNL     1     -40.294  59.394 -53.400  1.00  0.00    -0.274 OA
BRANCH  12  15
HETATM   15  C   UNL     1     -42.301  58.996 -55.343  1.00  0.00     0.179 C 
BRANCH  15  16
HETATM   16  C   UNL     1     -42.759  58.213 -56.511  1.00  0.00     0.028 A 
HETATM   17  N   UNL     1     -43.559  58.758 -57.489  1.00  0.00    -0.357 N 
HETATM   18  H   UNL     1     -43.874  59.719 -57.513  1.00  0.00     0.166 HD
HETATM   19  C   UNL     1     -43.897  57.804 -58.422  1.00  0.00     0.043 A 
HETATM   20  C   UNL     1     -43.293  56.610 -58.025  1.00  0.00    -0.005 A 
HETATM   21  C   UNL     1     -44.696  57.905 -59.568  1.00  0.00     0.033 A 
HETATM   22  C   UNL     1     -42.572  56.882 -56.831  1.00  0.00     0.040 A 
HETATM   23  C   UNL     1     -43.498  55.455 -58.800  1.00  0.00     0.056 A 
HETATM   24  C   UNL     1     -44.295  55.547 -59.939  1.00  0.00     0.117 A 
HETATM   25  C   UNL     1     -44.884  56.745 -60.325  1.00  0.00     0.044 A 
HETATM   26  F   UNL     1     -44.502  54.450 -60.680  1.00  0.00    -0.206 F 
ENDBRANCH  15  16
ENDBRANCH  12  15
ENDBRANCH  10  11
ENDBRANCH   3  10
BRANCH   1  27
HETATM   27  C   UNL     1     -43.525  55.682 -51.263  1.00  0.00     0.277 C 
BRANCH  27  28
HETATM   28  C   UNL     1     -42.907  54.852 -52.357  1.00  0.00     0.001 A 
HETATM   29  C   UNL     1     -41.925  53.899 -52.009  1.00  0.00     0.076 A 
HETATM   30  C   UNL     1     -41.284  53.138 -52.990  1.00  0.00     0.037 A 
HETATM   31  C   UNL     1     -41.667  53.254 -54.323  1.00  0.00     0.003 A 
HETATM   32  C   UNL     1     -42.703  54.112 -54.671  1.00  0.00     0.001 A 
HETATM   33  C   UNL     1     -43.328  54.894 -53.694  1.00  0.00     0.012 A 
BRANCH  29  34
HETATM   34  O   UNL     1     -41.636  53.780 -50.672  1.00  0.00    -0.351 OA
BRANCH  34  35
HETATM   35  C   UNL     1     -40.326  53.274 -50.374  1.00  0.00     0.171 C 
HETATM   36  C   UNL     1     -39.566  54.358 -49.632  1.00  0.00     0.034 C 
ENDBRANCH  34  35
ENDBRANCH  29  34
ENDBRANCH  27  28
ENDBRANCH   1  27
TORSDOF 8
ENDMDL
MODEL 7
REMARK VINA RESULT:      -8.5      3.450      4.345
REMARK  8 active torsions:
REMARK  status: ('A' for Active; 'I' for Inactive)
REMARK    1  A    between atoms: C_2  and  O_3 
REMARK    2  A    between atoms: O_3  and  C_4 
REMARK    3  A    between atoms: C_5  and  C_6 
REMARK    4  A    between atoms: C_6  and  N_7 
REMARK    5  A    between atoms: C_9  and  C_10 
REMARK    6  A    between atoms: C_10  and  C_11 
REMARK       I    between atoms: C_11  and  N_12 
REMARK    7  A    between atoms: N_12  and  C_13 
REMARK    8  A    between atoms: C_13  and  C_14 
ROOT
HETATM    1  N   UNL     1     -41.789  56.041 -52.289  1.00  0.00    -0.052 N 
HETATM    2  H   UNL     1     -40.828  55.803 -52.007  1.00  0.00     0.281 HD
HETATM    3  C   UNL     1     -41.485  57.126 -53.344  1.00  0.00     0.288 C 
HETATM    4  C   UNL     1     -40.650  58.276 -52.742  1.00  0.00     0.249 C 
HETATM    5  O   UNL     1     -40.089  59.113 -53.442  1.00  0.00    -0.271 OA
HETATM    6  N   UNL     1     -40.484  58.283 -51.380  1.00  0.00    -0.358 N 
HETATM    7  C   UNL     1     -41.390  57.655 -50.423  1.00  0.00     0.150 C 
HETATM    8  C   UNL     1     -42.328  56.569 -50.985  1.00  0.00     0.256 C 
HETATM    9  H   UNL     1     -39.950  59.086 -51.055  1.00  0.00     0.162 HD
ENDROOT
BRANCH   3  10
HETATM   10  C   UNL     1     -42.642  57.665 -54.186  1.00  0.00     0.145 C 
BRANCH  10  11
HETATM   11  C   UNL     1     -42.646  57.202 -55.622  1.00  0.00     0.220 C 
HETATM   12  N   UNL     1     -43.250  58.069 -56.493  1.00  0.00    -0.355 N 
HETATM   13  H   UNL     1     -43.792  58.855 -56.150  1.00  0.00     0.162 HD
HETATM   14  O   UNL     1     -42.129  56.147 -55.976  1.00  0.00    -0.274 OA
BRANCH  12  15
HETATM   15  C   UNL     1     -43.258  57.852 -57.922  1.00  0.00     0.179 C 
BRANCH  15  16
HETATM   16  C   UNL     1     -42.563  58.982 -58.576  1.00  0.00     0.028 A 
HETATM   17  N   UNL     1     -41.857  59.921 -57.860  1.00  0.00    -0.357 N 
HETATM   18  H   UNL     1     -41.729  59.910 -56.856  1.00  0.00     0.166 HD
HETATM   19  C   UNL     1     -41.368  60.898 -58.697  1.00  0.00     0.043 A 
HETATM   20  C   UNL     1     -41.777  60.571 -59.991  1.00  0.00    -0.005 A 
HETATM   21  C   UNL     1     -40.614  62.042 -58.407  1.00  0.00     0.033 A 
HETATM   22  C   UNL     1     -42.516  59.361 -59.904  1.00  0.00     0.040 A 
HETATM   23  C   UNL     1     -41.427  61.427 -61.050  1.00  0.00     0.056 A 
HETATM   24  C   UNL     1     -40.681  62.570 -60.768  1.00  0.00     0.117 A 
HETATM   25  C   UNL     1     -40.276  62.877 -59.475  1.00  0.00     0.044 A 
HETATM   26  F   UNL     1     -40.349  63.395 -61.770  1.00  0.00    -0.206 F 
ENDBRANCH  15  16
ENDBRANCH  12  15
ENDBRANCH  10  11
ENDBRANCH   3  10
BRANCH   1  27
HETATM   27  C   UNL     1     -42.287  54.690 -52.746  1.00  0.00     0.277 C 
BRANCH  27  28
HETATM   28  C   UNL     1     -41.336  53.541 -52.951  1.00  0.00     0.001 A 
HETATM   29  C   UNL     1     -40.664  53.012 -51.827  1.00  0.00     0.076 A 
HETATM   30  C   UNL     1     -39.733  51.980 -51.967  1.00  0.00     0.037 A 
HETATM   31  C   UNL     1     -39.516  51.402 -53.215  1.00  0.00     0.003 A 
HETATM   32  C   UNL     1     -40.243  51.840 -54.314  1.00  0.00     0.001 A 
HETATM   33  C   UNL     1     -41.157  52.891 -54.181  1.00  0.00     0.012 A 
BRANCH  29  34
HETATM   34  O   UNL     1     -40.968  53.576 -50.613  1.00  0.00    -0.351 OA
BRANCH  34  35
HETATM   35  C   UNL     1     -39.840  54.040 -49.857  1.00  0.00     0.171 C 
HETATM   36  C   UNL     1     -40.269  54.159 -48.406  1.00  0.00     0.034 C 
ENDBRANCH  34  35
ENDBRANCH  29  34
ENDBRANCH  27  28
ENDBRANCH   1  27
TORSDOF 8
ENDMDL
MODEL 8
REMARK VINA RESULT:      -8.4      1.925      3.510
REMARK  8 active torsions:
REMARK  status: ('A' for Active; 'I' for Inactive)
REMARK    1  A    between atoms: C_2  and  O_3 
REMARK    2  A    between atoms: O_3  and  C_4 
REMARK    3  A    between atoms: C_5  and  C_6 
REMARK    4  A    between atoms: C_6  and  N_7 
REMARK    5  A    between atoms: C_9  and  C_10 
REMARK    6  A    between atoms: C_10  and  C_11 
REMARK       I    between atoms: C_11  and  N_12 
REMARK    7  A    between atoms: N_12  and  C_13 
REMARK    8  A    between atoms: C_13  and  C_14 
ROOT
HETATM    1  N   UNL     1     -42.369  57.556 -51.075  1.00  0.00    -0.052 N 
HETATM    2  H   UNL     1     -42.160  57.676 -50.074  1.00  0.00     0.281 HD
HETATM    3  C   UNL     1     -40.979  57.870 -51.666  1.00  0.00     0.288 C 
HETATM    4  C   UNL     1     -40.489  59.270 -51.238  1.00  0.00     0.249 C 
HETATM    5  O   UNL     1     -39.325  59.628 -51.382  1.00  0.00    -0.271 OA
HETATM    6  N   UNL     1     -41.395  60.083 -50.605  1.00  0.00    -0.358 N 
HETATM    7  C   UNL     1     -42.845  59.987 -50.741  1.00  0.00     0.150 C 
HETATM    8  C   UNL     1     -43.391  58.646 -51.267  1.00  0.00     0.256 C 
HETATM    9  H   UNL     1     -41.010  60.998 -50.382  1.00  0.00     0.162 HD
ENDROOT
BRANCH   3  10
HETATM   10  C   UNL     1     -40.758  57.641 -53.162  1.00  0.00     0.145 C 
BRANCH  10  11
HETATM   11  C   UNL     1     -41.428  58.652 -54.060  1.00  0.00     0.220 C 
HETATM   12  N   UNL     1     -42.368  58.123 -54.903  1.00  0.00    -0.355 N 
HETATM   13  H   UNL     1     -42.456  57.119 -55.016  1.00  0.00     0.162 HD
HETATM   14  O   UNL     1     -41.165  59.850 -54.016  1.00  0.00    -0.274 OA
BRANCH  12  15
HETATM   15  C   UNL     1     -43.192  58.945 -55.759  1.00  0.00     0.179 C 
BRANCH  15  16
HETATM   16  C   UNL     1     -43.615  58.141 -56.926  1.00  0.00     0.028 A 
HETATM   17  N   UNL     1     -44.867  58.261 -57.482  1.00  0.00    -0.357 N 
HETATM   18  H   UNL     1     -45.581  58.908 -57.172  1.00  0.00     0.166 HD
HETATM   19  C   UNL     1     -45.029  57.357 -58.507  1.00  0.00     0.043 A 
HETATM   20  C   UNL     1     -43.838  56.636 -58.608  1.00  0.00    -0.005 A 
HETATM   21  C   UNL     1     -46.132  57.117 -59.335  1.00  0.00     0.033 A 
HETATM   22  C   UNL     1     -42.955  57.145 -57.618  1.00  0.00     0.040 A 
HETATM   23  C   UNL     1     -43.740  55.619 -59.574  1.00  0.00     0.056 A 
HETATM   24  C   UNL     1     -44.836  55.371 -60.398  1.00  0.00     0.117 A 
HETATM   25  C   UNL     1     -46.012  56.103 -60.289  1.00  0.00     0.044 A 
HETATM   26  F   UNL     1     -44.754  54.399 -61.316  1.00  0.00    -0.206 F 
ENDBRANCH  15  16
ENDBRANCH  12  15
ENDBRANCH  10  11
ENDBRANCH   3  10
BRANCH   1  27
HETATM   27  C   UNL     1     -42.868  56.131 -51.086  1.00  0.00     0.277 C 
BRANCH  27  28
HETATM   28  C   UNL     1     -41.907  54.972 -51.050  1.00  0.00     0.001 A 
HETATM   29  C   UNL     1     -41.715  54.218 -52.229  1.00  0.00     0.076 A 
HETATM   30  C   UNL     1     -40.873  53.102 -52.238  1.00  0.00     0.037 A 
HETATM   31  C   UNL     1     -40.147  52.767 -51.098  1.00  0.00     0.003 A 
HETATM   32  C   UNL     1     -40.246  53.558 -49.960  1.00  0.00     0.001 A 
HETATM   33  C   UNL     1     -41.107  54.661 -49.941  1.00  0.00     0.012 A 
BRANCH  29  34
HETATM   34  O   UNL     1     -42.405  54.634 -53.340  1.00  0.00    -0.351 OA
BRANCH  34  35
HETATM   35  C   UNL     1     -41.993  54.030 -54.575  1.00  0.00     0.171 C 
HETATM   36  C   UNL     1     -43.162  54.102 -55.541  1.00  0.00     0.034 C 
ENDBRANCH  34  35
ENDBRANCH  29  34
ENDBRANCH  27  28
ENDBRANCH   1  27
TORSDOF 8
ENDMDL
MODEL 9
REMARK VINA RESULT:      -8.4      3.186      7.664
REMARK  8 active torsions:
REMARK  status: ('A' for Active; 'I' for Inactive)
REMARK    1  A    between atoms: C_2  and  O_3 
REMARK    2  A    between atoms: O_3  and  C_4 
REMARK    3  A    between atoms: C_5  and  C_6 
REMARK    4  A    between atoms: C_6  and  N_7 
REMARK    5  A    between atoms: C_9  and  C_10 
REMARK    6  A    between atoms: C_10  and  C_11 
REMARK       I    between atoms: C_11  and  N_12 
REMARK    7  A    between atoms: N_12  and  C_13 
REMARK    8  A    between atoms: C_13  and  C_14 
ROOT
HETATM    1  N   UNL     1     -42.661  58.838 -55.558  1.00  0.00    -0.052 N 
HETATM    2  H   UNL     1     -41.812  58.672 -56.117  1.00  0.00     0.281 HD
HETATM    3  C   UNL     1     -42.801  57.454 -54.890  1.00  0.00     0.288 C 
HETATM    4  C   UNL     1     -42.889  56.328 -55.943  1.00  0.00     0.249 C 
HETATM    5  O   UNL     1     -42.758  55.145 -55.648  1.00  0.00    -0.271 OA
HETATM    6  N   UNL     1     -43.039  56.707 -57.253  1.00  0.00    -0.358 N 
HETATM    7  C   UNL     1     -43.617  57.971 -57.698  1.00  0.00     0.150 C 
HETATM    8  C   UNL     1     -43.656  59.106 -56.657  1.00  0.00     0.256 C 
HETATM    9  H   UNL     1     -43.122  55.912 -57.883  1.00  0.00     0.162 HD
ENDROOT
BRANCH   3  10
HETATM   10  C   UNL     1     -43.861  57.277 -53.802  1.00  0.00     0.145 C 
BRANCH  10  11
HETATM   11  C   UNL     1     -43.363  56.616 -52.540  1.00  0.00     0.220 C 
HETATM   12  N   UNL     1     -42.104  56.083 -52.640  1.00  0.00    -0.355 N 
HETATM   13  H   UNL     1     -41.648  56.000 -53.542  1.00  0.00     0.162 HD
HETATM   14  O   UNL     1     -44.024  56.582 -51.507  1.00  0.00    -0.274 OA
BRANCH  12  15
HETATM   15  C   UNL     1     -41.415  55.506 -51.509  1.00  0.00     0.179 C 
BRANCH  15  16
HETATM   16  C   UNL     1     -40.902  54.174 -51.896  1.00  0.00     0.028 A 
HETATM   17  N   UNL     1     -40.989  53.703 -53.185  1.00  0.00    -0.357 N 
HETATM   18  H   UNL     1     -41.373  54.217 -53.967  1.00  0.00     0.166 HD
HETATM   19  C   UNL     1     -40.503  52.417 -53.262  1.00  0.00     0.043 A 
HETATM   20  C   UNL     1     -40.093  52.056 -51.978  1.00  0.00    -0.005 A 
HETATM   21  C   UNL     1     -40.409  51.550 -54.358  1.00  0.00     0.033 A 
HETATM   22  C   UNL     1     -40.338  53.172 -51.131  1.00  0.00     0.040 A 
HETATM   23  C   UNL     1     -39.571  50.768 -51.768  1.00  0.00     0.056 A 
HETATM   24  C   UNL     1     -39.480  49.899 -52.853  1.00  0.00     0.117 A 
HETATM   25  C   UNL     1     -39.886  50.275 -54.127  1.00  0.00     0.044 A 
HETATM   26  F   UNL     1     -38.991  48.666 -52.661  1.00  0.00    -0.206 F 
ENDBRANCH  15  16
ENDBRANCH  12  15
ENDBRANCH  10  11
ENDBRANCH   3  10
BRANCH   1  27
HETATM   27  C   UNL     1     -42.219  60.016 -54.723  1.00  0.00     0.277 C 
BRANCH  27  28
HETATM   28  C   UNL     1     -41.668  59.820 -53.335  1.00  0.00     0.001 A 
HETATM   29  C   UNL     1     -42.423  60.289 -52.237  1.00  0.00     0.076 A 
HETATM   30  C   UNL     1     -41.936  60.179 -50.931  1.00  0.00     0.037 A 
HETATM   31  C   UNL     1     -40.730  59.528 -50.691  1.00  0.00     0.003 A 
HETATM   32  C   UNL     1     -40.023  58.970 -51.749  1.00  0.00     0.001 A 
HETATM   33  C   UNL     1     -40.496  59.101 -53.059  1.00  0.00     0.012 A 
BRANCH  29  34
HETATM   34  O   UNL     1     -43.636  60.862 -52.530  1.00  0.00    -0.351 OA
BRANCH  34  35
HETATM   35  C   UNL     1     -44.769  60.248 -51.897  1.00  0.00     0.171 C 
HETATM   36  C   UNL     1     -45.529  61.330 -51.152  1.00  0.00     0.034 C 
ENDBRANCH  34  35
ENDBRANCH  29  34
ENDBRANCH  27  28
ENDBRANCH   1  27
TORSDOF 8
ENDMDL
MODEL 10
REMARK VINA RESULT:      -8.3      2.959      6.847
REMARK  8 active torsions:
REMARK  status: ('A' for Active; 'I' for Inactive)
REMARK    1  A    between atoms: C_2  and  O_3 
REMARK    2  A    between atoms: O_3  and  C_4 
REMARK    3  A    between atoms: C_5  and  C_6 
REMARK    4  A    between atoms: C_6  and  N_7 
REMARK    5  A    between atoms: C_9  and  C_10 
REMARK    6  A    between atoms: C_10  and  C_11 
REMARK       I    between atoms: C_11  and  N_12 
REMARK    7  A    between atoms: N_12  and  C_13 
REMARK    8  A    between atoms: C_13  and  C_14 
ROOT
HETATM    1  N   UNL     1     -43.492  59.491 -55.876  1.00  0.00    -0.052 N 
HETATM    2  H   UNL     1     -44.192  58.773 -56.111  1.00  0.00     0.281 HD
HETATM    3  C   UNL     1     -43.595  59.454 -54.336  1.00  0.00     0.288 C 
HETATM    4  C   UNL     1     -45.038  59.731 -53.863  1.00  0.00     0.249 C 
HETATM    5  O   UNL     1     -45.403  59.511 -52.713  1.00  0.00    -0.271 OA
HETATM    6  N   UNL     1     -45.936  60.159 -54.809  1.00  0.00    -0.358 N 
HETATM    7  C   UNL     1     -45.584  60.849 -56.046  1.00  0.00     0.150 C 
HETATM    8  C   UNL     1     -44.124  60.699 -56.517  1.00  0.00     0.256 C 
HETATM    9  H   UNL     1     -46.856  60.350 -54.417  1.00  0.00     0.162 HD
ENDROOT
BRANCH   3  10
HETATM   10  C   UNL     1     -42.583  60.261 -53.521  1.00  0.00     0.145 C 
BRANCH  10  11
HETATM   11  C   UNL     1     -41.767  59.446 -52.548  1.00  0.00     0.220 C 
HETATM   12  N   UNL     1     -42.472  58.463 -51.905  1.00  0.00    -0.355 N 
HETATM   13  H   UNL     1     -43.484  58.428 -51.965  1.00  0.00     0.162 HD
HETATM   14  O   UNL     1     -40.568  59.636 -52.370  1.00  0.00    -0.274 OA
BRANCH  12  15
HETATM   15  C   UNL     1     -41.842  57.511 -51.019  1.00  0.00     0.179 C 
BRANCH  15  16
HETATM   16  C   UNL     1     -41.407  56.341 -51.812  1.00  0.00     0.028 A 
HETATM   17  N   UNL     1     -40.941  56.463 -53.100  1.00  0.00    -0.357 N 
HETATM   18  H   UNL     1     -40.832  57.338 -53.598  1.00  0.00     0.166 HD
HETATM   19  C   UNL     1     -40.668  55.225 -53.634  1.00  0.00     0.043 A 
HETATM   20  C   UNL     1     -40.971  54.280 -52.652  1.00  0.00    -0.005 A 
HETATM   21  C   UNL     1     -40.194  54.872 -54.904  1.00  0.00     0.033 A 
HETATM   22  C   UNL     1     -41.422  54.994 -51.509  1.00  0.00     0.040 A 
HETATM   23  C   UNL     1     -40.802  52.916 -52.947  1.00  0.00     0.056 A 
HETATM   24  C   UNL     1     -40.336  52.557 -54.210  1.00  0.00     0.117 A 
HETATM   25  C   UNL     1     -40.033  53.510 -55.175  1.00  0.00     0.044 A 
HETATM   26  F   UNL     1     -40.179  51.259 -54.503  1.00  0.00    -0.206 F 
ENDBRANCH  15  16
ENDBRANCH  12  15
ENDBRANCH  10  11
ENDBRANCH   3  10
BRANCH   1  27
HETATM   27  C   UNL     1     -42.266  58.916 -56.545  1.00  0.00     0.277 C 
BRANCH  27  28
HETATM   28  C   UNL     1     -42.390  57.987 -57.724  1.00  0.00     0.001 A 
HETATM   29  C   UNL     1     -42.861  56.675 -57.502  1.00  0.00     0.076 A 
HETATM   30  C   UNL     1     -42.947  55.756 -58.552  1.00  0.00     0.037 A 
HETATM   31  C   UNL     1     -42.643  56.152 -59.852  1.00  0.00     0.003 A 
HETATM   32  C   UNL     1     -42.276  57.468 -60.103  1.00  0.00     0.001 A 
HETATM   33  C   UNL     1     -42.164  58.382 -59.050  1.00  0.00     0.012 A 
BRANCH  29  34
HETATM   34  O   UNL     1     -43.210  56.360 -56.212  1.00  0.00    -0.351 OA
BRANCH  34  35
HETATM   35  C   UNL     1     -43.435  54.964 -55.965  1.00  0.00     0.171 C 
HETATM   36  C   UNL     1     -44.014  54.826 -54.569  1.00  0.00     0.034 C 
ENDBRANCH  34  35
ENDBRANCH  29  34
ENDBRANCH  27  28
ENDBRANCH   1  27
TORSDOF 8
ENDMDL
