MODEL 1
REMARK VINA RESULT:     -10.2      0.000      0.000
REMARK  7 active torsions:
REMARK  status: ('A' for Active; 'I' for Inactive)
REMARK    1  A    between atoms: C_6  and  N_7 
REMARK       I    between atoms: N_7  and  C_8 
REMARK    2  A    between atoms: C_8  and  C_9 
REMARK    3  A    between atoms: C_9  and  N_10 
REMARK    4  A    between atoms: N_13  and  C_14 
REMARK    5  A    between atoms: C_14  and  C_15 
REMARK    6  A    between atoms: C_30  and  C_31 
REMARK       I    between atoms: C_31  and  N_32 
REMARK    7  A    between atoms: N_32  and  C_33 
ROOT
HETATM    1  N   UNL     1     -42.252  59.204 -52.526  1.00  0.00    -0.290 N 
HETATM    2  C   UNL     1     -41.672  59.401 -53.769  1.00  0.00     0.332 C 
HETATM    3  O   UNL     1     -40.507  59.047 -53.979  1.00  0.00    -0.246 OA
HETATM    4  N   UNL     1     -42.456  59.998 -54.743  1.00  0.00    -0.261 N 
HETATM    5  C   UNL     1     -43.700  60.563 -54.512  1.00  0.00     0.264 C 
HETATM    6  O   UNL     1     -44.394  61.083 -55.384  1.00  0.00    -0.267 OA
HETATM    7  C   UNL     1     -44.206  60.510 -53.130  1.00  0.00     0.059 A 
HETATM    8  C   UNL     1     -43.480  59.814 -52.164  1.00  0.00     0.056 A 
HETATM    9  C   UNL     1     -45.431  61.122 -52.818  1.00  0.00     0.020 A 
HETATM   10  C   UNL     1     -45.947  61.040 -51.526  1.00  0.00     0.018 A 
HETATM   11  C   UNL     1     -45.234  60.342 -50.547  1.00  0.00     0.034 A 
HETATM   12  C   UNL     1     -43.997  59.752 -50.863  1.00  0.00     0.048 A 
ENDROOT
BRANCH   1  13
HETATM   13  C   UNL     1     -41.607  58.232 -51.640  1.00  0.00     0.237 C 
BRANCH  13  14
HETATM   14  C   UNL     1     -41.941  56.766 -51.919  1.00  0.00     0.240 C 
HETATM   15  N   UNL     1     -40.820  55.964 -52.035  1.00  0.00    -0.325 N 
HETATM   16  H   UNL     1     -39.941  56.383 -51.734  1.00  0.00     0.169 HD
HETATM   17  O   UNL     1     -43.108  56.421 -52.082  1.00  0.00    -0.271 OA
BRANCH  15  18
HETATM   18  C   UNL     1     -40.741  54.668 -52.595  1.00  0.00     0.040 A 
HETATM   19  C   UNL     1     -40.332  53.593 -51.778  1.00  0.00    -0.035 A 
HETATM   20  C   UNL     1     -40.131  52.324 -52.354  1.00  0.00     0.015 A 
HETATM   21  C   UNL     1     -40.088  53.753 -50.301  1.00  0.00     0.050 C 
HETATM   22  C   UNL     1     -40.347  52.103 -53.718  1.00  0.00    -0.061 A 
HETATM   23  C   UNL     1     -40.090  50.763 -54.340  1.00  0.00     0.048 C 
HETATM   24  C   UNL     1     -40.783  53.166 -54.510  1.00  0.00     0.009 A 
HETATM   25  C   UNL     1     -40.982  54.432 -53.952  1.00  0.00     0.030 A 
ENDBRANCH  15  18
ENDBRANCH  13  14
ENDBRANCH   1  13
BRANCH   4  26
HETATM   26  C   UNL     1     -41.966  59.953 -56.116  1.00  0.00     0.175 C 
BRANCH  26  27
HETATM   27  C   UNL     1     -42.354  58.644 -56.783  1.00  0.00    -0.037 A 
HETATM   28  C   UNL     1     -42.479  58.569 -58.181  1.00  0.00     0.048 A 
HETATM   29  C   UNL     1     -42.941  57.391 -58.729  1.00  0.00     0.105 A 
HETATM   30  C   UNL     1     -43.264  56.305 -57.950  1.00  0.00     0.105 A 
HETATM   31  O   UNL     1     -43.155  57.161 -60.053  1.00  0.00    -0.323 OA
HETATM   32  O   UNL     1     -43.720  55.256 -58.684  1.00  0.00    -0.323 OA
HETATM   33  C   UNL     1     -43.137  56.332 -56.580  1.00  0.00     0.040 A 
HETATM   34  C   UNL     1     -43.668  55.812 -60.014  1.00  0.00     0.352 A 
HETATM   35  C   UNL     1     -42.680  57.516 -55.993  1.00  0.00     0.012 A 
ENDBRANCH  26  27
ENDBRANCH   4  26
BRANCH  11  36
HETATM   36  C   UNL     1     -45.733  60.210 -49.151  1.00  0.00     0.252 C 
HETATM   37  N   UNL     1     -45.713  61.358 -48.394  1.00  0.00    -0.352 N 
HETATM   38  H   UNL     1     -45.494  62.221 -48.872  1.00  0.00     0.163 HD
HETATM   39  O   UNL     1     -46.164  59.128 -48.784  1.00  0.00    -0.268 OA
BRANCH  37  40
HETATM   40  C   UNL     1     -46.295  61.523 -47.060  1.00  0.00     0.084 C 
HETATM   41  C   UNL     1     -45.673  60.584 -46.017  1.00  0.00     0.025 C 
HETATM   42  C   UNL     1     -44.488  61.175 -45.262  1.00  0.00     0.002 C 
HETATM   43  C   UNL     1     -44.825  62.538 -44.674  1.00  0.00     0.000 C 
HETATM   44  C   UNL     1     -45.289  63.521 -45.741  1.00  0.00     0.002 C 
HETATM   45  C   UNL     1     -46.438  62.977 -46.588  1.00  0.00     0.025 C 
ENDBRANCH  37  40
ENDBRANCH  11  36
TORSDOF 7
ENDMDL
MODEL 2
REMARK VINA RESULT:     -10.1      1.766      2.668
REMARK  7 active torsions:
REMARK  status: ('A' for Active; 'I' for Inactive)
REMARK    1  A    between atoms: C_6  and  N_7 
REMARK       I    between atoms: N_7  and  C_8 
REMARK    2  A    between atoms: C_8  and  C_9 
REMARK    3  A    between atoms: C_9  and  N_10 
REMARK    4  A    between atoms: N_13  and  C_14 
REMARK    5  A    between atoms: C_14  and  C_15 
REMARK    6  A    between atoms: C_30  and  C_31 
REMARK       I    between atoms: C_31  and  N_32 
REMARK    7  A    between atoms: N_32  and  C_33 
ROOT
HETATM    1  N   UNL     1     -42.793  57.819 -53.128  1.00  0.00    -0.290 N 
HETATM    2  C   UNL     1     -42.506  57.524 -54.451  1.00  0.00     0.332 C 
HETATM    3  O   UNL     1     -41.450  56.955 -54.748  1.00  0.00    -0.246 OA
HETATM    4  N   UNL     1     -43.449  57.886 -55.397  1.00  0.00    -0.261 N 
HETATM    5  C   UNL     1     -44.563  58.669 -55.136  1.00  0.00     0.264 C 
HETATM    6  O   UNL     1     -45.401  58.979 -55.979  1.00  0.00    -0.267 OA
HETATM    7  C   UNL     1     -44.736  59.134 -53.748  1.00  0.00     0.059 A 
HETATM    8  C   UNL     1     -43.856  58.685 -52.764  1.00  0.00     0.056 A 
HETATM    9  C   UNL     1     -45.807  59.985 -53.433  1.00  0.00     0.020 A 
HETATM   10  C   UNL     1     -46.013  60.394 -52.116  1.00  0.00     0.018 A 
HETATM   11  C   UNL     1     -45.144  59.950 -51.117  1.00  0.00     0.034 A 
HETATM   12  C   UNL     1     -44.060  59.117 -51.446  1.00  0.00     0.048 A 
ENDROOT
BRANCH   1  13
HETATM   13  C   UNL     1     -42.030  57.097 -52.106  1.00  0.00     0.237 C 
BRANCH  13  14
HETATM   14  C   UNL     1     -42.104  55.572 -52.186  1.00  0.00     0.240 C 
HETATM   15  N   UNL     1     -40.872  54.977 -52.389  1.00  0.00    -0.325 N 
HETATM   16  H   UNL     1     -40.061  55.582 -52.266  1.00  0.00     0.169 HD
HETATM   17  O   UNL     1     -43.192  55.005 -52.137  1.00  0.00    -0.271 OA
BRANCH  15  18
HETATM   18  C   UNL     1     -40.613  53.657 -52.825  1.00  0.00     0.040 A 
HETATM   19  C   UNL     1     -40.137  52.710 -51.895  1.00  0.00    -0.035 A 
HETATM   20  C   UNL     1     -39.760  51.429 -52.342  1.00  0.00     0.015 A 
HETATM   21  C   UNL     1     -40.005  53.020 -50.427  1.00  0.00     0.050 C 
HETATM   22  C   UNL     1     -39.865  51.071 -53.690  1.00  0.00    -0.061 A 
HETATM   23  C   UNL     1     -39.421  49.723 -54.174  1.00  0.00     0.048 C 
HETATM   24  C   UNL     1     -40.368  52.005 -54.596  1.00  0.00     0.009 A 
HETATM   25  C   UNL     1     -40.741  53.282 -54.166  1.00  0.00     0.030 A 
ENDBRANCH  15  18
ENDBRANCH  13  14
ENDBRANCH   1  13
BRANCH   4  26
HETATM   26  C   UNL     1     -43.297  57.335 -56.739  1.00  0.00     0.175 C 
BRANCH  26  27
HETATM   27  C   UNL     1     -42.787  58.394 -57.701  1.00  0.00    -0.037 A 
HETATM   28  C   UNL     1     -41.857  59.356 -57.271  1.00  0.00     0.048 A 
HETATM   29  C   UNL     1     -41.510  60.361 -58.150  1.00  0.00     0.105 A 
HETATM   30  C   UNL     1     -42.037  60.432 -59.418  1.00  0.00     0.105 A 
HETATM   31  O   UNL     1     -40.658  61.388 -57.885  1.00  0.00    -0.323 OA
HETATM   32  O   UNL     1     -41.583  61.510 -60.110  1.00  0.00    -0.323 OA
HETATM   33  C   UNL     1     -42.935  59.499 -59.884  1.00  0.00     0.040 A 
HETATM   34  C   UNL     1     -40.725  62.123 -59.126  1.00  0.00     0.352 A 
HETATM   35  C   UNL     1     -43.314  58.472 -59.013  1.00  0.00     0.012 A 
ENDBRANCH  26  27
ENDBRANCH   4  26
BRANCH  11  36
HETATM   36  C   UNL     1     -45.313  60.344 -49.692  1.00  0.00     0.252 C 
HETATM   37  N   UNL     1     -44.650  61.483 -49.301  1.00  0.00    -0.352 N 
HETATM   38  H   UNL     1     -44.216  62.036 -50.026  1.00  0.00     0.163 HD
HETATM   39  O   UNL     1     -46.049  59.674 -48.984  1.00  0.00    -0.268 OA
BRANCH  37  40
HETATM   40  C   UNL     1     -44.786  62.159 -48.008  1.00  0.00     0.084 C 
HETATM   41  C   UNL     1     -45.956  63.151 -47.973  1.00  0.00     0.025 C 
HETATM   42  C   UNL     1     -47.272  62.558 -47.481  1.00  0.00     0.002 C 
HETATM   43  C   UNL     1     -47.096  61.836 -46.152  1.00  0.00     0.000 C 
HETATM   44  C   UNL     1     -46.044  60.739 -46.234  1.00  0.00     0.002 C 
HETATM   45  C   UNL     1     -44.708  61.238 -46.781  1.00  0.00     0.025 C 
ENDBRANCH  37  40
ENDBRANCH  11  36
TORSDOF 7
ENDMDL
MODEL 3
REMARK VINA RESULT:     -10.1      2.025      8.972
REMARK  7 active torsions:
REMARK  status: ('A' for Active; 'I' for Inactive)
REMARK    1  A    between atoms: C_6  and  N_7 
REMARK       I    between atoms: N_7  and  C_8 
REMARK    2  A    between atoms: C_8  and  C_9 
REMARK    3  A    between atoms: C_9  and  N_10 
REMARK    4  A    between atoms: N_13  and  C_14 
REMARK    5  A    between atoms: C_14  and  C_15 
REMARK    6  A    between atoms: C_30  and  C_31 
REMARK       I    between atoms: C_31  and  N_32 
REMARK    7  A    between atoms: N_32  and  C_33 
ROOT
HETATM    1  N   UNL     1     -42.678  58.665 -52.543  1.00  0.00    -0.290 N 
HETATM    2  C   UNL     1     -43.629  59.648 -52.325  1.00  0.00     0.332 C 
HETATM    3  O   UNL     1     -43.414  60.813 -52.676  1.00  0.00    -0.246 OA
HETATM    4  N   UNL     1     -44.809  59.260 -51.714  1.00  0.00    -0.261 N 
HETATM    5  C   UNL     1     -45.030  58.012 -51.154  1.00  0.00     0.264 C 
HETATM    6  O   UNL     1     -46.083  57.672 -50.620  1.00  0.00    -0.267 OA
HETATM    7  C   UNL     1     -43.920  57.046 -51.228  1.00  0.00     0.059 A 
HETATM    8  C   UNL     1     -42.768  57.384 -51.939  1.00  0.00     0.056 A 
HETATM    9  C   UNL     1     -44.057  55.787 -50.622  1.00  0.00     0.020 A 
HETATM   10  C   UNL     1     -43.035  54.844 -50.725  1.00  0.00     0.018 A 
HETATM   11  C   UNL     1     -41.877  55.165 -51.438  1.00  0.00     0.034 A 
HETATM   12  C   UNL     1     -41.739  56.437 -52.022  1.00  0.00     0.048 A 
ENDROOT
BRANCH   1  13
HETATM   13  C   UNL     1     -41.634  58.957 -53.529  1.00  0.00     0.237 C 
BRANCH  13  14
HETATM   14  C   UNL     1     -42.066  58.855 -54.992  1.00  0.00     0.240 C 
HETATM   15  N   UNL     1     -43.004  57.864 -55.216  1.00  0.00    -0.325 N 
HETATM   16  H   UNL     1     -43.433  57.463 -54.384  1.00  0.00     0.169 HD
HETATM   17  O   UNL     1     -41.538  59.569 -55.840  1.00  0.00    -0.271 OA
BRANCH  15  18
HETATM   18  C   UNL     1     -43.372  57.289 -56.454  1.00  0.00     0.040 A 
HETATM   19  C   UNL     1     -42.897  56.001 -56.780  1.00  0.00    -0.035 A 
HETATM   20  C   UNL     1     -43.156  55.471 -58.058  1.00  0.00     0.015 A 
HETATM   21  C   UNL     1     -42.108  55.166 -55.807  1.00  0.00     0.050 C 
HETATM   22  C   UNL     1     -43.890  56.190 -59.007  1.00  0.00    -0.061 A 
HETATM   23  C   UNL     1     -44.127  55.643 -60.384  1.00  0.00     0.048 C 
HETATM   24  C   UNL     1     -44.383  57.448 -58.663  1.00  0.00     0.009 A 
HETATM   25  C   UNL     1     -44.129  57.989 -57.399  1.00  0.00     0.030 A 
ENDBRANCH  15  18
ENDBRANCH  13  14
ENDBRANCH   1  13
BRANCH   4  26
HETATM   26  C   UNL     1     -45.917  60.209 -51.737  1.00  0.00     0.175 C 
BRANCH  26  27
HETATM   27  C   UNL     1     -45.892  61.097 -50.504  1.00  0.00    -0.037 A 
HETATM   28  C   UNL     1     -45.216  60.682 -49.344  1.00  0.00     0.048 A 
HETATM   29  C   UNL     1     -45.316  61.473 -48.217  1.00  0.00     0.105 A 
HETATM   30  C   UNL     1     -46.040  62.641 -48.212  1.00  0.00     0.105 A 
HETATM   31  O   UNL     1     -44.759  61.203 -47.007  1.00  0.00    -0.323 OA
HETATM   32  O   UNL     1     -46.029  63.254 -46.999  1.00  0.00    -0.323 OA
HETATM   33  C   UNL     1     -46.700  63.091 -49.333  1.00  0.00     0.040 A 
HETATM   34  C   UNL     1     -45.232  62.326 -46.234  1.00  0.00     0.352 A 
HETATM   35  C   UNL     1     -46.625  62.307 -50.489  1.00  0.00     0.012 A 
ENDBRANCH  26  27
ENDBRANCH   4  26
BRANCH  11  36
HETATM   36  C   UNL     1     -40.753  54.201 -51.592  1.00  0.00     0.252 C 
HETATM   37  N   UNL     1     -40.770  53.436 -52.734  1.00  0.00    -0.352 N 
HETATM   38  H   UNL     1     -41.455  53.674 -53.438  1.00  0.00     0.163 HD
HETATM   39  O   UNL     1     -39.880  54.181 -50.739  1.00  0.00    -0.268 OA
BRANCH  37  40
HETATM   40  C   UNL     1     -39.703  52.541 -53.189  1.00  0.00     0.084 C 
HETATM   41  C   UNL     1     -39.108  51.696 -52.055  1.00  0.00     0.025 C 
HETATM   42  C   UNL     1     -39.774  50.339 -51.861  1.00  0.00     0.002 C 
HETATM   43  C   UNL     1     -39.853  49.564 -53.169  1.00  0.00     0.000 C 
HETATM   44  C   UNL     1     -40.591  50.343 -54.249  1.00  0.00     0.002 C 
HETATM   45  C   UNL     1     -40.022  51.744 -54.463  1.00  0.00     0.025 C 
ENDBRANCH  37  40
ENDBRANCH  11  36
TORSDOF 7
ENDMDL
MODEL 4
REMARK VINA RESULT:      -9.8      1.340      1.864
REMARK  7 active torsions:
REMARK  status: ('A' for Active; 'I' for Inactive)
REMARK    1  A    between atoms: C_6  and  N_7 
REMARK       I    between atoms: N_7  and  C_8 
REMARK    2  A    between atoms: C_8  and  C_9 
REMARK    3  A    between atoms: C_9  and  N_10 
REMARK    4  A    between atoms: N_13  and  C_14 
REMARK    5  A    between atoms: C_14  and  C_15 
REMARK    6  A    between atoms: C_30  and  C_31 
REMARK       I    between atoms: C_31  and  N_32 
REMARK    7  A    between atoms: N_32  and  C_33 
ROOT
HETATM    1  N   UNL     1     -43.374  57.939 -53.366  1.00  0.00    -0.290 N 
HETATM    2  C   UNL     1     -42.659  57.956 -54.552  1.00  0.00     0.332 C 
HETATM    3  O   UNL     1     -42.072  56.941 -54.942  1.00  0.00    -0.246 OA
HETATM    4  N   UNL     1     -42.646  59.144 -55.264  1.00  0.00    -0.261 N 
HETATM    5  C   UNL     1     -43.144  60.348 -54.791  1.00  0.00     0.264 C 
HETATM    6  O   UNL     1     -43.138  61.397 -55.432  1.00  0.00    -0.267 OA
HETATM    7  C   UNL     1     -43.725  60.339 -53.437  1.00  0.00     0.059 A 
HETATM    8  C   UNL     1     -43.846  59.129 -52.755  1.00  0.00     0.056 A 
HETATM    9  C   UNL     1     -44.187  61.540 -52.876  1.00  0.00     0.020 A 
HETATM   10  C   UNL     1     -44.784  61.541 -51.616  1.00  0.00     0.018 A 
HETATM   11  C   UNL     1     -44.917  60.337 -50.920  1.00  0.00     0.034 A 
HETATM   12  C   UNL     1     -44.431  59.142 -51.481  1.00  0.00     0.048 A 
ENDROOT
BRANCH   1  13
HETATM   13  C   UNL     1     -43.736  56.625 -52.827  1.00  0.00     0.237 C 
BRANCH  13  14
HETATM   14  C   UNL     1     -42.616  55.883 -52.098  1.00  0.00     0.240 C 
HETATM   15  N   UNL     1     -42.072  54.850 -52.840  1.00  0.00    -0.325 N 
HETATM   16  H   UNL     1     -42.331  54.828 -53.826  1.00  0.00     0.169 HD
HETATM   17  O   UNL     1     -42.327  56.185 -50.943  1.00  0.00    -0.271 OA
BRANCH  15  18
HETATM   18  C   UNL     1     -41.272  53.781 -52.375  1.00  0.00     0.040 A 
HETATM   19  C   UNL     1     -40.521  53.033 -53.305  1.00  0.00    -0.035 A 
HETATM   20  C   UNL     1     -39.819  51.892 -52.870  1.00  0.00     0.015 A 
HETATM   21  C   UNL     1     -40.448  53.402 -54.763  1.00  0.00     0.050 C 
HETATM   22  C   UNL     1     -39.837  51.497 -51.528  1.00  0.00    -0.061 A 
HETATM   23  C   UNL     1     -39.126  50.257 -51.073  1.00  0.00     0.048 C 
HETATM   24  C   UNL     1     -40.556  52.263 -50.611  1.00  0.00     0.009 A 
HETATM   25  C   UNL     1     -41.262  53.395 -51.031  1.00  0.00     0.030 A 
ENDBRANCH  15  18
ENDBRANCH  13  14
ENDBRANCH   1  13
BRANCH   4  26
HETATM   26  C   UNL     1     -42.147  59.097 -56.634  1.00  0.00     0.175 C 
BRANCH  26  27
HETATM   27  C   UNL     1     -43.126  58.369 -57.539  1.00  0.00    -0.037 A 
HETATM   28  C   UNL     1     -42.674  57.361 -58.408  1.00  0.00     0.048 A 
HETATM   29  C   UNL     1     -43.581  56.807 -59.287  1.00  0.00     0.105 A 
HETATM   30  C   UNL     1     -44.896  57.206 -59.321  1.00  0.00     0.105 A 
HETATM   31  O   UNL     1     -43.306  55.852 -60.216  1.00  0.00    -0.323 OA
HETATM   32  O   UNL     1     -45.614  56.553 -60.273  1.00  0.00    -0.323 OA
HETATM   33  C   UNL     1     -45.382  58.176 -58.474  1.00  0.00     0.040 A 
HETATM   34  C   UNL     1     -44.594  55.712 -60.851  1.00  0.00     0.352 A 
HETATM   35  C   UNL     1     -44.484  58.763 -57.577  1.00  0.00     0.012 A 
ENDBRANCH  26  27
ENDBRANCH   4  26
BRANCH  11  36
HETATM   36  C   UNL     1     -45.551  60.268 -49.575  1.00  0.00     0.252 C 
HETATM   37  N   UNL     1     -45.528  61.429 -48.840  1.00  0.00    -0.352 N 
HETATM   38  H   UNL     1     -45.212  62.266 -49.310  1.00  0.00     0.163 HD
HETATM   39  O   UNL     1     -46.081  59.223 -49.232  1.00  0.00    -0.268 OA
BRANCH  37  40
HETATM   40  C   UNL     1     -46.221  61.660 -47.570  1.00  0.00     0.084 C 
HETATM   41  C   UNL     1     -45.830  60.648 -46.485  1.00  0.00     0.025 C 
HETATM   42  C   UNL     1     -44.665  61.085 -45.603  1.00  0.00     0.002 C 
HETATM   43  C   UNL     1     -44.891  62.478 -45.030  1.00  0.00     0.000 C 
HETATM   44  C   UNL     1     -45.118  63.513 -46.123  1.00  0.00     0.002 C 
HETATM   45  C   UNL     1     -46.231  63.119 -47.091  1.00  0.00     0.025 C 
ENDBRANCH  37  40
ENDBRANCH  11  36
TORSDOF 7
ENDMDL
MODEL 5
REMARK VINA RESULT:      -9.5      2.321      6.190
REMARK  7 active torsions:
REMARK  status: ('A' for Active; 'I' for Inactive)
REMARK    1  A    between atoms: C_6  and  N_7 
REMARK       I    between atoms: N_7  and  C_8 
REMARK    2  A    between atoms: C_8  and  C_9 
REMARK    3  A    between atoms: C_9  and  N_10 
REMARK    4  A    between atoms: N_13  and  C_14 
REMARK    5  A    between atoms: C_14  and  C_15 
REMARK    6  A    between atoms: C_30  and  C_31 
REMARK       I    between atoms: C_31  and  N_32 
REMARK    7  A    between atoms: N_32  and  C_33 
ROOT
HETATM    1  N   UNL     1     -44.051  57.333 -53.729  1.00  0.00    -0.290 N 
HETATM    2  C   UNL     1     -43.128  56.425 -54.222  1.00  0.00     0.332 C 
HETATM    3  O   UNL     1     -43.492  55.500 -54.956  1.00  0.00    -0.246 OA
HETATM    4  N   UNL     1     -41.804  56.612 -53.861  1.00  0.00    -0.261 N 
HETATM    5  C   UNL     1     -41.370  57.525 -52.913  1.00  0.00     0.264 C 
HETATM    6  O   UNL     1     -40.192  57.692 -52.604  1.00  0.00    -0.267 OA
HETATM    7  C   UNL     1     -42.405  58.346 -52.260  1.00  0.00     0.059 A 
HETATM    8  C   UNL     1     -43.727  58.247 -52.693  1.00  0.00     0.056 A 
HETATM    9  C   UNL     1     -42.038  59.242 -51.244  1.00  0.00     0.020 A 
HETATM   10  C   UNL     1     -42.998  60.060 -50.650  1.00  0.00     0.018 A 
HETATM   11  C   UNL     1     -44.326  59.978 -51.076  1.00  0.00     0.034 A 
HETATM   12  C   UNL     1     -44.689  59.060 -52.077  1.00  0.00     0.048 A 
ENDROOT
BRANCH   1  13
HETATM   13  C   UNL     1     -45.346  57.400 -54.410  1.00  0.00     0.237 C 
BRANCH  13  14
HETATM   14  C   UNL     1     -45.396  58.310 -55.638  1.00  0.00     0.240 C 
HETATM   15  N   UNL     1     -45.160  57.640 -56.824  1.00  0.00    -0.325 N 
HETATM   16  H   UNL     1     -45.177  56.622 -56.770  1.00  0.00     0.169 HD
HETATM   17  O   UNL     1     -45.566  59.518 -55.501  1.00  0.00    -0.271 OA
BRANCH  15  18
HETATM   18  C   UNL     1     -44.817  58.198 -58.077  1.00  0.00     0.040 A 
HETATM   19  C   UNL     1     -43.464  58.487 -58.351  1.00  0.00    -0.035 A 
HETATM   20  C   UNL     1     -43.127  59.156 -59.544  1.00  0.00     0.015 A 
HETATM   21  C   UNL     1     -42.354  58.116 -57.404  1.00  0.00     0.050 C 
HETATM   22  C   UNL     1     -44.107  59.523 -60.472  1.00  0.00    -0.061 A 
HETATM   23  C   UNL     1     -43.753  60.274 -61.721  1.00  0.00     0.048 C 
HETATM   24  C   UNL     1     -45.438  59.202 -60.206  1.00  0.00     0.009 A 
HETATM   25  C   UNL     1     -45.787  58.544 -59.023  1.00  0.00     0.030 A 
ENDBRANCH  15  18
ENDBRANCH  13  14
ENDBRANCH   1  13
BRANCH   4  26
HETATM   26  C   UNL     1     -40.797  55.849 -54.591  1.00  0.00     0.175 C 
BRANCH  26  27
HETATM   27  C   UNL     1     -40.600  54.479 -53.963  1.00  0.00    -0.037 A 
HETATM   28  C   UNL     1     -40.697  54.316 -52.571  1.00  0.00     0.048 A 
HETATM   29  C   UNL     1     -40.401  53.077 -52.041  1.00  0.00     0.105 A 
HETATM   30  C   UNL     1     -40.031  52.017 -52.834  1.00  0.00     0.105 A 
HETATM   31  O   UNL     1     -40.408  52.756 -50.719  1.00  0.00    -0.323 OA
HETATM   32  O   UNL     1     -39.761  50.897 -52.113  1.00  0.00    -0.323 OA
HETATM   33  C   UNL     1     -39.943  52.131 -54.203  1.00  0.00     0.040 A 
HETATM   34  C   UNL     1     -39.982  51.379 -50.771  1.00  0.00     0.352 A 
HETATM   35  C   UNL     1     -40.229  53.378 -54.770  1.00  0.00     0.012 A 
ENDBRANCH  26  27
ENDBRANCH   4  26
BRANCH  11  36
HETATM   36  C   UNL     1     -45.397  60.828 -50.488  1.00  0.00     0.252 C 
HETATM   37  N   UNL     1     -45.342  61.008 -49.126  1.00  0.00    -0.352 N 
HETATM   38  H   UNL     1     -44.518  60.671 -48.649  1.00  0.00     0.163 HD
HETATM   39  O   UNL     1     -46.214  61.340 -51.238  1.00  0.00    -0.268 OA
BRANCH  37  40
HETATM   40  C   UNL     1     -46.177  61.922 -48.343  1.00  0.00     0.084 C 
HETATM   41  C   UNL     1     -46.310  61.498 -46.874  1.00  0.00     0.025 C 
HETATM   42  C   UNL     1     -45.267  62.106 -45.943  1.00  0.00     0.002 C 
HETATM   43  C   UNL     1     -45.198  63.619 -46.096  1.00  0.00     0.000 C 
HETATM   44  C   UNL     1     -44.902  64.034 -47.531  1.00  0.00     0.002 C 
HETATM   45  C   UNL     1     -45.868  63.414 -48.538  1.00  0.00     0.025 C 
ENDBRANCH  37  40
ENDBRANCH  11  36
TORSDOF 7
ENDMDL
MODEL 6
REMARK VINA RESULT:      -9.5      3.535      4.729
REMARK  7 active torsions:
REMARK  status: ('A' for Active; 'I' for Inactive)
REMARK    1  A    between atoms: C_6  and  N_7 
REMARK       I    between atoms: N_7  and  C_8 
REMARK    2  A    between atoms: C_8  and  C_9 
REMARK    3  A    between atoms: C_9  and  N_10 
REMARK    4  A    between atoms: N_13  and  C_14 
REMARK    5  A    between atoms: C_14  and  C_15 
REMARK    6  A    between atoms: C_30  and  C_31 
REMARK       I    between atoms: C_31  and  N_32 
REMARK    7  A    between atoms: N_32  and  C_33 
ROOT
HETATM    1  N   UNL     1     -43.858  60.174 -54.183  1.00  0.00    -0.290 N 
HETATM    2  C   UNL     1     -42.720  60.073 -54.967  1.00  0.00     0.332 C 
HETATM    3  O   UNL     1     -41.720  59.484 -54.542  1.00  0.00    -0.246 OA
HETATM    4  N   UNL     1     -42.767  60.649 -56.225  1.00  0.00    -0.261 N 
HETATM    5  C   UNL     1     -43.795  61.460 -56.680  1.00  0.00     0.264 C 
HETATM    6  O   UNL     1     -43.834  61.961 -57.801  1.00  0.00    -0.267 OA
HETATM    7  C   UNL     1     -44.906  61.710 -55.744  1.00  0.00     0.059 A 
HETATM    8  C   UNL     1     -44.926  61.046 -54.517  1.00  0.00     0.056 A 
HETATM    9  C   UNL     1     -45.945  62.575 -56.121  1.00  0.00     0.020 A 
HETATM   10  C   UNL     1     -47.027  62.784 -55.267  1.00  0.00     0.018 A 
HETATM   11  C   UNL     1     -47.066  62.123 -54.036  1.00  0.00     0.034 A 
HETATM   12  C   UNL     1     -46.009  61.277 -53.658  1.00  0.00     0.048 A 
ENDROOT
BRANCH   1  13
HETATM   13  C   UNL     1     -43.973  59.246 -53.056  1.00  0.00     0.237 C 
BRANCH  13  14
HETATM   14  C   UNL     1     -43.887  57.762 -53.416  1.00  0.00     0.240 C 
HETATM   15  N   UNL     1     -42.735  57.154 -52.950  1.00  0.00    -0.325 N 
HETATM   16  H   UNL     1     -42.192  57.690 -52.275  1.00  0.00     0.169 HD
HETATM   17  O   UNL     1     -44.757  57.246 -54.112  1.00  0.00    -0.271 OA
BRANCH  15  18
HETATM   18  C   UNL     1     -42.186  55.918 -53.361  1.00  0.00     0.040 A 
HETATM   19  C   UNL     1     -42.376  54.780 -52.549  1.00  0.00    -0.035 A 
HETATM   20  C   UNL     1     -41.731  53.574 -52.885  1.00  0.00     0.015 A 
HETATM   21  C   UNL     1     -43.243  54.806 -51.318  1.00  0.00     0.050 C 
HETATM   22  C   UNL     1     -40.919  53.478 -54.019  1.00  0.00    -0.061 A 
HETATM   23  C   UNL     1     -40.196  52.206 -54.352  1.00  0.00     0.048 C 
HETATM   24  C   UNL     1     -40.764  54.600 -54.833  1.00  0.00     0.009 A 
HETATM   25  C   UNL     1     -41.394  55.805 -54.508  1.00  0.00     0.030 A 
ENDBRANCH  15  18
ENDBRANCH  13  14
ENDBRANCH   1  13
BRANCH   4  26
HETATM   26  C   UNL     1     -41.697  60.309 -57.157  1.00  0.00     0.175 C 
BRANCH  26  27
HETATM   27  C   UNL     1     -42.155  59.239 -58.134  1.00  0.00    -0.037 A 
HETATM   28  C   UNL     1     -42.693  58.030 -57.663  1.00  0.00     0.048 A 
HETATM   29  C   UNL     1     -42.990  57.048 -58.585  1.00  0.00     0.105 A 
HETATM   30  C   UNL     1     -42.786  57.232 -59.933  1.00  0.00     0.105 A 
HETATM   31  O   UNL     1     -43.480  55.812 -58.299  1.00  0.00    -0.323 OA
HETATM   32  O   UNL     1     -43.121  56.136 -60.663  1.00  0.00    -0.323 OA
HETATM   33  C   UNL     1     -42.279  58.409 -60.436  1.00  0.00     0.040 A 
HETATM   34  C   UNL     1     -43.541  55.232 -59.620  1.00  0.00     0.352 A 
HETATM   35  C   UNL     1     -41.959  59.420 -59.524  1.00  0.00     0.012 A 
ENDBRANCH  26  27
ENDBRANCH   4  26
BRANCH  11  36
HETATM   36  C   UNL     1     -48.196  62.297 -53.083  1.00  0.00     0.252 C 
HETATM   37  N   UNL     1     -49.456  62.146 -53.611  1.00  0.00    -0.352 N 
HETATM   38  H   UNL     1     -49.521  61.800 -54.558  1.00  0.00     0.163 HD
HETATM   39  O   UNL     1     -47.941  62.512 -51.908  1.00  0.00    -0.268 OA
BRANCH  37  40
HETATM   40  C   UNL     1     -50.710  62.108 -52.854  1.00  0.00     0.084 C 
HETATM   41  C   UNL     1     -51.233  63.505 -52.494  1.00  0.00     0.025 C 
HETATM   42  C   UNL     1     -52.197  64.101 -53.514  1.00  0.00     0.002 C 
HETATM   43  C   UNL     1     -53.328  63.136 -53.842  1.00  0.00     0.000 C 
HETATM   44  C   UNL     1     -52.806  61.801 -54.356  1.00  0.00     0.002 C 
HETATM   45  C   UNL     1     -51.782  61.164 -53.419  1.00  0.00     0.025 C 
ENDBRANCH  37  40
ENDBRANCH  11  36
TORSDOF 7
ENDMDL
MODEL 7
REMARK VINA RESULT:      -9.2      3.289      6.982
REMARK  7 active torsions:
REMARK  status: ('A' for Active; 'I' for Inactive)
REMARK    1  A    between atoms: C_6  and  N_7 
REMARK       I    between atoms: N_7  and  C_8 
REMARK    2  A    between atoms: C_8  and  C_9 
REMARK    3  A    between atoms: C_9  and  N_10 
REMARK    4  A    between atoms: N_13  and  C_14 
REMARK    5  A    between atoms: C_14  and  C_15 
REMARK    6  A    between atoms: C_30  and  C_31 
REMARK       I    between atoms: C_31  and  N_32 
REMARK    7  A    between atoms: N_32  and  C_33 
ROOT
HETATM    1  N   UNL     1     -44.330  58.911 -56.369  1.00  0.00    -0.290 N 
HETATM    2  C   UNL     1     -44.720  59.661 -57.467  1.00  0.00     0.332 C 
HETATM    3  O   UNL     1     -45.353  60.711 -57.312  1.00  0.00    -0.246 OA
HETATM    4  N   UNL     1     -44.364  59.183 -58.717  1.00  0.00    -0.261 N 
HETATM    5  C   UNL     1     -43.806  57.936 -58.951  1.00  0.00     0.264 C 
HETATM    6  O   UNL     1     -43.484  57.522 -60.062  1.00  0.00    -0.267 OA
HETATM    7  C   UNL     1     -43.583  57.078 -57.774  1.00  0.00     0.059 A 
HETATM    8  C   UNL     1     -43.833  57.589 -56.501  1.00  0.00     0.056 A 
HETATM    9  C   UNL     1     -43.083  55.778 -57.952  1.00  0.00     0.020 A 
HETATM   10  C   UNL     1     -42.820  54.971 -56.846  1.00  0.00     0.018 A 
HETATM   11  C   UNL     1     -43.060  55.469 -55.562  1.00  0.00     0.034 A 
HETATM   12  C   UNL     1     -43.584  56.764 -55.396  1.00  0.00     0.048 A 
ENDROOT
BRANCH   1  13
HETATM   13  C   UNL     1     -44.331  59.586 -55.069  1.00  0.00     0.237 C 
BRANCH  13  14
HETATM   14  C   UNL     1     -42.951  59.864 -54.472  1.00  0.00     0.240 C 
HETATM   15  N   UNL     1     -42.586  58.955 -53.496  1.00  0.00    -0.325 N 
HETATM   16  H   UNL     1     -43.166  58.119 -53.428  1.00  0.00     0.169 HD
HETATM   17  O   UNL     1     -42.317  60.855 -54.824  1.00  0.00    -0.271 OA
BRANCH  15  18
HETATM   18  C   UNL     1     -41.559  59.088 -52.534  1.00  0.00     0.040 A 
HETATM   19  C   UNL     1     -41.867  59.649 -51.277  1.00  0.00    -0.035 A 
HETATM   20  C   UNL     1     -40.830  59.899 -50.358  1.00  0.00     0.015 A 
HETATM   21  C   UNL     1     -43.275  60.004 -50.878  1.00  0.00     0.050 C 
HETATM   22  C   UNL     1     -39.501  59.586 -50.661  1.00  0.00    -0.061 A 
HETATM   23  C   UNL     1     -38.391  59.894 -49.700  1.00  0.00     0.048 C 
HETATM   24  C   UNL     1     -39.212  59.002 -51.894  1.00  0.00     0.009 A 
HETATM   25  C   UNL     1     -40.231  58.753 -52.817  1.00  0.00     0.030 A 
ENDBRANCH  15  18
ENDBRANCH  13  14
ENDBRANCH   1  13
BRANCH   4  26
HETATM   26  C   UNL     1     -44.514  60.092 -59.848  1.00  0.00     0.175 C 
BRANCH  26  27
HETATM   27  C   UNL     1     -43.188  60.753 -60.187  1.00  0.00    -0.037 A 
HETATM   28  C   UNL     1     -42.356  61.241 -59.165  1.00  0.00     0.048 A 
HETATM   29  C   UNL     1     -41.217  61.930 -59.528  1.00  0.00     0.105 A 
HETATM   30  C   UNL     1     -40.882  62.135 -60.846  1.00  0.00     0.105 A 
HETATM   31  O   UNL     1     -40.326  62.498 -58.672  1.00  0.00    -0.323 OA
HETATM   32  O   UNL     1     -39.738  62.855 -60.985  1.00  0.00    -0.323 OA
HETATM   33  C   UNL     1     -41.660  61.657 -61.876  1.00  0.00     0.040 A 
HETATM   34  C   UNL     1     -39.402  63.100 -59.603  1.00  0.00     0.352 A 
HETATM   35  C   UNL     1     -42.826  60.961 -61.539  1.00  0.00     0.012 A 
ENDBRANCH  26  27
ENDBRANCH   4  26
BRANCH  11  36
HETATM   36  C   UNL     1     -42.794  54.662 -54.340  1.00  0.00     0.252 C 
HETATM   37  N   UNL     1     -42.857  55.340 -53.146  1.00  0.00    -0.352 N 
HETATM   38  H   UNL     1     -43.207  56.288 -53.172  1.00  0.00     0.163 HD
HETATM   39  O   UNL     1     -42.587  53.465 -54.464  1.00  0.00    -0.268 OA
BRANCH  37  40
HETATM   40  C   UNL     1     -42.795  54.743 -51.810  1.00  0.00     0.084 C 
HETATM   41  C   UNL     1     -41.715  53.660 -51.690  1.00  0.00     0.025 C 
HETATM   42  C   UNL     1     -40.358  54.169 -51.215  1.00  0.00     0.002 C 
HETATM   43  C   UNL     1     -40.487  54.991 -49.940  1.00  0.00     0.000 C 
HETATM   44  C   UNL     1     -41.439  56.166 -50.112  1.00  0.00     0.002 C 
HETATM   45  C   UNL     1     -42.807  55.747 -50.648  1.00  0.00     0.025 C 
ENDBRANCH  37  40
ENDBRANCH  11  36
TORSDOF 7
ENDMDL
MODEL 8
REMARK VINA RESULT:      -8.9      2.018      2.719
REMARK  7 active torsions:
REMARK  status: ('A' for Active; 'I' for Inactive)
REMARK    1  A    between atoms: C_6  and  N_7 
REMARK       I    between atoms: N_7  and  C_8 
REMARK    2  A    between atoms: C_8  and  C_9 
REMARK    3  A    between atoms: C_9  and  N_10 
REMARK    4  A    between atoms: N_13  and  C_14 
REMARK    5  A    between atoms: C_14  and  C_15 
REMARK    6  A    between atoms: C_30  and  C_31 
REMARK       I    between atoms: C_31  and  N_32 
REMARK    7  A    between atoms: N_32  and  C_33 
ROOT
HETATM    1  N   UNL     1     -44.542  58.302 -53.202  1.00  0.00    -0.290 N 
HETATM    2  C   UNL     1     -44.700  57.806 -54.486  1.00  0.00     0.332 C 
HETATM    3  O   UNL     1     -44.402  56.635 -54.744  1.00  0.00    -0.246 OA
HETATM    4  N   UNL     1     -45.207  58.673 -55.440  1.00  0.00    -0.261 N 
HETATM    5  C   UNL     1     -45.397  60.031 -55.244  1.00  0.00     0.264 C 
HETATM    6  O   UNL     1     -45.856  60.793 -56.092  1.00  0.00    -0.267 OA
HETATM    7  C   UNL     1     -45.032  60.568 -53.921  1.00  0.00     0.059 A 
HETATM    8  C   UNL     1     -44.627  59.689 -52.917  1.00  0.00     0.056 A 
HETATM    9  C   UNL     1     -45.139  61.947 -53.681  1.00  0.00     0.020 A 
HETATM   10  C   UNL     1     -44.844  62.465 -52.421  1.00  0.00     0.018 A 
HETATM   11  C   UNL     1     -44.442  61.597 -51.402  1.00  0.00     0.034 A 
HETATM   12  C   UNL     1     -44.315  60.220 -51.658  1.00  0.00     0.048 A 
ENDROOT
BRANCH   1  13
HETATM   13  C   UNL     1     -44.408  57.321 -52.123  1.00  0.00     0.237 C 
BRANCH  13  14
HETATM   14  C   UNL     1     -43.024  56.686 -51.981  1.00  0.00     0.240 C 
HETATM   15  N   UNL     1     -42.921  55.458 -52.610  1.00  0.00    -0.325 N 
HETATM   16  H   UNL     1     -43.684  55.217 -53.241  1.00  0.00     0.169 HD
HETATM   17  O   UNL     1     -42.161  57.236 -51.303  1.00  0.00    -0.271 OA
BRANCH  15  18
HETATM   18  C   UNL     1     -41.928  54.471 -52.417  1.00  0.00     0.040 A 
HETATM   19  C   UNL     1     -41.317  53.884 -53.544  1.00  0.00    -0.035 A 
HETATM   20  C   UNL     1     -40.417  52.815 -53.367  1.00  0.00     0.015 A 
HETATM   21  C   UNL     1     -41.599  54.353 -54.947  1.00  0.00     0.050 C 
HETATM   22  C   UNL     1     -40.103  52.335 -52.091  1.00  0.00    -0.061 A 
HETATM   23  C   UNL     1     -39.180  51.168 -51.905  1.00  0.00     0.048 C 
HETATM   24  C   UNL     1     -40.688  52.944 -50.981  1.00  0.00     0.009 A 
HETATM   25  C   UNL     1     -41.587  54.003 -51.144  1.00  0.00     0.030 A 
ENDBRANCH  15  18
ENDBRANCH  13  14
ENDBRANCH   1  13
BRANCH   4  26
HETATM   26  C   UNL     1     -45.642  58.094 -56.706  1.00  0.00     0.175 C 
BRANCH  26  27
HETATM   27  C   UNL     1     -44.511  58.104 -57.721  1.00  0.00    -0.037 A 
HETATM   28  C   UNL     1     -44.220  59.271 -58.447  1.00  0.00     0.048 A 
HETATM   29  C   UNL     1     -43.259  59.199 -59.434  1.00  0.00     0.105 A 
HETATM   30  C   UNL     1     -42.584  58.032 -59.706  1.00  0.00     0.105 A 
HETATM   31  O   UNL     1     -42.882  60.218 -60.252  1.00  0.00    -0.323 OA
HETATM   32  O   UNL     1     -41.698  58.170 -60.728  1.00  0.00    -0.323 OA
HETATM   33  C   UNL     1     -42.826  56.873 -59.004  1.00  0.00     0.040 A 
HETATM   34  C   UNL     1     -41.907  59.553 -61.083  1.00  0.00     0.352 A 
HETATM   35  C   UNL     1     -43.803  56.912 -58.004  1.00  0.00     0.012 A 
ENDBRANCH  26  27
ENDBRANCH   4  26
BRANCH  11  36
HETATM   36  C   UNL     1     -44.120  62.084 -50.033  1.00  0.00     0.252 C 
HETATM   37  N   UNL     1     -45.044  61.793 -49.058  1.00  0.00    -0.352 N 
HETATM   38  H   UNL     1     -45.795  61.163 -49.308  1.00  0.00     0.163 HD
HETATM   39  O   UNL     1     -43.058  62.659 -49.852  1.00  0.00    -0.268 OA
BRANCH  37  40
HETATM   40  C   UNL     1     -44.882  62.018 -47.620  1.00  0.00     0.084 C 
HETATM   41  C   UNL     1     -45.076  63.487 -47.220  1.00  0.00     0.025 C 
HETATM   42  C   UNL     1     -46.503  63.854 -46.829  1.00  0.00     0.002 C 
HETATM   43  C   UNL     1     -47.055  62.900 -45.779  1.00  0.00     0.000 C 
HETATM   44  C   UNL     1     -47.012  61.451 -46.246  1.00  0.00     0.002 C 
HETATM   45  C   UNL     1     -45.624  61.021 -46.718  1.00  0.00     0.025 C 
ENDBRANCH  37  40
ENDBRANCH  11  36
TORSDOF 7
ENDMDL
MODEL 9
REMARK VINA RESULT:      -8.9      3.063      6.614
REMARK  7 active torsions:
REMARK  status: ('A' for Active; 'I' for Inactive)
REMARK    1  A    between atoms: C_6  and  N_7 
REMARK       I    between atoms: N_7  and  C_8 
REMARK    2  A    between atoms: C_8  and  C_9 
REMARK    3  A    between atoms: C_9  and  N_10 
REMARK    4  A    between atoms: N_13  and  C_14 
REMARK    5  A    between atoms: C_14  and  C_15 
REMARK    6  A    between atoms: C_30  and  C_31 
REMARK       I    between atoms: C_31  and  N_32 
REMARK    7  A    between atoms: N_32  and  C_33 
ROOT
HETATM    1  N   UNL     1     -44.086  57.287 -53.905  1.00  0.00    -0.290 N 
HETATM    2  C   UNL     1     -43.176  56.367 -54.401  1.00  0.00     0.332 C 
HETATM    3  O   UNL     1     -43.559  55.431 -55.110  1.00  0.00    -0.246 OA
HETATM    4  N   UNL     1     -41.844  56.557 -54.073  1.00  0.00    -0.261 N 
HETATM    5  C   UNL     1     -41.387  57.486 -53.151  1.00  0.00     0.264 C 
HETATM    6  O   UNL     1     -40.202  57.655 -52.871  1.00  0.00    -0.267 OA
HETATM    7  C   UNL     1     -42.406  58.321 -52.490  1.00  0.00     0.059 A 
HETATM    8  C   UNL     1     -43.737  58.218 -52.893  1.00  0.00     0.056 A 
HETATM    9  C   UNL     1     -42.014  59.235 -51.499  1.00  0.00     0.020 A 
HETATM   10  C   UNL     1     -42.958  60.066 -50.899  1.00  0.00     0.018 A 
HETATM   11  C   UNL     1     -44.296  59.980 -51.294  1.00  0.00     0.034 A 
HETATM   12  C   UNL     1     -44.683  59.045 -52.271  1.00  0.00     0.048 A 
ENDROOT
BRANCH   1  13
HETATM   13  C   UNL     1     -45.395  57.345 -54.559  1.00  0.00     0.237 C 
BRANCH  13  14
HETATM   14  C   UNL     1     -45.443  58.141 -55.863  1.00  0.00     0.240 C 
HETATM   15  N   UNL     1     -46.603  57.933 -56.587  1.00  0.00    -0.325 N 
HETATM   16  H   UNL     1     -47.353  57.449 -56.094  1.00  0.00     0.169 HD
HETATM   17  O   UNL     1     -44.480  58.823 -56.204  1.00  0.00    -0.271 OA
BRANCH  15  18
HETATM   18  C   UNL     1     -46.838  58.239 -57.947  1.00  0.00     0.040 A 
HETATM   19  C   UNL     1     -47.330  59.516 -58.286  1.00  0.00    -0.035 A 
HETATM   20  C   UNL     1     -47.683  59.789 -59.622  1.00  0.00     0.015 A 
HETATM   21  C   UNL     1     -47.504  60.609 -57.265  1.00  0.00     0.050 C 
HETATM   22  C   UNL     1     -47.539  58.823 -60.623  1.00  0.00    -0.061 A 
HETATM   23  C   UNL     1     -47.958  59.100 -62.037  1.00  0.00     0.048 C 
HETATM   24  C   UNL     1     -47.022  57.574 -60.282  1.00  0.00     0.009 A 
HETATM   25  C   UNL     1     -46.671  57.288 -58.959  1.00  0.00     0.030 A 
ENDBRANCH  15  18
ENDBRANCH  13  14
ENDBRANCH   1  13
BRANCH   4  26
HETATM   26  C   UNL     1     -40.856  55.778 -54.810  1.00  0.00     0.175 C 
BRANCH  26  27
HETATM   27  C   UNL     1     -40.523  54.492 -54.072  1.00  0.00    -0.037 A 
HETATM   28  C   UNL     1     -40.223  53.320 -54.787  1.00  0.00     0.048 A 
HETATM   29  C   UNL     1     -40.037  52.154 -54.073  1.00  0.00     0.105 A 
HETATM   30  C   UNL     1     -40.126  52.120 -52.701  1.00  0.00     0.105 A 
HETATM   31  O   UNL     1     -39.778  50.930 -54.606  1.00  0.00    -0.323 OA
HETATM   32  O   UNL     1     -39.933  50.872 -52.199  1.00  0.00    -0.323 OA
HETATM   33  C   UNL     1     -40.399  53.250 -51.964  1.00  0.00     0.040 A 
HETATM   34  C   UNL     1     -39.734  50.119 -53.413  1.00  0.00     0.352 A 
HETATM   35  C   UNL     1     -40.602  54.446 -52.660  1.00  0.00     0.012 A 
ENDBRANCH  26  27
ENDBRANCH   4  26
BRANCH  11  36
HETATM   36  C   UNL     1     -45.352  60.843 -50.699  1.00  0.00     0.252 C 
HETATM   37  N   UNL     1     -44.907  61.903 -49.944  1.00  0.00    -0.352 N 
HETATM   38  H   UNL     1     -43.915  62.096 -49.960  1.00  0.00     0.163 HD
HETATM   39  O   UNL     1     -46.520  60.593 -50.948  1.00  0.00    -0.268 OA
BRANCH  37  40
HETATM   40  C   UNL     1     -45.735  62.978 -49.393  1.00  0.00     0.084 C 
HETATM   41  C   UNL     1     -46.451  62.576 -48.097  1.00  0.00     0.025 C 
HETATM   42  C   UNL     1     -45.681  62.903 -46.822  1.00  0.00     0.002 C 
HETATM   43  C   UNL     1     -45.232  64.358 -46.799  1.00  0.00     0.000 C 
HETATM   44  C   UNL     1     -44.381  64.711 -48.011  1.00  0.00     0.002 C 
HETATM   45  C   UNL     1     -45.058  64.355 -49.334  1.00  0.00     0.025 C 
ENDBRANCH  37  40
ENDBRANCH  11  36
TORSDOF 7
ENDMDL
MODEL 10
REMARK VINA RESULT:      -8.9      2.563      4.121
REMARK  7 active torsions:
REMARK  status: ('A' for Active; 'I' for Inactive)
REMARK    1  A    between atoms: C_6  and  N_7 
REMARK       I    between atoms: N_7  and  C_8 
REMARK    2  A    between atoms: C_8  and  C_9 
REMARK    3  A    between atoms: C_9  and  N_10 
REMARK    4  A    between atoms: N_13  and  C_14 
REMARK    5  A    between atoms: C_14  and  C_15 
REMARK    6  A    between atoms: C_30  and  C_31 
REMARK       I    between atoms: C_31  and  N_32 
REMARK    7  A    between atoms: N_32  and  C_33 
ROOT
HETATM    1  N   UNL     1     -42.744  58.832 -55.864  1.00  0.00    -0.290 N 
HETATM    2  C   UNL     1     -42.253  58.067 -56.910  1.00  0.00     0.332 C 
HETATM    3  O   UNL     1     -41.975  56.876 -56.734  1.00  0.00    -0.246 OA
HETATM    4  N   UNL     1     -42.103  58.694 -58.135  1.00  0.00    -0.261 N 
HETATM    5  C   UNL     1     -42.241  60.058 -58.341  1.00  0.00     0.264 C 
HETATM    6  O   UNL     1     -42.115  60.607 -59.433  1.00  0.00    -0.267 OA
HETATM    7  C   UNL     1     -42.572  60.877 -57.161  1.00  0.00     0.059 A 
HETATM    8  C   UNL     1     -42.836  60.246 -55.946  1.00  0.00     0.056 A 
HETATM    9  C   UNL     1     -42.660  62.272 -57.291  1.00  0.00     0.020 A 
HETATM   10  C   UNL     1     -43.020  63.056 -56.196  1.00  0.00     0.018 A 
HETATM   11  C   UNL     1     -43.292  62.440 -54.972  1.00  0.00     0.034 A 
HETATM   12  C   UNL     1     -43.179  61.044 -54.846  1.00  0.00     0.048 A 
ENDROOT
BRANCH   1  13
HETATM   13  C   UNL     1     -43.286  58.111 -54.710  1.00  0.00     0.237 C 
BRANCH  13  14
HETATM   14  C   UNL     1     -42.252  57.402 -53.834  1.00  0.00     0.240 C 
HETATM   15  N   UNL     1     -42.349  56.023 -53.884  1.00  0.00    -0.325 N 
HETATM   16  H   UNL     1     -42.941  55.646 -54.623  1.00  0.00     0.169 HD
HETATM   17  O   UNL     1     -41.489  58.058 -53.129  1.00  0.00    -0.271 OA
BRANCH  15  18
HETATM   18  C   UNL     1     -41.791  55.087 -52.984  1.00  0.00     0.040 A 
HETATM   19  C   UNL     1     -40.804  54.193 -53.450  1.00  0.00    -0.035 A 
HETATM   20  C   UNL     1     -40.331  53.177 -52.597  1.00  0.00     0.015 A 
HETATM   21  C   UNL     1     -40.237  54.276 -54.843  1.00  0.00     0.050 C 
HETATM   22  C   UNL     1     -40.809  53.048 -51.289  1.00  0.00    -0.061 A 
HETATM   23  C   UNL     1     -40.338  51.939 -50.395  1.00  0.00     0.048 C 
HETATM   24  C   UNL     1     -41.760  53.957 -50.828  1.00  0.00     0.009 A 
HETATM   25  C   UNL     1     -42.242  54.967 -51.665  1.00  0.00     0.030 A 
ENDBRANCH  15  18
ENDBRANCH  13  14
ENDBRANCH   1  13
BRANCH   4  26
HETATM   26  C   UNL     1     -41.865  57.845 -59.297  1.00  0.00     0.175 C 
BRANCH  26  27
HETATM   27  C   UNL     1     -43.158  57.197 -59.764  1.00  0.00    -0.037 A 
HETATM   28  C   UNL     1     -44.271  57.989 -60.091  1.00  0.00     0.048 A 
HETATM   29  C   UNL     1     -45.453  57.349 -60.403  1.00  0.00     0.105 A 
HETATM   30  C   UNL     1     -45.558  55.978 -60.410  1.00  0.00     0.105 A 
HETATM   31  O   UNL     1     -46.630  57.959 -60.706  1.00  0.00    -0.323 OA
HETATM   32  O   UNL     1     -46.811  55.553 -60.720  1.00  0.00    -0.323 OA
HETATM   33  C   UNL     1     -44.485  55.167 -60.114  1.00  0.00     0.040 A 
HETATM   34  C   UNL     1     -47.491  56.815 -60.885  1.00  0.00     0.352 A 
HETATM   35  C   UNL     1     -43.275  55.786 -59.785  1.00  0.00     0.012 A 
ENDBRANCH  26  27
ENDBRANCH   4  26
BRANCH  11  36
HETATM   36  C   UNL     1     -43.689  63.219 -53.767  1.00  0.00     0.252 C 
HETATM   37  N   UNL     1     -43.947  62.484 -52.635  1.00  0.00    -0.352 N 
HETATM   38  H   UNL     1     -43.720  61.499 -52.662  1.00  0.00     0.163 HD
HETATM   39  O   UNL     1     -43.717  64.437 -53.842  1.00  0.00    -0.268 OA
BRANCH  37  40
HETATM   40  C   UNL     1     -44.195  63.022 -51.295  1.00  0.00     0.084 C 
HETATM   41  C   UNL     1     -45.688  63.126 -50.960  1.00  0.00     0.025 C 
HETATM   42  C   UNL     1     -46.268  61.899 -50.264  1.00  0.00     0.002 C 
HETATM   43  C   UNL     1     -45.437  61.502 -49.052  1.00  0.00     0.000 C 
HETATM   44  C   UNL     1     -43.983  61.239 -49.418  1.00  0.00     0.002 C 
HETATM   45  C   UNL     1     -43.344  62.400 -50.177  1.00  0.00     0.025 C 
ENDBRANCH  37  40
ENDBRANCH  11  36
TORSDOF 7
ENDMDL
