MODEL 1
REMARK VINA RESULT:      -8.2      0.000      0.000
REMARK  5 active torsions:
REMARK  status: ('A' for Active; 'I' for Inactive)
REMARK    1  A    between atoms: C_4  and  O_5 
REMARK    2  A    between atoms: O_5  and  C_6 
REMARK    3  A    between atoms: C_6  and  C_7 
REMARK       I    between atoms: C_7  and  N_8 
REMARK    4  A    between atoms: N_8  and  N_9 
REMARK    5  A    between atoms: C_10  and  C_11 
ROOT
HETATM    1  C   UNL     1     -42.678  56.328 -55.732  1.00  0.00     0.261 C 
HETATM    2  N   UNL     1     -41.954  55.150 -55.890  1.00  0.00    -0.246 N 
HETATM    3  O   UNL     1     -43.139  56.763 -54.678  1.00  0.00    -0.269 OA
HETATM    4  H   UNL     1     -41.845  54.805 -56.842  1.00  0.00     0.192 HD
ENDROOT
BRANCH   2   5
HETATM    5  N   UNL     1     -41.652  54.226 -54.917  1.00  0.00    -0.184 NA
HETATM    6  C   UNL     1     -40.712  54.492 -54.067  1.00  0.00     0.152 C 
BRANCH   6   7
HETATM    7  C   UNL     1     -40.395  53.538 -53.021  1.00  0.00     0.011 A 
HETATM    8  C   UNL     1     -40.121  52.141 -53.197  1.00  0.00     0.004 A 
HETATM    9  C   UNL     1     -39.887  51.599 -51.932  1.00  0.00     0.043 A 
HETATM   10  C   UNL     1     -40.041  51.289 -54.318  1.00  0.00     0.014 A 
HETATM   11  C   UNL     1     -39.587  50.246 -51.732  1.00  0.00     0.030 A 
HETATM   12  N   UNL     1     -40.011  52.625 -51.023  1.00  0.00    -0.364 N 
HETATM   13  C   UNL     1     -39.513  49.424 -52.861  1.00  0.00     0.002 A 
HETATM   14  C   UNL     1     -39.736  49.935 -54.137  1.00  0.00     0.001 A 
HETATM   15  H   UNL     1     -39.894  52.521 -50.025  1.00  0.00     0.165 HD
HETATM   16  C   UNL     1     -40.309  53.795 -51.666  1.00  0.00     0.102 A 
ENDBRANCH   6   7
ENDBRANCH   2   5
BRANCH   1  17
HETATM   17  C   UNL     1     -42.775  57.135 -57.022  1.00  0.00     0.280 C 
BRANCH  17  18
HETATM   18  O   UNL     1     -42.666  56.299 -58.170  1.00  0.00    -0.342 OA
BRANCH  18  19
HETATM   19  C   UNL     1     -43.824  56.184 -58.898  1.00  0.00     0.069 A 
HETATM   20  C   UNL     1     -44.803  57.178 -58.998  1.00  0.00     0.043 A 
HETATM   21  C   UNL     1     -45.962  56.961 -59.756  1.00  0.00    -0.059 A 
HETATM   22  C   UNL     1     -47.003  58.035 -59.881  1.00  0.00     0.048 C 
HETATM   23  C   UNL     1     -46.114  55.751 -60.443  1.00  0.00     0.007 A 
HETATM   24  C   UNL     1     -45.127  54.767 -60.362  1.00  0.00     0.003 A 
HETATM   25  C   UNL     1     -43.983  54.988 -59.596  1.00  0.00     0.037 A 
ENDBRANCH  18  19
ENDBRANCH  17  18
ENDBRANCH   1  17
TORSDOF 5
ENDMDL
MODEL 2
REMARK VINA RESULT:      -7.9      1.631      2.202
REMARK  5 active torsions:
REMARK  status: ('A' for Active; 'I' for Inactive)
REMARK    1  A    between atoms: C_4  and  O_5 
REMARK    2  A    between atoms: O_5  and  C_6 
REMARK    3  A    between atoms: C_6  and  C_7 
REMARK       I    between atoms: C_7  and  N_8 
REMARK    4  A    between atoms: N_8  and  N_9 
REMARK    5  A    between atoms: C_10  and  C_11 
ROOT
HETATM    1  C   UNL     1     -42.810  57.437 -54.336  1.00  0.00     0.261 C 
HETATM    2  N   UNL     1     -42.731  56.055 -54.476  1.00  0.00    -0.246 N 
HETATM    3  O   UNL     1     -42.415  58.095 -53.376  1.00  0.00    -0.269 OA
HETATM    4  H   UNL     1     -43.305  55.635 -55.205  1.00  0.00     0.192 HD
ENDROOT
BRANCH   2   5
HETATM    5  N   UNL     1     -42.239  55.155 -53.559  1.00  0.00    -0.184 NA
HETATM    6  C   UNL     1     -41.189  54.459 -53.860  1.00  0.00     0.152 C 
BRANCH   6   7
HETATM    7  C   UNL     1     -40.644  53.522 -52.896  1.00  0.00     0.011 A 
HETATM    8  C   UNL     1     -40.319  52.146 -53.136  1.00  0.00     0.004 A 
HETATM    9  C   UNL     1     -39.845  51.614 -51.937  1.00  0.00     0.043 A 
HETATM   10  C   UNL     1     -40.375  51.306 -54.269  1.00  0.00     0.014 A 
HETATM   11  C   UNL     1     -39.433  50.281 -51.810  1.00  0.00     0.030 A 
HETATM   12  N   UNL     1     -39.878  52.626 -51.004  1.00  0.00    -0.364 N 
HETATM   13  C   UNL     1     -39.499  49.471 -52.947  1.00  0.00     0.002 A 
HETATM   14  C   UNL     1     -39.962  49.973 -54.161  1.00  0.00     0.001 A 
HETATM   15  H   UNL     1     -39.590  52.525 -50.041  1.00  0.00     0.165 HD
HETATM   16  C   UNL     1     -40.350  53.778 -51.571  1.00  0.00     0.102 A 
ENDBRANCH   6   7
ENDBRANCH   2   5
BRANCH   1  17
HETATM   17  C   UNL     1     -43.367  58.122 -55.579  1.00  0.00     0.280 C 
BRANCH  17  18
HETATM   18  O   UNL     1     -42.337  58.414 -56.519  1.00  0.00    -0.342 OA
BRANCH  18  19
HETATM   19  C   UNL     1     -42.470  57.768 -57.723  1.00  0.00     0.069 A 
HETATM   20  C   UNL     1     -43.229  56.611 -57.926  1.00  0.00     0.043 A 
HETATM   21  C   UNL     1     -43.292  56.014 -59.193  1.00  0.00    -0.059 A 
HETATM   22  C   UNL     1     -44.123  54.785 -59.416  1.00  0.00     0.048 C 
HETATM   23  C   UNL     1     -42.615  56.609 -60.264  1.00  0.00     0.007 A 
HETATM   24  C   UNL     1     -41.875  57.777 -60.067  1.00  0.00     0.003 A 
HETATM   25  C   UNL     1     -41.810  58.356 -58.800  1.00  0.00     0.037 A 
ENDBRANCH  18  19
ENDBRANCH  17  18
ENDBRANCH   1  17
TORSDOF 5
ENDMDL
MODEL 3
REMARK VINA RESULT:      -7.9      1.970      8.482
REMARK  5 active torsions:
REMARK  status: ('A' for Active; 'I' for Inactive)
REMARK    1  A    between atoms: C_4  and  O_5 
REMARK    2  A    between atoms: O_5  and  C_6 
REMARK    3  A    between atoms: C_6  and  C_7 
REMARK       I    between atoms: C_7  and  N_8 
REMARK    4  A    between atoms: N_8  and  N_9 
REMARK    5  A    between atoms: C_10  and  C_11 
ROOT
HETATM    1  C   UNL     1     -42.124  55.111 -53.017  1.00  0.00     0.261 C 
HETATM    2  N   UNL     1     -42.697  54.562 -54.160  1.00  0.00    -0.246 N 
HETATM    3  O   UNL     1     -41.955  56.308 -52.791  1.00  0.00    -0.269 OA
HETATM    4  H   UNL     1     -42.556  53.564 -54.309  1.00  0.00     0.192 HD
ENDROOT
BRANCH   2   5
HETATM    5  N   UNL     1     -43.144  55.239 -55.271  1.00  0.00    -0.184 NA
HETATM    6  C   UNL     1     -42.280  55.773 -56.073  1.00  0.00     0.152 C 
BRANCH   6   7
HETATM    7  C   UNL     1     -42.733  56.472 -57.261  1.00  0.00     0.011 A 
HETATM    8  C   UNL     1     -43.441  55.899 -58.368  1.00  0.00     0.004 A 
HETATM    9  C   UNL     1     -43.661  56.918 -59.296  1.00  0.00     0.043 A 
HETATM   10  C   UNL     1     -43.925  54.606 -58.663  1.00  0.00     0.014 A 
HETATM   11  C   UNL     1     -44.332  56.708 -60.507  1.00  0.00     0.030 A 
HETATM   12  N   UNL     1     -43.112  58.066 -58.773  1.00  0.00    -0.364 N 
HETATM   13  C   UNL     1     -44.801  55.418 -60.774  1.00  0.00     0.002 A 
HETATM   14  C   UNL     1     -44.603  54.380 -59.866  1.00  0.00     0.001 A 
HETATM   15  H   UNL     1     -43.123  58.966 -59.233  1.00  0.00     0.165 HD
HETATM   16  C   UNL     1     -42.557  57.812 -57.548  1.00  0.00     0.102 A 
ENDBRANCH   6   7
ENDBRANCH   2   5
BRANCH   1  17
HETATM   17  C   UNL     1     -41.794  54.061 -51.963  1.00  0.00     0.280 C 
BRANCH  17  18
HETATM   18  O   UNL     1     -40.405  53.745 -51.959  1.00  0.00    -0.342 OA
BRANCH  18  19
HETATM   19  C   UNL     1     -40.127  52.412 -52.133  1.00  0.00     0.069 A 
HETATM   20  C   UNL     1     -40.023  51.777 -53.375  1.00  0.00     0.043 A 
HETATM   21  C   UNL     1     -39.750  50.404 -53.451  1.00  0.00    -0.059 A 
HETATM   22  C   UNL     1     -39.617  49.726 -54.783  1.00  0.00     0.048 C 
HETATM   23  C   UNL     1     -39.546  49.681 -52.270  1.00  0.00     0.007 A 
HETATM   24  C   UNL     1     -39.628  50.318 -51.031  1.00  0.00     0.003 A 
HETATM   25  C   UNL     1     -39.911  51.682 -50.966  1.00  0.00     0.037 A 
ENDBRANCH  18  19
ENDBRANCH  17  18
ENDBRANCH   1  17
TORSDOF 5
ENDMDL
MODEL 4
REMARK VINA RESULT:      -7.8      2.032      9.332
REMARK  5 active torsions:
REMARK  status: ('A' for Active; 'I' for Inactive)
REMARK    1  A    between atoms: C_4  and  O_5 
REMARK    2  A    between atoms: O_5  and  C_6 
REMARK    3  A    between atoms: C_6  and  C_7 
REMARK       I    between atoms: C_7  and  N_8 
REMARK    4  A    between atoms: N_8  and  N_9 
REMARK    5  A    between atoms: C_10  and  C_11 
ROOT
HETATM    1  C   UNL     1     -42.137  54.902 -55.682  1.00  0.00     0.261 C 
HETATM    2  N   UNL     1     -42.188  55.809 -56.736  1.00  0.00    -0.246 N 
HETATM    3  O   UNL     1     -43.044  54.153 -55.322  1.00  0.00    -0.269 OA
HETATM    4  H   UNL     1     -41.457  56.518 -56.765  1.00  0.00     0.192 HD
ENDROOT
BRANCH   2   5
HETATM    5  N   UNL     1     -43.264  56.076 -57.549  1.00  0.00    -0.184 NA
HETATM    6  C   UNL     1     -43.221  55.714 -58.791  1.00  0.00     0.152 C 
BRANCH   6   7
HETATM    7  C   UNL     1     -44.356  55.968 -59.658  1.00  0.00     0.011 A 
HETATM    8  C   UNL     1     -45.277  57.063 -59.555  1.00  0.00     0.004 A 
HETATM    9  C   UNL     1     -46.222  56.910 -60.571  1.00  0.00     0.043 A 
HETATM   10  C   UNL     1     -45.388  58.177 -58.697  1.00  0.00     0.014 A 
HETATM   11  C   UNL     1     -47.277  57.810 -60.766  1.00  0.00     0.030 A 
HETATM   12  N   UNL     1     -45.888  55.770 -61.266  1.00  0.00    -0.364 N 
HETATM   13  C   UNL     1     -47.363  58.905 -59.900  1.00  0.00     0.002 A 
HETATM   14  C   UNL     1     -46.433  59.090 -58.880  1.00  0.00     0.001 A 
HETATM   15  H   UNL     1     -46.402  55.412 -62.059  1.00  0.00     0.165 HD
HETATM   16  C   UNL     1     -44.765  55.200 -60.730  1.00  0.00     0.102 A 
ENDBRANCH   6   7
ENDBRANCH   2   5
BRANCH   1  17
HETATM   17  C   UNL     1     -40.760  54.833 -55.032  1.00  0.00     0.280 C 
BRANCH  17  18
HETATM   18  O   UNL     1     -40.855  54.602 -53.630  1.00  0.00    -0.342 OA
BRANCH  18  19
HETATM   19  C   UNL     1     -40.441  53.356 -53.232  1.00  0.00     0.069 A 
HETATM   20  C   UNL     1     -40.235  52.273 -54.092  1.00  0.00     0.043 A 
HETATM   21  C   UNL     1     -39.825  51.031 -53.588  1.00  0.00    -0.059 A 
HETATM   22  C   UNL     1     -39.584  49.874 -54.514  1.00  0.00     0.048 C 
HETATM   23  C   UNL     1     -39.588  50.894 -52.216  1.00  0.00     0.007 A 
HETATM   24  C   UNL     1     -39.771  51.981 -51.359  1.00  0.00     0.003 A 
HETATM   25  C   UNL     1     -40.191  53.209 -51.869  1.00  0.00     0.037 A 
ENDBRANCH  18  19
ENDBRANCH  17  18
ENDBRANCH   1  17
TORSDOF 5
ENDMDL
MODEL 5
REMARK VINA RESULT:      -7.6      2.063      3.036
REMARK  5 active torsions:
REMARK  status: ('A' for Active; 'I' for Inactive)
REMARK    1  A    between atoms: C_4  and  O_5 
REMARK    2  A    between atoms: O_5  and  C_6 
REMARK    3  A    between atoms: C_6  and  C_7 
REMARK       I    between atoms: C_7  and  N_8 
REMARK    4  A    between atoms: N_8  and  N_9 
REMARK    5  A    between atoms: C_10  and  C_11 
ROOT
HETATM    1  C   UNL     1     -43.399  56.232 -55.649  1.00  0.00     0.261 C 
HETATM    2  N   UNL     1     -42.563  55.124 -55.754  1.00  0.00    -0.246 N 
HETATM    3  O   UNL     1     -43.893  56.675 -54.614  1.00  0.00    -0.269 OA
HETATM    4  H   UNL     1     -42.427  54.740 -56.687  1.00  0.00     0.192 HD
ENDROOT
BRANCH   2   5
HETATM    5  N   UNL     1     -42.163  54.289 -54.737  1.00  0.00    -0.184 NA
HETATM    6  C   UNL     1     -40.959  54.394 -54.273  1.00  0.00     0.152 C 
BRANCH   6   7
HETATM    7  C   UNL     1     -40.528  53.535 -53.186  1.00  0.00     0.011 A 
HETATM    8  C   UNL     1     -40.222  52.137 -53.275  1.00  0.00     0.004 A 
HETATM    9  C   UNL     1     -39.871  51.704 -51.996  1.00  0.00     0.043 A 
HETATM   10  C   UNL     1     -40.203  51.200 -54.330  1.00  0.00     0.014 A 
HETATM   11  C   UNL     1     -39.510  50.380 -51.718  1.00  0.00     0.030 A 
HETATM   12  N   UNL     1     -39.955  52.795 -51.162  1.00  0.00    -0.364 N 
HETATM   13  C   UNL     1     -39.499  49.472 -52.782  1.00  0.00     0.002 A 
HETATM   14  C   UNL     1     -39.840  49.874 -54.071  1.00  0.00     0.001 A 
HETATM   15  H   UNL     1     -39.756  52.775 -50.172  1.00  0.00     0.165 HD
HETATM   16  C   UNL     1     -40.343  53.902 -51.867  1.00  0.00     0.102 A 
ENDBRANCH   6   7
ENDBRANCH   2   5
BRANCH   1  17
HETATM   17  C   UNL     1     -43.586  56.954 -56.979  1.00  0.00     0.280 C 
BRANCH  17  18
HETATM   18  O   UNL     1     -42.345  57.128 -57.657  1.00  0.00    -0.342 OA
BRANCH  18  19
HETATM   19  C   UNL     1     -42.157  58.383 -58.179  1.00  0.00     0.069 A 
HETATM   20  C   UNL     1     -42.142  58.682 -59.545  1.00  0.00     0.043 A 
HETATM   21  C   UNL     1     -41.927  59.997 -59.984  1.00  0.00    -0.059 A 
HETATM   22  C   UNL     1     -41.931  60.322 -61.449  1.00  0.00     0.048 C 
HETATM   23  C   UNL     1     -41.762  61.014 -59.038  1.00  0.00     0.007 A 
HETATM   24  C   UNL     1     -41.800  60.721 -57.674  1.00  0.00     0.003 A 
HETATM   25  C   UNL     1     -42.003  59.408 -57.248  1.00  0.00     0.037 A 
ENDBRANCH  18  19
ENDBRANCH  17  18
ENDBRANCH   1  17
TORSDOF 5
ENDMDL
MODEL 6
REMARK VINA RESULT:      -7.5      2.312      9.016
REMARK  5 active torsions:
REMARK  status: ('A' for Active; 'I' for Inactive)
REMARK    1  A    between atoms: C_4  and  O_5 
REMARK    2  A    between atoms: O_5  and  C_6 
REMARK    3  A    between atoms: C_6  and  C_7 
REMARK       I    between atoms: C_7  and  N_8 
REMARK    4  A    between atoms: N_8  and  N_9 
REMARK    5  A    between atoms: C_10  and  C_11 
ROOT
HETATM    1  C   UNL     1     -43.232  55.655 -54.232  1.00  0.00     0.261 C 
HETATM    2  N   UNL     1     -42.604  55.714 -55.472  1.00  0.00    -0.246 N 
HETATM    3  O   UNL     1     -44.269  56.233 -53.913  1.00  0.00    -0.269 OA
HETATM    4  H   UNL     1     -41.642  55.381 -55.515  1.00  0.00     0.192 HD
ENDROOT
BRANCH   2   5
HETATM    5  N   UNL     1     -42.991  56.458 -56.563  1.00  0.00    -0.184 NA
HETATM    6  C   UNL     1     -43.078  55.882 -57.719  1.00  0.00     0.152 C 
BRANCH   6   7
HETATM    7  C   UNL     1     -43.506  56.647 -58.875  1.00  0.00     0.011 A 
HETATM    8  C   UNL     1     -43.075  57.968 -59.229  1.00  0.00     0.004 A 
HETATM    9  C   UNL     1     -43.748  58.328 -60.397  1.00  0.00     0.043 A 
HETATM   10  C   UNL     1     -42.165  58.889 -58.668  1.00  0.00     0.014 A 
HETATM   11  C   UNL     1     -43.564  59.565 -61.027  1.00  0.00     0.030 A 
HETATM   12  N   UNL     1     -44.554  57.267 -60.743  1.00  0.00    -0.364 N 
HETATM   13  C   UNL     1     -42.657  60.459 -60.449  1.00  0.00     0.002 A 
HETATM   14  C   UNL     1     -41.965  60.128 -59.287  1.00  0.00     0.001 A 
HETATM   15  H   UNL     1     -45.160  57.249 -61.551  1.00  0.00     0.165 HD
HETATM   16  C   UNL     1     -44.412  56.250 -59.839  1.00  0.00     0.102 A 
ENDBRANCH   6   7
ENDBRANCH   2   5
BRANCH   1  17
HETATM   17  C   UNL     1     -42.551  54.683 -53.275  1.00  0.00     0.280 C 
BRANCH  17  18
HETATM   18  O   UNL     1     -41.165  54.542 -53.573  1.00  0.00    -0.342 OA
BRANCH  18  19
HETATM   19  C   UNL     1     -40.631  53.327 -53.223  1.00  0.00     0.069 A 
HETATM   20  C   UNL     1     -40.416  52.268 -54.110  1.00  0.00     0.043 A 
HETATM   21  C   UNL     1     -39.878  51.056 -53.654  1.00  0.00    -0.059 A 
HETATM   22  C   UNL     1     -39.627  49.926 -54.609  1.00  0.00     0.048 C 
HETATM   23  C   UNL     1     -39.524  50.929 -52.306  1.00  0.00     0.007 A 
HETATM   24  C   UNL     1     -39.718  51.994 -51.424  1.00  0.00     0.003 A 
HETATM   25  C   UNL     1     -40.264  53.191 -51.885  1.00  0.00     0.037 A 
ENDBRANCH  18  19
ENDBRANCH  17  18
ENDBRANCH   1  17
TORSDOF 5
ENDMDL
MODEL 7
REMARK VINA RESULT:      -7.5      2.350      3.152
REMARK  5 active torsions:
REMARK  status: ('A' for Active; 'I' for Inactive)
REMARK    1  A    between atoms: C_4  and  O_5 
REMARK    2  A    between atoms: O_5  and  C_6 
REMARK    3  A    between atoms: C_6  and  C_7 
REMARK       I    between atoms: C_7  and  N_8 
REMARK    4  A    between atoms: N_8  and  N_9 
REMARK    5  A    between atoms: C_10  and  C_11 
ROOT
HETATM    1  C   UNL     1     -42.964  56.290 -56.433  1.00  0.00     0.261 C 
HETATM    2  N   UNL     1     -42.268  55.085 -56.414  1.00  0.00    -0.246 N 
HETATM    3  O   UNL     1     -43.392  56.899 -55.455  1.00  0.00    -0.269 OA
HETATM    4  H   UNL     1     -42.187  54.588 -57.300  1.00  0.00     0.192 HD
ENDROOT
BRANCH   2   5
HETATM    5  N   UNL     1     -41.960  54.323 -55.311  1.00  0.00    -0.184 NA
HETATM    6  C   UNL     1     -40.849  54.541 -54.684  1.00  0.00     0.152 C 
BRANCH   6   7
HETATM    7  C   UNL     1     -40.519  53.761 -53.506  1.00  0.00     0.011 A 
HETATM    8  C   UNL     1     -40.209  52.362 -53.471  1.00  0.00     0.004 A 
HETATM    9  C   UNL     1     -39.976  52.019 -52.139  1.00  0.00     0.043 A 
HETATM   10  C   UNL     1     -40.095  51.355 -54.454  1.00  0.00     0.014 A 
HETATM   11  C   UNL     1     -39.644  50.718 -51.738  1.00  0.00     0.030 A 
HETATM   12  N   UNL     1     -40.135  53.164 -51.393  1.00  0.00    -0.364 N 
HETATM   13  C   UNL     1     -39.537  49.741 -52.732  1.00  0.00     0.002 A 
HETATM   14  C   UNL     1     -39.758  50.052 -54.072  1.00  0.00     0.001 A 
HETATM   15  H   UNL     1     -40.027  53.213 -50.389  1.00  0.00     0.165 HD
HETATM   16  C   UNL     1     -40.456  54.218 -52.204  1.00  0.00     0.102 A 
ENDBRANCH   6   7
ENDBRANCH   2   5
BRANCH   1  17
HETATM   17  C   UNL     1     -43.075  56.880 -57.835  1.00  0.00     0.280 C 
BRANCH  17  18
HETATM   18  O   UNL     1     -43.578  58.213 -57.800  1.00  0.00    -0.342 OA
BRANCH  18  19
HETATM   19  C   UNL     1     -42.897  59.095 -58.600  1.00  0.00     0.069 A 
HETATM   20  C   UNL     1     -42.052  60.106 -58.132  1.00  0.00     0.043 A 
HETATM   21  C   UNL     1     -41.409  60.970 -59.029  1.00  0.00    -0.059 A 
HETATM   22  C   UNL     1     -40.486  62.042 -58.527  1.00  0.00     0.048 C 
HETATM   23  C   UNL     1     -41.594  60.789 -60.405  1.00  0.00     0.007 A 
HETATM   24  C   UNL     1     -42.420  59.766 -60.875  1.00  0.00     0.003 A 
HETATM   25  C   UNL     1     -43.063  58.918 -59.973  1.00  0.00     0.037 A 
ENDBRANCH  18  19
ENDBRANCH  17  18
ENDBRANCH   1  17
TORSDOF 5
ENDMDL
MODEL 8
REMARK VINA RESULT:      -7.3      6.607      8.767
REMARK  5 active torsions:
REMARK  status: ('A' for Active; 'I' for Inactive)
REMARK    1  A    between atoms: C_4  and  O_5 
REMARK    2  A    between atoms: O_5  and  C_6 
REMARK    3  A    between atoms: C_6  and  C_7 
REMARK       I    between atoms: C_7  and  N_8 
REMARK    4  A    between atoms: N_8  and  N_9 
REMARK    5  A    between atoms: C_10  and  C_11 
ROOT
HETATM    1  C   UNL     1     -44.897  58.744 -50.816  1.00  0.00     0.261 C 
HETATM    2  N   UNL     1     -43.597  58.267 -50.957  1.00  0.00    -0.246 N 
HETATM    3  O   UNL     1     -45.924  58.067 -50.817  1.00  0.00    -0.269 OA
HETATM    4  H   UNL     1     -42.878  58.956 -51.173  1.00  0.00     0.192 HD
ENDROOT
BRANCH   2   5
HETATM    5  N   UNL     1     -43.209  56.964 -51.166  1.00  0.00    -0.184 NA
HETATM    6  C   UNL     1     -41.947  56.686 -51.235  1.00  0.00     0.152 C 
BRANCH   6   7
HETATM    7  C   UNL     1     -41.520  55.314 -51.433  1.00  0.00     0.011 A 
HETATM    8  C   UNL     1     -41.059  54.734 -52.661  1.00  0.00     0.004 A 
HETATM    9  C   UNL     1     -40.774  53.392 -52.408  1.00  0.00     0.043 A 
HETATM   10  C   UNL     1     -40.848  55.231 -53.965  1.00  0.00     0.014 A 
HETATM   11  C   UNL     1     -40.298  52.520 -53.395  1.00  0.00     0.030 A 
HETATM   12  N   UNL     1     -41.048  53.164 -51.079  1.00  0.00    -0.364 N 
HETATM   13  C   UNL     1     -40.098  53.039 -54.678  1.00  0.00     0.002 A 
HETATM   14  C   UNL     1     -40.368  54.375 -54.961  1.00  0.00     0.001 A 
HETATM   15  H   UNL     1     -40.933  52.273 -50.616  1.00  0.00     0.165 HD
HETATM   16  C   UNL     1     -41.490  54.313 -50.482  1.00  0.00     0.102 A 
ENDBRANCH   6   7
ENDBRANCH   2   5
BRANCH   1  17
HETATM   17  C   UNL     1     -44.947  60.243 -50.546  1.00  0.00     0.280 C 
BRANCH  17  18
HETATM   18  O   UNL     1     -46.067  60.591 -49.737  1.00  0.00    -0.342 OA
BRANCH  18  19
HETATM   19  C   UNL     1     -45.753  61.319 -48.618  1.00  0.00     0.069 A 
HETATM   20  C   UNL     1     -45.340  60.770 -47.400  1.00  0.00     0.043 A 
HETATM   21  C   UNL     1     -45.055  61.598 -46.306  1.00  0.00    -0.059 A 
HETATM   22  C   UNL     1     -44.592  61.010 -45.005  1.00  0.00     0.048 C 
HETATM   23  C   UNL     1     -45.152  62.986 -46.455  1.00  0.00     0.007 A 
HETATM   24  C   UNL     1     -45.542  63.537 -47.677  1.00  0.00     0.003 A 
HETATM   25  C   UNL     1     -45.835  62.704 -48.756  1.00  0.00     0.037 A 
ENDBRANCH  18  19
ENDBRANCH  17  18
ENDBRANCH   1  17
TORSDOF 5
ENDMDL
MODEL 9
REMARK VINA RESULT:      -7.1      4.291      5.291
REMARK  5 active torsions:
REMARK  status: ('A' for Active; 'I' for Inactive)
REMARK    1  A    between atoms: C_4  and  O_5 
REMARK    2  A    between atoms: O_5  and  C_6 
REMARK    3  A    between atoms: C_6  and  C_7 
REMARK       I    between atoms: C_7  and  N_8 
REMARK    4  A    between atoms: N_8  and  N_9 
REMARK    5  A    between atoms: C_10  and  C_11 
ROOT
HETATM    1  C   UNL     1     -42.064  59.414 -56.958  1.00  0.00     0.261 C 
HETATM    2  N   UNL     1     -42.113  59.292 -55.572  1.00  0.00    -0.246 N 
HETATM    3  O   UNL     1     -42.042  58.490 -57.769  1.00  0.00    -0.269 OA
HETATM    4  H   UNL     1     -41.889  60.126 -55.032  1.00  0.00     0.192 HD
ENDROOT
BRANCH   2   5
HETATM    5  N   UNL     1     -42.104  58.128 -54.841  1.00  0.00    -0.184 NA
HETATM    6  C   UNL     1     -41.216  57.974 -53.912  1.00  0.00     0.152 C 
BRANCH   6   7
HETATM    7  C   UNL     1     -41.205  56.760 -53.117  1.00  0.00     0.011 A 
HETATM    8  C   UNL     1     -40.873  55.444 -53.577  1.00  0.00     0.004 A 
HETATM    9  C   UNL     1     -41.013  54.575 -52.494  1.00  0.00     0.043 A 
HETATM   10  C   UNL     1     -40.457  54.911 -54.816  1.00  0.00     0.014 A 
HETATM   11  C   UNL     1     -40.766  53.200 -52.589  1.00  0.00     0.030 A 
HETATM   12  N   UNL     1     -41.411  55.333 -51.417  1.00  0.00    -0.364 N 
HETATM   13  C   UNL     1     -40.354  52.699 -53.828  1.00  0.00     0.002 A 
HETATM   14  C   UNL     1     -40.200  53.540 -54.927  1.00  0.00     0.001 A 
HETATM   15  H   UNL     1     -41.591  54.965 -50.493  1.00  0.00     0.165 HD
HETATM   16  C   UNL     1     -41.524  56.648 -51.778  1.00  0.00     0.102 A 
ENDBRANCH   6   7
ENDBRANCH   2   5
BRANCH   1  17
HETATM   17  C   UNL     1     -42.144  60.863 -57.423  1.00  0.00     0.280 C 
BRANCH  17  18
HETATM   18  O   UNL     1     -40.856  61.380 -57.744  1.00  0.00    -0.342 OA
BRANCH  18  19
HETATM   19  C   UNL     1     -40.722  61.799 -59.044  1.00  0.00     0.069 A 
HETATM   20  C   UNL     1     -41.532  61.378 -60.104  1.00  0.00     0.043 A 
HETATM   21  C   UNL     1     -41.307  61.852 -61.404  1.00  0.00    -0.059 A 
HETATM   22  C   UNL     1     -42.189  61.416 -62.537  1.00  0.00     0.048 C 
HETATM   23  C   UNL     1     -40.284  62.781 -61.625  1.00  0.00     0.007 A 
HETATM   24  C   UNL     1     -39.490  63.220 -60.565  1.00  0.00     0.003 A 
HETATM   25  C   UNL     1     -39.714  62.733 -59.277  1.00  0.00     0.037 A 
ENDBRANCH  18  19
ENDBRANCH  17  18
ENDBRANCH   1  17
TORSDOF 5
ENDMDL
MODEL 10
REMARK VINA RESULT:      -7.0     13.951     17.239
REMARK  5 active torsions:
REMARK  status: ('A' for Active; 'I' for Inactive)
REMARK    1  A    between atoms: C_4  and  O_5 
REMARK    2  A    between atoms: O_5  and  C_6 
REMARK    3  A    between atoms: C_6  and  C_7 
REMARK       I    between atoms: C_7  and  N_8 
REMARK    4  A    between atoms: N_8  and  N_9 
REMARK    5  A    between atoms: C_10  and  C_11 
ROOT
HETATM    1  C   UNL     1     -36.116  41.948 -54.329  1.00  0.00     0.261 C 
HETATM    2  N   UNL     1     -37.213  42.171 -55.157  1.00  0.00    -0.246 N 
HETATM    3  O   UNL     1     -34.970  41.694 -54.694  1.00  0.00    -0.269 OA
HETATM    4  H   UNL     1     -38.132  42.135 -54.718  1.00  0.00     0.192 HD
ENDROOT
BRANCH   2   5
HETATM    5  N   UNL     1     -37.242  42.110 -56.530  1.00  0.00    -0.184 NA
HETATM    6  C   UNL     1     -37.365  40.957 -57.106  1.00  0.00     0.152 C 
BRANCH   6   7
HETATM    7  C   UNL     1     -37.418  40.876 -58.554  1.00  0.00     0.011 A 
HETATM    8  C   UNL     1     -37.697  39.704 -59.331  1.00  0.00     0.004 A 
HETATM    9  C   UNL     1     -37.627  40.069 -60.677  1.00  0.00     0.043 A 
HETATM   10  C   UNL     1     -38.012  38.365 -59.014  1.00  0.00     0.014 A 
HETATM   11  C   UNL     1     -37.848  39.161 -61.720  1.00  0.00     0.030 A 
HETATM   12  N   UNL     1     -37.322  41.410 -60.716  1.00  0.00    -0.364 N 
HETATM   13  C   UNL     1     -38.159  37.841 -61.377  1.00  0.00     0.002 A 
HETATM   14  C   UNL     1     -38.241  37.447 -60.044  1.00  0.00     0.001 A 
HETATM   15  H   UNL     1     -37.207  41.946 -61.566  1.00  0.00     0.165 HD
HETATM   16  C   UNL     1     -37.200  41.907 -59.447  1.00  0.00     0.102 A 
ENDBRANCH   6   7
ENDBRANCH   2   5
BRANCH   1  17
HETATM   17  C   UNL     1     -36.442  42.154 -52.854  1.00  0.00     0.280 C 
BRANCH  17  18
HETATM   18  O   UNL     1     -35.272  42.450 -52.098  1.00  0.00    -0.342 OA
BRANCH  18  19
HETATM   19  C   UNL     1     -34.831  41.416 -51.310  1.00  0.00     0.069 A 
HETATM   20  C   UNL     1     -35.664  40.521 -50.632  1.00  0.00     0.043 A 
HETATM   21  C   UNL     1     -35.119  39.503 -49.837  1.00  0.00    -0.059 A 
HETATM   22  C   UNL     1     -36.013  38.529 -49.126  1.00  0.00     0.048 C 
HETATM   23  C   UNL     1     -33.728  39.370 -49.756  1.00  0.00     0.007 A 
HETATM   24  C   UNL     1     -32.895  40.249 -50.450  1.00  0.00     0.003 A 
HETATM   25  C   UNL     1     -33.448  41.265 -51.229  1.00  0.00     0.037 A 
ENDBRANCH  18  19
ENDBRANCH  17  18
ENDBRANCH   1  17
TORSDOF 5
ENDMDL
