MODEL 1
REMARK VINA RESULT:      -8.7      0.000      0.000
REMARK  5 active torsions:
REMARK  status: ('A' for Active; 'I' for Inactive)
REMARK    1  A    between atoms: C_3  and  N_4 
REMARK       I    between atoms: N_4  and  C_5 
REMARK    2  A    between atoms: C_9  and  N_10 
REMARK       I    between atoms: N_10  and  C_11 
REMARK    3  A    between atoms: C_11  and  C_12 
REMARK    4  A    between atoms: C_17  and  C_18 
REMARK    5  A    between atoms: C_24  and  C_25 
ROOT
HETATM    1  C   UNL     1     -42.589  56.203 -55.844  1.00  0.00     0.148 A 
HETATM    2  N   UNL     1     -43.104  56.068 -57.090  1.00  0.00    -0.165 NA
HETATM    3  N   UNL     1     -42.932  57.291 -57.624  1.00  0.00    -0.240 N 
HETATM    4  C   UNL     1     -42.462  58.224 -56.746  1.00  0.00     0.123 A 
HETATM    5  N   UNL     1     -42.350  59.518 -57.105  1.00  0.00    -0.364 N 
HETATM    6  C   UNL     1     -43.137  60.094 -58.202  1.00  0.00     0.143 C 
HETATM    7  C   UNL     1     -43.924  59.029 -59.001  1.00  0.00     0.068 C 
HETATM    8  C   UNL     1     -43.307  57.623 -58.984  1.00  0.00     0.221 C 
HETATM    9  C   UNL     1     -42.159  57.539 -55.602  1.00  0.00     0.089 A 
HETATM   10  H   UNL     1     -42.038  60.208 -56.422  1.00  0.00     0.162 HD
ENDROOT
BRANCH   1  11
HETATM   11  C   UNL     1     -42.532  55.091 -54.880  1.00  0.00     0.276 C 
HETATM   12  N   UNL     1     -41.236  54.764 -54.528  1.00  0.00    -0.322 N 
HETATM   13  H   UNL     1     -40.533  55.343 -54.979  1.00  0.00     0.169 HD
HETATM   14  O   UNL     1     -43.555  54.537 -54.493  1.00  0.00    -0.266 OA
BRANCH  12  15
HETATM   15  C   UNL     1     -40.803  53.717 -53.692  1.00  0.00     0.037 A 
HETATM   16  C   UNL     1     -40.865  53.760 -52.298  1.00  0.00     0.059 A 
HETATM   17  C   UNL     1     -40.465  52.672 -51.495  1.00  0.00     0.042 A 
HETATM   18  C   UNL     1     -39.918  51.536 -52.112  1.00  0.00    -0.035 A 
HETATM   19  C   UNL     1     -39.332  50.358 -51.384  1.00  0.00     0.050 C 
HETATM   20  C   UNL     1     -39.871  51.493 -53.520  1.00  0.00     0.011 A 
HETATM   21  C   UNL     1     -40.305  52.569 -54.300  1.00  0.00     0.030 A 
BRANCH  17  22
HETATM   22  N   UNL     1     -40.623  52.883 -50.104  1.00  0.00    -0.327 N 
HETATM   23  C   UNL     1     -39.970  53.790 -49.292  1.00  0.00     0.218 C 
HETATM   24  C   UNL     1     -40.474  53.737 -47.870  1.00  0.00     0.117 C 
HETATM   25  O   UNL     1     -39.072  54.560 -49.609  1.00  0.00    -0.274 OA
HETATM   26  H   UNL     1     -41.080  52.126 -49.610  1.00  0.00     0.169 HD
ENDBRANCH  17  22
ENDBRANCH  12  15
ENDBRANCH   1  11
BRANCH   8  27
HETATM   27  C   UNL     1     -42.114  57.470 -59.898  1.00  0.00     0.409 C 
HETATM   28  F   UNL     1     -41.946  56.185 -60.289  1.00  0.00    -0.169 F 
HETATM   29  F   UNL     1     -42.306  58.190 -61.034  1.00  0.00    -0.169 F 
HETATM   30  F   UNL     1     -40.950  57.883 -59.363  1.00  0.00    -0.169 F 
ENDBRANCH   8  27
BRANCH   6  31
HETATM   31  C   UNL     1     -42.355  61.003 -59.096  1.00  0.00     0.075 A 
HETATM   32  O   UNL     1     -42.901  61.261 -60.321  1.00  0.00    -0.325 OA
HETATM   33  C   UNL     1     -42.074  62.134 -60.951  1.00  0.00     0.142 A 
HETATM   34  C   UNL     1     -41.000  62.442 -60.151  1.00  0.00     0.027 A 
HETATM   35  C   UNL     1     -41.180  61.713 -58.952  1.00  0.00     0.037 A 
ENDBRANCH   6  31
TORSDOF 5
ENDMDL
MODEL 2
REMARK VINA RESULT:      -8.5      2.500      3.489
REMARK  5 active torsions:
REMARK  status: ('A' for Active; 'I' for Inactive)
REMARK    1  A    between atoms: C_3  and  N_4 
REMARK       I    between atoms: N_4  and  C_5 
REMARK    2  A    between atoms: C_9  and  N_10 
REMARK       I    between atoms: N_10  and  C_11 
REMARK    3  A    between atoms: C_11  and  C_12 
REMARK    4  A    between atoms: C_17  and  C_18 
REMARK    5  A    between atoms: C_24  and  C_25 
ROOT
HETATM    1  C   UNL     1     -42.124  55.777 -55.894  1.00  0.00     0.148 A 
HETATM    2  N   UNL     1     -42.217  57.111 -56.116  1.00  0.00    -0.165 NA
HETATM    3  N   UNL     1     -43.069  57.186 -57.156  1.00  0.00    -0.240 N 
HETATM    4  C   UNL     1     -43.412  55.977 -57.686  1.00  0.00     0.123 A 
HETATM    5  N   UNL     1     -44.165  55.899 -58.802  1.00  0.00    -0.364 N 
HETATM    6  C   UNL     1     -44.247  57.003 -59.765  1.00  0.00     0.143 C 
HETATM    7  C   UNL     1     -43.561  58.294 -59.261  1.00  0.00     0.068 C 
HETATM    8  C   UNL     1     -43.506  58.441 -57.733  1.00  0.00     0.221 C 
HETATM    9  C   UNL     1     -42.877  55.037 -56.850  1.00  0.00     0.089 A 
HETATM   10  H   UNL     1     -44.375  54.987 -59.208  1.00  0.00     0.162 HD
ENDROOT
BRANCH   1  11
HETATM   11  C   UNL     1     -41.305  55.205 -54.811  1.00  0.00     0.276 C 
HETATM   12  N   UNL     1     -41.473  53.838 -54.689  1.00  0.00    -0.322 N 
HETATM   13  H   UNL     1     -42.123  53.446 -55.365  1.00  0.00     0.169 HD
HETATM   14  O   UNL     1     -40.596  55.919 -54.110  1.00  0.00    -0.266 OA
BRANCH  12  15
HETATM   15  C   UNL     1     -40.910  52.979 -53.726  1.00  0.00     0.037 A 
HETATM   16  C   UNL     1     -40.950  53.220 -52.352  1.00  0.00     0.059 A 
HETATM   17  C   UNL     1     -40.415  52.312 -51.414  1.00  0.00     0.042 A 
HETATM   18  C   UNL     1     -39.755  51.164 -51.880  1.00  0.00    -0.035 A 
HETATM   19  C   UNL     1     -39.027  50.177 -51.010  1.00  0.00     0.050 C 
HETATM   20  C   UNL     1     -39.730  50.920 -53.268  1.00  0.00     0.011 A 
HETATM   21  C   UNL     1     -40.297  51.815 -54.179  1.00  0.00     0.030 A 
BRANCH  17  22
HETATM   22  N   UNL     1     -40.571  52.707 -50.064  1.00  0.00    -0.327 N 
HETATM   23  C   UNL     1     -39.960  53.752 -49.398  1.00  0.00     0.218 C 
HETATM   24  C   UNL     1     -40.445  53.873 -47.974  1.00  0.00     0.117 C 
HETATM   25  O   UNL     1     -39.108  54.516 -49.834  1.00  0.00    -0.274 OA
HETATM   26  H   UNL     1     -40.981  52.004 -49.461  1.00  0.00     0.169 HD
ENDBRANCH  17  22
ENDBRANCH  12  15
ENDBRANCH   1  11
BRANCH   8  27
HETATM   27  C   UNL     1     -44.819  58.861 -57.114  1.00  0.00     0.409 C 
HETATM   28  F   UNL     1     -44.650  59.338 -55.858  1.00  0.00    -0.169 F 
HETATM   29  F   UNL     1     -45.367  59.874 -57.834  1.00  0.00    -0.169 F 
HETATM   30  F   UNL     1     -45.740  57.881 -57.050  1.00  0.00    -0.169 F 
ENDBRANCH   8  27
BRANCH   6  31
HETATM   31  C   UNL     1     -45.630  57.262 -60.272  1.00  0.00     0.075 A 
HETATM   32  O   UNL     1     -45.958  58.570 -60.488  1.00  0.00    -0.325 OA
HETATM   33  C   UNL     1     -47.220  58.588 -60.987  1.00  0.00     0.142 A 
HETATM   34  C   UNL     1     -47.714  57.310 -61.093  1.00  0.00     0.027 A 
HETATM   35  C   UNL     1     -46.688  56.452 -60.633  1.00  0.00     0.037 A 
ENDBRANCH   6  31
TORSDOF 5
ENDMDL
MODEL 3
REMARK VINA RESULT:      -8.5      2.814      4.179
REMARK  5 active torsions:
REMARK  status: ('A' for Active; 'I' for Inactive)
REMARK    1  A    between atoms: C_3  and  N_4 
REMARK       I    between atoms: N_4  and  C_5 
REMARK    2  A    between atoms: C_9  and  N_10 
REMARK       I    between atoms: N_10  and  C_11 
REMARK    3  A    between atoms: C_11  and  C_12 
REMARK    4  A    between atoms: C_17  and  C_18 
REMARK    5  A    between atoms: C_24  and  C_25 
ROOT
HETATM    1  C   UNL     1     -42.247  56.168 -55.613  1.00  0.00     0.148 A 
HETATM    2  N   UNL     1     -42.544  57.485 -55.734  1.00  0.00    -0.165 NA
HETATM    3  N   UNL     1     -43.327  57.519 -56.829  1.00  0.00    -0.240 N 
HETATM    4  C   UNL     1     -43.432  56.324 -57.479  1.00  0.00     0.123 A 
HETATM    5  N   UNL     1     -44.087  56.230 -58.654  1.00  0.00    -0.364 N 
HETATM    6  C   UNL     1     -44.287  57.391 -59.529  1.00  0.00     0.143 C 
HETATM    7  C   UNL     1     -43.858  58.723 -58.871  1.00  0.00     0.068 C 
HETATM    8  C   UNL     1     -43.927  58.736 -57.337  1.00  0.00     0.221 C 
HETATM    9  C   UNL     1     -42.805  55.409 -56.681  1.00  0.00     0.089 A 
HETATM   10  H   UNL     1     -44.118  55.338 -59.146  1.00  0.00     0.162 HD
ENDROOT
BRANCH   1  11
HETATM   11  C   UNL     1     -41.418  55.636 -54.517  1.00  0.00     0.276 C 
HETATM   12  N   UNL     1     -42.137  55.460 -53.350  1.00  0.00    -0.322 N 
HETATM   13  H   UNL     1     -43.117  55.716 -53.433  1.00  0.00     0.169 HD
HETATM   14  O   UNL     1     -40.221  55.422 -54.677  1.00  0.00    -0.266 OA
BRANCH  12  15
HETATM   15  C   UNL     1     -41.659  55.041 -52.093  1.00  0.00     0.037 A 
HETATM   16  C   UNL     1     -41.314  53.722 -51.795  1.00  0.00     0.059 A 
HETATM   17  C   UNL     1     -40.795  53.347 -50.538  1.00  0.00     0.042 A 
HETATM   18  C   UNL     1     -40.690  54.318 -49.529  1.00  0.00    -0.035 A 
HETATM   19  C   UNL     1     -40.279  54.043 -48.109  1.00  0.00     0.050 C 
HETATM   20  C   UNL     1     -41.027  55.651 -49.841  1.00  0.00     0.011 A 
HETATM   21  C   UNL     1     -41.508  56.008 -51.104  1.00  0.00     0.030 A 
BRANCH  17  22
HETATM   22  N   UNL     1     -40.475  51.973 -50.423  1.00  0.00    -0.327 N 
HETATM   23  C   UNL     1     -39.676  51.205 -51.248  1.00  0.00     0.218 C 
HETATM   24  C   UNL     1     -39.540  49.790 -50.741  1.00  0.00     0.117 C 
HETATM   25  O   UNL     1     -39.129  51.551 -52.288  1.00  0.00    -0.274 OA
HETATM   26  H   UNL     1     -41.090  51.444 -49.818  1.00  0.00     0.169 HD
ENDBRANCH  17  22
ENDBRANCH  12  15
ENDBRANCH   1  11
BRANCH   8  27
HETATM   27  C   UNL     1     -45.328  58.885 -56.792  1.00  0.00     0.409 C 
HETATM   28  F   UNL     1     -45.329  59.450 -55.561  1.00  0.00    -0.169 F 
HETATM   29  F   UNL     1     -46.050  59.713 -57.590  1.00  0.00    -0.169 F 
HETATM   30  F   UNL     1     -46.014  57.729 -56.703  1.00  0.00    -0.169 F 
ENDBRANCH   8  27
BRANCH   6  31
HETATM   31  C   UNL     1     -45.659  57.473 -60.121  1.00  0.00     0.075 A 
HETATM   32  O   UNL     1     -46.077  58.716 -60.503  1.00  0.00    -0.325 OA
HETATM   33  C   UNL     1     -47.310  58.570 -61.054  1.00  0.00     0.142 A 
HETATM   34  C   UNL     1     -47.694  57.251 -61.030  1.00  0.00     0.027 A 
HETATM   35  C   UNL     1     -46.629  56.540 -60.430  1.00  0.00     0.037 A 
ENDBRANCH   6  31
TORSDOF 5
ENDMDL
MODEL 4
REMARK VINA RESULT:      -8.4      1.911      2.462
REMARK  5 active torsions:
REMARK  status: ('A' for Active; 'I' for Inactive)
REMARK    1  A    between atoms: C_3  and  N_4 
REMARK       I    between atoms: N_4  and  C_5 
REMARK    2  A    between atoms: C_9  and  N_10 
REMARK       I    between atoms: N_10  and  C_11 
REMARK    3  A    between atoms: C_11  and  C_12 
REMARK    4  A    between atoms: C_17  and  C_18 
REMARK    5  A    between atoms: C_24  and  C_25 
ROOT
HETATM    1  C   UNL     1     -42.627  55.790 -56.335  1.00  0.00     0.148 A 
HETATM    2  N   UNL     1     -42.289  57.071 -56.047  1.00  0.00    -0.165 NA
HETATM    3  N   UNL     1     -42.531  57.716 -57.203  1.00  0.00    -0.240 N 
HETATM    4  C   UNL     1     -42.873  56.897 -58.239  1.00  0.00     0.123 A 
HETATM    5  N   UNL     1     -43.031  57.387 -59.486  1.00  0.00    -0.364 N 
HETATM    6  C   UNL     1     -42.401  58.641 -59.916  1.00  0.00     0.143 C 
HETATM    7  C   UNL     1     -41.734  59.410 -58.752  1.00  0.00     0.068 C 
HETATM    8  C   UNL     1     -42.346  59.143 -57.368  1.00  0.00     0.221 C 
HETATM    9  C   UNL     1     -43.016  55.650 -57.698  1.00  0.00     0.089 A 
HETATM   10  H   UNL     1     -43.244  56.752 -60.256  1.00  0.00     0.162 HD
ENDROOT
BRANCH   1  11
HETATM   11  C   UNL     1     -42.552  54.704 -55.343  1.00  0.00     0.276 C 
HETATM   12  N   UNL     1     -41.284  54.561 -54.811  1.00  0.00    -0.322 N 
HETATM   13  H   UNL     1     -40.611  55.228 -55.180  1.00  0.00     0.169 HD
HETATM   14  O   UNL     1     -43.534  54.017 -55.082  1.00  0.00    -0.266 OA
BRANCH  12  15
HETATM   15  C   UNL     1     -40.832  53.590 -53.898  1.00  0.00     0.037 A 
HETATM   16  C   UNL     1     -40.915  53.730 -52.511  1.00  0.00     0.059 A 
HETATM   17  C   UNL     1     -40.494  52.715 -51.628  1.00  0.00     0.042 A 
HETATM   18  C   UNL     1     -39.903  51.556 -52.155  1.00  0.00    -0.035 A 
HETATM   19  C   UNL     1     -39.292  50.452 -51.338  1.00  0.00     0.050 C 
HETATM   20  C   UNL     1     -39.834  51.415 -53.556  1.00  0.00     0.011 A 
HETATM   21  C   UNL     1     -40.290  52.418 -54.416  1.00  0.00     0.030 A 
BRANCH  17  22
HETATM   22  N   UNL     1     -40.679  53.019 -50.257  1.00  0.00    -0.327 N 
HETATM   23  C   UNL     1     -39.953  53.887 -49.464  1.00  0.00     0.218 C 
HETATM   24  C   UNL     1     -40.514  53.972 -48.065  1.00  0.00     0.117 C 
HETATM   25  O   UNL     1     -38.958  54.527 -49.778  1.00  0.00    -0.274 OA
HETATM   26  H   UNL     1     -41.242  52.350 -49.747  1.00  0.00     0.169 HD
ENDBRANCH  17  22
ENDBRANCH  12  15
ENDBRANCH   1  11
BRANCH   8  27
HETATM   27  C   UNL     1     -43.654  59.862 -57.132  1.00  0.00     0.409 C 
HETATM   28  F   UNL     1     -44.716  59.056 -57.367  1.00  0.00    -0.169 F 
HETATM   29  F   UNL     1     -43.746  60.240 -55.831  1.00  0.00    -0.169 F 
HETATM   30  F   UNL     1     -43.818  60.971 -57.877  1.00  0.00    -0.169 F 
ENDBRANCH   8  27
BRANCH   6  31
HETATM   31  C   UNL     1     -43.298  59.519 -60.730  1.00  0.00     0.075 A 
HETATM   32  O   UNL     1     -44.640  59.354 -60.537  1.00  0.00    -0.325 OA
HETATM   33  C   UNL     1     -45.270  60.266 -61.321  1.00  0.00     0.142 A 
HETATM   34  C   UNL     1     -44.355  61.015 -62.020  1.00  0.00     0.027 A 
HETATM   35  C   UNL     1     -43.080  60.535 -61.638  1.00  0.00     0.037 A 
ENDBRANCH   6  31
TORSDOF 5
ENDMDL
MODEL 5
REMARK VINA RESULT:      -8.4      1.990      2.979
REMARK  5 active torsions:
REMARK  status: ('A' for Active; 'I' for Inactive)
REMARK    1  A    between atoms: C_3  and  N_4 
REMARK       I    between atoms: N_4  and  C_5 
REMARK    2  A    between atoms: C_9  and  N_10 
REMARK       I    between atoms: N_10  and  C_11 
REMARK    3  A    between atoms: C_11  and  C_12 
REMARK    4  A    between atoms: C_17  and  C_18 
REMARK    5  A    between atoms: C_24  and  C_25 
ROOT
HETATM    1  C   UNL     1     -42.282  56.174 -55.642  1.00  0.00     0.148 A 
HETATM    2  N   UNL     1     -42.444  55.592 -56.855  1.00  0.00    -0.165 NA
HETATM    3  N   UNL     1     -43.191  56.491 -57.524  1.00  0.00    -0.240 N 
HETATM    4  C   UNL     1     -43.620  57.539 -56.764  1.00  0.00     0.123 A 
HETATM    5  N   UNL     1     -44.471  58.456 -57.266  1.00  0.00    -0.364 N 
HETATM    6  C   UNL     1     -45.349  58.162 -58.405  1.00  0.00     0.143 C 
HETATM    7  C   UNL     1     -45.043  56.799 -59.066  1.00  0.00     0.068 C 
HETATM    8  C   UNL     1     -43.594  56.314 -58.905  1.00  0.00     0.221 C 
HETATM    9  C   UNL     1     -42.991  57.406 -55.558  1.00  0.00     0.089 A 
HETATM   10  H   UNL     1     -44.814  59.208 -56.669  1.00  0.00     0.162 HD
ENDROOT
BRANCH   1  11
HETATM   11  C   UNL     1     -41.492  55.557 -54.562  1.00  0.00     0.276 C 
HETATM   12  N   UNL     1     -42.166  55.549 -53.355  1.00  0.00    -0.322 N 
HETATM   13  H   UNL     1     -43.094  55.959 -53.404  1.00  0.00     0.169 HD
HETATM   14  O   UNL     1     -40.357  55.142 -54.767  1.00  0.00    -0.266 OA
BRANCH  12  15
HETATM   15  C   UNL     1     -41.696  55.107 -52.104  1.00  0.00     0.037 A 
HETATM   16  C   UNL     1     -41.369  53.780 -51.821  1.00  0.00     0.059 A 
HETATM   17  C   UNL     1     -40.857  53.382 -50.569  1.00  0.00     0.042 A 
HETATM   18  C   UNL     1     -40.739  54.339 -49.548  1.00  0.00    -0.035 A 
HETATM   19  C   UNL     1     -40.334  54.040 -48.131  1.00  0.00     0.050 C 
HETATM   20  C   UNL     1     -41.058  55.680 -49.843  1.00  0.00     0.011 A 
HETATM   21  C   UNL     1     -41.532  56.059 -51.102  1.00  0.00     0.030 A 
BRANCH  17  22
HETATM   22  N   UNL     1     -40.556  52.003 -50.471  1.00  0.00    -0.327 N 
HETATM   23  C   UNL     1     -39.685  51.256 -51.241  1.00  0.00     0.218 C 
HETATM   24  C   UNL     1     -39.605  49.824 -50.772  1.00  0.00     0.117 C 
HETATM   25  O   UNL     1     -39.039  51.633 -52.211  1.00  0.00    -0.274 OA
HETATM   26  H   UNL     1     -41.228  51.458 -49.946  1.00  0.00     0.169 HD
ENDBRANCH  17  22
ENDBRANCH  12  15
ENDBRANCH   1  11
BRANCH   8  27
HETATM   27  C   UNL     1     -42.614  57.011 -59.820  1.00  0.00     0.409 C 
HETATM   28  F   UNL     1     -41.651  56.166 -60.258  1.00  0.00    -0.169 F 
HETATM   29  F   UNL     1     -43.256  57.463 -60.928  1.00  0.00    -0.169 F 
HETATM   30  F   UNL     1     -41.996  58.071 -59.265  1.00  0.00    -0.169 F 
ENDBRANCH   8  27
BRANCH   6  31
HETATM   31  C   UNL     1     -45.429  59.269 -59.408  1.00  0.00     0.075 A 
HETATM   32  O   UNL     1     -44.410  60.178 -59.384  1.00  0.00    -0.325 OA
HETATM   33  C   UNL     1     -44.639  61.061 -60.390  1.00  0.00     0.142 A 
HETATM   34  C   UNL     1     -45.792  60.736 -61.062  1.00  0.00     0.027 A 
HETATM   35  C   UNL     1     -46.303  59.578 -60.431  1.00  0.00     0.037 A 
ENDBRANCH   6  31
TORSDOF 5
ENDMDL
MODEL 6
REMARK VINA RESULT:      -8.0      6.092      9.275
REMARK  5 active torsions:
REMARK  status: ('A' for Active; 'I' for Inactive)
REMARK    1  A    between atoms: C_3  and  N_4 
REMARK       I    between atoms: N_4  and  C_5 
REMARK    2  A    between atoms: C_9  and  N_10 
REMARK       I    between atoms: N_10  and  C_11 
REMARK    3  A    between atoms: C_11  and  C_12 
REMARK    4  A    between atoms: C_17  and  C_18 
REMARK    5  A    between atoms: C_24  and  C_25 
ROOT
HETATM    1  C   UNL     1     -43.998  57.198 -51.781  1.00  0.00     0.148 A 
HETATM    2  N   UNL     1     -43.401  57.348 -52.989  1.00  0.00    -0.165 NA
HETATM    3  N   UNL     1     -42.653  56.234 -53.097  1.00  0.00    -0.240 N 
HETATM    4  C   UNL     1     -42.639  55.458 -51.975  1.00  0.00     0.123 A 
HETATM    5  N   UNL     1     -41.843  54.372 -51.893  1.00  0.00    -0.364 N 
HETATM    6  C   UNL     1     -40.639  54.226 -52.719  1.00  0.00     0.143 C 
HETATM    7  C   UNL     1     -40.514  55.323 -53.801  1.00  0.00     0.068 C 
HETATM    8  C   UNL     1     -41.847  55.930 -54.262  1.00  0.00     0.221 C 
HETATM    9  C   UNL     1     -43.557  56.012 -51.127  1.00  0.00     0.089 A 
HETATM   10  H   UNL     1     -41.815  53.830 -51.030  1.00  0.00     0.162 HD
ENDROOT
BRANCH   1  11
HETATM   11  C   UNL     1     -44.952  58.180 -51.237  1.00  0.00     0.276 C 
HETATM   12  N   UNL     1     -44.429  59.460 -51.204  1.00  0.00    -0.322 N 
HETATM   13  H   UNL     1     -43.481  59.522 -51.566  1.00  0.00     0.169 HD
HETATM   14  O   UNL     1     -46.061  57.834 -50.844  1.00  0.00    -0.266 OA
BRANCH  12  15
HETATM   15  C   UNL     1     -45.025  60.626 -50.688  1.00  0.00     0.037 A 
HETATM   16  C   UNL     1     -44.845  61.075 -49.378  1.00  0.00     0.059 A 
HETATM   17  C   UNL     1     -45.422  62.273 -48.909  1.00  0.00     0.042 A 
HETATM   18  C   UNL     1     -46.264  63.003 -49.764  1.00  0.00    -0.035 A 
HETATM   19  C   UNL     1     -47.047  64.222 -49.365  1.00  0.00     0.050 C 
HETATM   20  C   UNL     1     -46.431  62.551 -51.089  1.00  0.00     0.011 A 
HETATM   21  C   UNL     1     -45.822  61.378 -51.544  1.00  0.00     0.030 A 
BRANCH  17  22
HETATM   22  N   UNL     1     -45.109  62.585 -47.564  1.00  0.00    -0.327 N 
HETATM   23  C   UNL     1     -45.846  62.317 -46.426  1.00  0.00     0.218 C 
HETATM   24  C   UNL     1     -45.130  62.764 -45.175  1.00  0.00     0.117 C 
HETATM   25  O   UNL     1     -46.956  61.804 -46.362  1.00  0.00    -0.274 OA
HETATM   26  H   UNL     1     -44.394  63.293 -47.448  1.00  0.00     0.169 HD
ENDBRANCH  17  22
ENDBRANCH  12  15
ENDBRANCH   1  11
BRANCH   8  27
HETATM   27  C   UNL     1     -42.624  55.045 -55.208  1.00  0.00     0.409 C 
HETATM   28  F   UNL     1     -43.477  55.763 -55.977  1.00  0.00    -0.169 F 
HETATM   29  F   UNL     1     -41.773  54.423 -56.065  1.00  0.00    -0.169 F 
HETATM   30  F   UNL     1     -43.344  54.083 -54.601  1.00  0.00    -0.169 F 
ENDBRANCH   8  27
BRANCH   6  31
HETATM   31  C   UNL     1     -40.459  52.853 -53.286  1.00  0.00     0.075 A 
HETATM   32  O   UNL     1     -39.628  52.019 -52.594  1.00  0.00    -0.325 OA
HETATM   33  C   UNL     1     -39.638  50.823 -53.235  1.00  0.00     0.142 A 
HETATM   34  C   UNL     1     -40.461  50.873 -54.334  1.00  0.00     0.027 A 
HETATM   35  C   UNL     1     -40.994  52.183 -54.368  1.00  0.00     0.037 A 
ENDBRANCH   6  31
TORSDOF 5
ENDMDL
MODEL 7
REMARK VINA RESULT:      -7.9      6.482      9.832
REMARK  5 active torsions:
REMARK  status: ('A' for Active; 'I' for Inactive)
REMARK    1  A    between atoms: C_3  and  N_4 
REMARK       I    between atoms: N_4  and  C_5 
REMARK    2  A    between atoms: C_9  and  N_10 
REMARK       I    between atoms: N_10  and  C_11 
REMARK    3  A    between atoms: C_11  and  C_12 
REMARK    4  A    between atoms: C_17  and  C_18 
REMARK    5  A    between atoms: C_24  and  C_25 
ROOT
HETATM    1  C   UNL     1     -41.645  57.672 -51.649  1.00  0.00     0.148 A 
HETATM    2  N   UNL     1     -42.198  56.682 -50.905  1.00  0.00    -0.165 NA
HETATM    3  N   UNL     1     -41.850  55.568 -51.577  1.00  0.00    -0.240 N 
HETATM    4  C   UNL     1     -41.226  55.804 -52.767  1.00  0.00     0.123 A 
HETATM    5  N   UNL     1     -40.923  54.791 -53.603  1.00  0.00    -0.364 N 
HETATM    6  C   UNL     1     -41.633  53.507 -53.560  1.00  0.00     0.143 C 
HETATM    7  C   UNL     1     -42.588  53.387 -52.350  1.00  0.00     0.068 C 
HETATM    8  C   UNL     1     -42.194  54.234 -51.130  1.00  0.00     0.221 C 
HETATM    9  C   UNL     1     -41.012  57.154 -52.814  1.00  0.00     0.089 A 
HETATM   10  H   UNL     1     -40.497  54.991 -54.507  1.00  0.00     0.162 HD
ENDROOT
BRANCH   1  11
HETATM   11  C   UNL     1     -41.743  59.095 -51.279  1.00  0.00     0.276 C 
HETATM   12  N   UNL     1     -43.037  59.473 -50.975  1.00  0.00    -0.322 N 
HETATM   13  H   UNL     1     -43.710  58.715 -51.045  1.00  0.00     0.169 HD
HETATM   14  O   UNL     1     -40.753  59.819 -51.289  1.00  0.00    -0.266 OA
BRANCH  12  15
HETATM   15  C   UNL     1     -43.510  60.759 -50.651  1.00  0.00     0.037 A 
HETATM   16  C   UNL     1     -43.969  61.121 -49.384  1.00  0.00     0.059 A 
HETATM   17  C   UNL     1     -44.393  62.433 -49.085  1.00  0.00     0.042 A 
HETATM   18  C   UNL     1     -44.423  63.388 -50.113  1.00  0.00    -0.035 A 
HETATM   19  C   UNL     1     -44.968  64.782 -49.977  1.00  0.00     0.050 C 
HETATM   20  C   UNL     1     -43.945  63.020 -51.387  1.00  0.00     0.011 A 
HETATM   21  C   UNL     1     -43.497  61.723 -51.654  1.00  0.00     0.030 A 
BRANCH  17  22
HETATM   22  N   UNL     1     -44.799  62.624 -47.743  1.00  0.00    -0.327 N 
HETATM   23  C   UNL     1     -45.993  62.267 -47.147  1.00  0.00     0.218 C 
HETATM   24  C   UNL     1     -46.008  62.596 -45.673  1.00  0.00     0.117 C 
HETATM   25  O   UNL     1     -46.971  61.762 -47.684  1.00  0.00    -0.274 OA
HETATM   26  H   UNL     1     -44.260  63.312 -47.230  1.00  0.00     0.169 HD
ENDBRANCH  17  22
ENDBRANCH  12  15
ENDBRANCH   1  11
BRANCH   8  27
HETATM   27  C   UNL     1     -41.056  53.651 -50.326  1.00  0.00     0.409 C 
HETATM   28  F   UNL     1     -40.982  52.306 -50.466  1.00  0.00    -0.169 F 
HETATM   29  F   UNL     1     -39.872  54.144 -50.774  1.00  0.00    -0.169 F 
HETATM   30  F   UNL     1     -41.118  53.914 -49.007  1.00  0.00    -0.169 F 
ENDBRANCH   8  27
BRANCH   6  31
HETATM   31  C   UNL     1     -40.736  52.316 -53.689  1.00  0.00     0.075 A 
HETATM   32  O   UNL     1     -41.247  51.248 -54.370  1.00  0.00    -0.325 OA
HETATM   33  C   UNL     1     -40.274  50.303 -54.418  1.00  0.00     0.142 A 
HETATM   34  C   UNL     1     -39.142  50.744 -53.775  1.00  0.00     0.027 A 
HETATM   35  C   UNL     1     -39.438  52.045 -53.304  1.00  0.00     0.037 A 
ENDBRANCH   6  31
TORSDOF 5
ENDMDL
MODEL 8
REMARK VINA RESULT:      -7.9      3.829     10.238
REMARK  5 active torsions:
REMARK  status: ('A' for Active; 'I' for Inactive)
REMARK    1  A    between atoms: C_3  and  N_4 
REMARK       I    between atoms: N_4  and  C_5 
REMARK    2  A    between atoms: C_9  and  N_10 
REMARK       I    between atoms: N_10  and  C_11 
REMARK    3  A    between atoms: C_11  and  C_12 
REMARK    4  A    between atoms: C_17  and  C_18 
REMARK    5  A    between atoms: C_24  and  C_25 
ROOT
HETATM    1  C   UNL     1     -43.554  56.406 -57.011  1.00  0.00     0.148 A 
HETATM    2  N   UNL     1     -43.461  57.134 -55.872  1.00  0.00    -0.165 NA
HETATM    3  N   UNL     1     -42.934  56.259 -54.995  1.00  0.00    -0.240 N 
HETATM    4  C   UNL     1     -42.816  54.988 -55.476  1.00  0.00     0.123 A 
HETATM    5  N   UNL     1     -42.414  53.979 -54.677  1.00  0.00    -0.364 N 
HETATM    6  C   UNL     1     -42.552  54.040 -53.217  1.00  0.00     0.143 C 
HETATM    7  C   UNL     1     -43.001  55.431 -52.712  1.00  0.00     0.068 C 
HETATM    8  C   UNL     1     -42.615  56.604 -53.625  1.00  0.00     0.221 C 
HETATM    9  C   UNL     1     -43.139  55.060 -56.802  1.00  0.00     0.089 A 
HETATM   10  H   UNL     1     -42.373  53.028 -55.043  1.00  0.00     0.162 HD
ENDROOT
BRANCH   1  11
HETATM   11  C   UNL     1     -44.061  56.967 -58.276  1.00  0.00     0.276 C 
HETATM   12  N   UNL     1     -45.438  56.891 -58.372  1.00  0.00    -0.322 N 
HETATM   13  H   UNL     1     -45.880  56.471 -57.559  1.00  0.00     0.169 HD
HETATM   14  O   UNL     1     -43.293  57.410 -59.123  1.00  0.00    -0.266 OA
BRANCH  12  15
HETATM   15  C   UNL     1     -46.252  57.261 -59.459  1.00  0.00     0.037 A 
HETATM   16  C   UNL     1     -46.547  58.584 -59.793  1.00  0.00     0.059 A 
HETATM   17  C   UNL     1     -47.329  58.919 -60.917  1.00  0.00     0.042 A 
HETATM   18  C   UNL     1     -47.891  57.887 -61.686  1.00  0.00    -0.035 A 
HETATM   19  C   UNL     1     -48.845  58.088 -62.830  1.00  0.00     0.050 C 
HETATM   20  C   UNL     1     -47.578  56.554 -61.353  1.00  0.00     0.011 A 
HETATM   21  C   UNL     1     -46.771  56.244 -60.254  1.00  0.00     0.030 A 
BRANCH  17  22
HETATM   22  N   UNL     1     -47.502  60.310 -61.117  1.00  0.00    -0.327 N 
HETATM   23  C   UNL     1     -48.569  61.105 -60.744  1.00  0.00     0.218 C 
HETATM   24  C   UNL     1     -48.336  62.556 -61.089  1.00  0.00     0.117 C 
HETATM   25  O   UNL     1     -49.614  60.749 -60.214  1.00  0.00    -0.274 OA
HETATM   26  H   UNL     1     -46.897  60.716 -61.820  1.00  0.00     0.169 HD
ENDBRANCH  17  22
ENDBRANCH  12  15
ENDBRANCH   1  11
BRANCH   8  27
HETATM   27  C   UNL     1     -41.162  57.004 -53.521  1.00  0.00     0.409 C 
HETATM   28  F   UNL     1     -40.965  58.283 -53.920  1.00  0.00    -0.169 F 
HETATM   29  F   UNL     1     -40.757  56.945 -52.225  1.00  0.00    -0.169 F 
HETATM   30  F   UNL     1     -40.322  56.227 -54.231  1.00  0.00    -0.169 F 
ENDBRANCH   8  27
BRANCH   6  31
HETATM   31  C   UNL     1     -41.357  53.532 -52.475  1.00  0.00     0.075 A 
HETATM   32  O   UNL     1     -41.244  53.925 -51.172  1.00  0.00    -0.325 OA
HETATM   33  C   UNL     1     -40.135  53.325 -50.668  1.00  0.00     0.142 A 
HETATM   34  C   UNL     1     -39.528  52.552 -51.629  1.00  0.00     0.027 A 
HETATM   35  C   UNL     1     -40.316  52.683 -52.796  1.00  0.00     0.037 A 
ENDBRANCH   6  31
TORSDOF 5
ENDMDL
MODEL 9
REMARK VINA RESULT:      -7.8     16.317     18.685
REMARK  5 active torsions:
REMARK  status: ('A' for Active; 'I' for Inactive)
REMARK    1  A    between atoms: C_3  and  N_4 
REMARK       I    between atoms: N_4  and  C_5 
REMARK    2  A    between atoms: C_9  and  N_10 
REMARK       I    between atoms: N_10  and  C_11 
REMARK    3  A    between atoms: C_11  and  C_12 
REMARK    4  A    between atoms: C_17  and  C_18 
REMARK    5  A    between atoms: C_24  and  C_25 
ROOT
HETATM    1  C   UNL     1     -33.593  39.763 -53.087  1.00  0.00     0.148 A 
HETATM    2  N   UNL     1     -34.532  40.731 -52.961  1.00  0.00    -0.165 NA
HETATM    3  N   UNL     1     -34.922  40.942 -54.233  1.00  0.00    -0.240 N 
HETATM    4  C   UNL     1     -34.191  40.262 -55.162  1.00  0.00     0.123 A 
HETATM    5  N   UNL     1     -34.389  40.462 -56.481  1.00  0.00    -0.364 N 
HETATM    6  C   UNL     1     -34.989  41.697 -57.000  1.00  0.00     0.143 C 
HETATM    7  C   UNL     1     -35.538  42.615 -55.883  1.00  0.00     0.068 C 
HETATM    8  C   UNL     1     -35.958  41.887 -54.597  1.00  0.00     0.221 C 
HETATM    9  C   UNL     1     -33.368  39.431 -54.454  1.00  0.00     0.089 A 
HETATM   10  H   UNL     1     -33.804  39.977 -57.160  1.00  0.00     0.162 HD
ENDROOT
BRANCH   1  11
HETATM   11  C   UNL     1     -32.890  39.179 -51.931  1.00  0.00     0.276 C 
HETATM   12  N   UNL     1     -33.480  39.521 -50.729  1.00  0.00    -0.322 N 
HETATM   13  H   UNL     1     -34.302  40.110 -50.831  1.00  0.00     0.169 HD
HETATM   14  O   UNL     1     -31.882  38.497 -52.082  1.00  0.00    -0.266 OA
BRANCH  12  15
HETATM   15  C   UNL     1     -33.042  39.205 -49.429  1.00  0.00     0.037 A 
HETATM   16  C   UNL     1     -31.840  39.657 -48.882  1.00  0.00     0.059 A 
HETATM   17  C   UNL     1     -31.457  39.357 -47.558  1.00  0.00     0.042 A 
HETATM   18  C   UNL     1     -32.275  38.515 -46.788  1.00  0.00    -0.035 A 
HETATM   19  C   UNL     1     -31.934  38.005 -45.415  1.00  0.00     0.050 C 
HETATM   20  C   UNL     1     -33.493  38.072 -47.341  1.00  0.00     0.011 A 
HETATM   21  C   UNL     1     -33.872  38.410 -48.644  1.00  0.00     0.030 A 
BRANCH  17  22
HETATM   22  N   UNL     1     -30.220  39.923 -47.165  1.00  0.00    -0.327 N 
HETATM   23  C   UNL     1     -29.034  39.277 -46.873  1.00  0.00     0.218 C 
HETATM   24  C   UNL     1     -27.927  40.252 -46.552  1.00  0.00     0.117 C 
HETATM   25  O   UNL     1     -28.833  38.070 -46.837  1.00  0.00    -0.274 OA
HETATM   26  H   UNL     1     -30.279  40.875 -46.826  1.00  0.00     0.169 HD
ENDBRANCH  17  22
ENDBRANCH  12  15
ENDBRANCH   1  11
BRANCH   8  27
HETATM   27  C   UNL     1     -37.287  41.176 -54.707  1.00  0.00     0.409 C 
HETATM   28  F   UNL     1     -37.945  41.163 -53.524  1.00  0.00    -0.169 F 
HETATM   29  F   UNL     1     -38.092  41.831 -55.582  1.00  0.00    -0.169 F 
HETATM   30  F   UNL     1     -37.199  39.901 -55.132  1.00  0.00    -0.169 F 
ENDBRANCH   8  27
BRANCH   6  31
HETATM   31  C   UNL     1     -35.992  41.471 -58.087  1.00  0.00     0.075 A 
HETATM   32  O   UNL     1     -36.115  40.187 -58.536  1.00  0.00    -0.325 OA
HETATM   33  C   UNL     1     -37.097  40.185 -59.473  1.00  0.00     0.142 A 
HETATM   34  C   UNL     1     -37.608  41.450 -59.638  1.00  0.00     0.027 A 
HETATM   35  C   UNL     1     -36.897  42.282 -58.742  1.00  0.00     0.037 A 
ENDBRANCH   6  31
TORSDOF 5
ENDMDL
MODEL 10
REMARK VINA RESULT:      -7.7      2.941     10.089
REMARK  5 active torsions:
REMARK  status: ('A' for Active; 'I' for Inactive)
REMARK    1  A    between atoms: C_3  and  N_4 
REMARK       I    between atoms: N_4  and  C_5 
REMARK    2  A    between atoms: C_9  and  N_10 
REMARK       I    between atoms: N_10  and  C_11 
REMARK    3  A    between atoms: C_11  and  C_12 
REMARK    4  A    between atoms: C_17  and  C_18 
REMARK    5  A    between atoms: C_24  and  C_25 
ROOT
HETATM    1  C   UNL     1     -43.078  56.480 -57.069  1.00  0.00     0.148 A 
HETATM    2  N   UNL     1     -43.066  57.273 -55.970  1.00  0.00    -0.165 NA
HETATM    3  N   UNL     1     -42.748  56.416 -54.981  1.00  0.00    -0.240 N 
HETATM    4  C   UNL     1     -42.691  55.110 -55.370  1.00  0.00     0.123 A 
HETATM    5  N   UNL     1     -42.498  54.126 -54.468  1.00  0.00    -0.364 N 
HETATM    6  C   UNL     1     -42.822  54.299 -53.047  1.00  0.00     0.143 C 
HETATM    7  C   UNL     1     -43.197  55.755 -52.687  1.00  0.00     0.068 C 
HETATM    8  C   UNL     1     -42.581  56.825 -53.601  1.00  0.00     0.221 C 
HETATM    9  C   UNL     1     -42.827  55.119 -56.730  1.00  0.00     0.089 A 
HETATM   10  H   UNL     1     -42.502  53.153 -54.772  1.00  0.00     0.162 HD
ENDROOT
BRANCH   1  11
HETATM   11  C   UNL     1     -43.355  56.996 -58.421  1.00  0.00     0.276 C 
HETATM   12  N   UNL     1     -43.080  58.345 -58.537  1.00  0.00    -0.322 N 
HETATM   13  H   UNL     1     -42.726  58.763 -57.681  1.00  0.00     0.169 HD
HETATM   14  O   UNL     1     -43.808  56.265 -59.296  1.00  0.00    -0.266 OA
BRANCH  12  15
HETATM   15  C   UNL     1     -43.290  59.180 -59.651  1.00  0.00     0.037 A 
HETATM   16  C   UNL     1     -42.273  59.888 -60.293  1.00  0.00     0.059 A 
HETATM   17  C   UNL     1     -42.513  60.678 -61.436  1.00  0.00     0.042 A 
HETATM   18  C   UNL     1     -43.831  60.816 -61.902  1.00  0.00    -0.035 A 
HETATM   19  C   UNL     1     -44.256  61.722 -63.023  1.00  0.00     0.050 C 
HETATM   20  C   UNL     1     -44.851  60.088 -61.258  1.00  0.00     0.011 A 
HETATM   21  C   UNL     1     -44.586  59.282 -60.146  1.00  0.00     0.030 A 
BRANCH  17  22
HETATM   22  N   UNL     1     -41.360  61.301 -61.970  1.00  0.00    -0.327 N 
HETATM   23  C   UNL     1     -40.864  62.563 -61.704  1.00  0.00     0.218 C 
HETATM   24  C   UNL     1     -39.571  62.825 -62.437  1.00  0.00     0.117 C 
HETATM   25  O   UNL     1     -41.363  63.424 -60.990  1.00  0.00    -0.274 OA
HETATM   26  H   UNL     1     -41.001  60.875 -62.815  1.00  0.00     0.169 HD
ENDBRANCH  17  22
ENDBRANCH  12  15
ENDBRANCH   1  11
BRANCH   8  27
HETATM   27  C   UNL     1     -41.123  57.100 -53.319  1.00  0.00     0.409 C 
HETATM   28  F   UNL     1     -40.784  58.372 -53.635  1.00  0.00    -0.169 F 
HETATM   29  F   UNL     1     -40.873  56.958 -51.992  1.00  0.00    -0.169 F 
HETATM   30  F   UNL     1     -40.270  56.284 -53.969  1.00  0.00    -0.169 F 
ENDBRANCH   8  27
BRANCH   6  31
HETATM   31  C   UNL     1     -41.791  53.738 -52.120  1.00  0.00     0.075 A 
HETATM   32  O   UNL     1     -40.808  52.985 -52.697  1.00  0.00    -0.325 OA
HETATM   33  C   UNL     1     -39.956  52.616 -51.706  1.00  0.00     0.142 A 
HETATM   34  C   UNL     1     -40.376  53.117 -50.498  1.00  0.00     0.027 A 
HETATM   35  C   UNL     1     -41.561  53.843 -50.763  1.00  0.00     0.037 A 
ENDBRANCH   6  31
TORSDOF 5
ENDMDL
